MODEL 1
REMARK VINA RESULT:     -10.1      0.000      0.000
REMARK  7 active torsions:
REMARK  status: ('A' for Active; 'I' for Inactive)
REMARK    1  A    between atoms: C_4  and  C_5 
REMARK    2  A    between atoms: C_5  and  C_6 
REMARK    3  A    between atoms: C_8  and  C_9 
REMARK    4  A    between atoms: C_9  and  C_10 
REMARK       I    between atoms: C_10  and  N_11 
REMARK    5  A    between atoms: N_11  and  N_12 
REMARK       I    between atoms: N_12  and  C_13 
REMARK       I    between atoms: C_13  and  N_14 
REMARK    6  A    between atoms: N_14  and  C_15 
REMARK    7  A    between atoms: C_17  and  C_18 
ROOT
HETATM    1  C   UNL     1      23.589  43.321  49.984  1.00  0.00     0.238 C 
HETATM    2  N   UNL     1      24.785  42.641  50.023  1.00  0.00    -0.266 N 
HETATM    3  O   UNL     1      22.969  43.641  50.996  1.00  0.00    -0.272 OA
HETATM    4  H   UNL     1      25.279  42.294  49.199  1.00  0.00     0.190 HD
ENDROOT
BRANCH   1   5
HETATM    5  C   UNL     1      23.137  43.635  48.580  1.00  0.00     0.139 C 
BRANCH   5   6
HETATM    6  C   UNL     1      22.236  44.867  48.532  1.00  0.00     0.185 C 
HETATM    7  N   UNL     1      22.954  46.037  49.031  1.00  0.00    -0.363 N 
HETATM    8  C   UNL     1      22.700  47.273  48.485  1.00  0.00     0.125 C 
HETATM    9  H   UNL     1      23.091  46.018  50.042  1.00  0.00     0.161 HD
HETATM   10  N   UNL     1      22.109  47.468  47.342  1.00  0.00    -0.159 NA
HETATM   11  N   UNL     1      21.695  46.370  46.650  1.00  0.00    -0.244 N 
HETATM   12  C   UNL     1      21.755  45.070  47.093  1.00  0.00     0.261 C 
HETATM   13  H   UNL     1      21.331  46.535  45.717  1.00  0.00     0.192 HD
HETATM   14  O   UNL     1      21.385  44.140  46.376  1.00  0.00    -0.269 OA
BRANCH   8  15
HETATM   15  C   UNL     1      23.142  48.503  49.270  1.00  0.00     0.118 C 
BRANCH  15  16
HETATM   16  C   UNL     1      24.626  48.754  49.148  1.00  0.00    -0.051 A 
HETATM   17  C   UNL     1      25.117  49.793  48.348  1.00  0.00     0.007 A 
HETATM   18  C   UNL     1      26.492  50.015  48.246  1.00  0.00     0.001 A 
HETATM   19  C   UNL     1      27.386  49.202  48.941  1.00  0.00     0.000 A 
HETATM   20  C   UNL     1      26.907  48.165  49.737  1.00  0.00     0.001 A 
HETATM   21  C   UNL     1      25.535  47.941  49.840  1.00  0.00     0.007 A 
ENDBRANCH  15  16
ENDBRANCH   8  15
ENDBRANCH   5   6
ENDBRANCH   1   5
BRANCH   2  22
HETATM   22  N   UNL     1      25.333  42.297  51.267  1.00  0.00    -0.249 N 
HETATM   23  C   UNL     1      26.433  43.032  51.685  1.00  0.00     0.339 C 
HETATM   24  N   UNL     1      26.934  42.561  52.878  1.00  0.00    -0.308 N 
HETATM   25  O   UNL     1      26.834  43.996  51.041  1.00  0.00    -0.245 OA
HETATM   26  H   UNL     1      26.373  41.857  53.338  1.00  0.00     0.170 HD
HETATM   27  H   UNL     1      25.268  41.310  51.501  1.00  0.00     0.192 HD
BRANCH  24  28
HETATM   28  C   UNL     1      28.047  43.044  53.593  1.00  0.00     0.037 A 
HETATM   29  C   UNL     1      28.030  44.204  54.372  1.00  0.00     0.045 A 
HETATM   30  C   UNL     1      29.177  44.625  55.068  1.00  0.00     0.050 A 
HETATM   31  C   UNL     1      30.355  43.873  54.958  1.00  0.00     0.016 A 
HETATM   32  C   UNL     1      30.383  42.718  54.179  1.00  0.00     0.003 A 
HETATM   33  C   UNL     1      29.235  42.308  53.501  1.00  0.00     0.029 A 
BRANCH  30  34
HETATM   34  C   UNL     1      29.159  45.888  55.892  1.00  0.00     0.417 C 
HETATM   35  F   UNL     1      30.388  46.279  56.328  1.00  0.00    -0.166 F 
HETATM   36  F   UNL     1      28.655  46.954  55.207  1.00  0.00    -0.166 F 
HETATM   37  F   UNL     1      28.385  45.766  57.006  1.00  0.00    -0.166 F 
ENDBRANCH  30  34
ENDBRANCH  24  28
ENDBRANCH   2  22
TORSDOF 7
ENDMDL
MODEL 2
REMARK VINA RESULT:     -10.0      2.955      4.176
REMARK  7 active torsions:
REMARK  status: ('A' for Active; 'I' for Inactive)
REMARK    1  A    between atoms: C_4  and  C_5 
REMARK    2  A    between atoms: C_5  and  C_6 
REMARK    3  A    between atoms: C_8  and  C_9 
REMARK    4  A    between atoms: C_9  and  C_10 
REMARK       I    between atoms: C_10  and  N_11 
REMARK    5  A    between atoms: N_11  and  N_12 
REMARK       I    between atoms: N_12  and  C_13 
REMARK       I    between atoms: C_13  and  N_14 
REMARK    6  A    between atoms: N_14  and  C_15 
REMARK    7  A    between atoms: C_17  and  C_18 
ROOT
HETATM    1  C   UNL     1      25.037  46.670  50.552  1.00  0.00     0.238 C 
HETATM    2  N   UNL     1      25.071  45.772  51.595  1.00  0.00    -0.266 N 
HETATM    3  O   UNL     1      25.599  47.763  50.594  1.00  0.00    -0.272 OA
HETATM    4  H   UNL     1      24.549  44.895  51.618  1.00  0.00     0.190 HD
ENDROOT
BRANCH   1   5
HETATM    5  C   UNL     1      24.253  46.167  49.367  1.00  0.00     0.139 C 
BRANCH   5   6
HETATM    6  C   UNL     1      22.857  46.781  49.302  1.00  0.00     0.185 C 
HETATM    7  N   UNL     1      22.920  48.209  49.604  1.00  0.00    -0.363 N 
HETATM    8  C   UNL     1      22.055  49.074  48.973  1.00  0.00     0.125 C 
HETATM    9  H   UNL     1      23.098  48.400  50.590  1.00  0.00     0.161 HD
HETATM   10  N   UNL     1      21.390  48.795  47.891  1.00  0.00    -0.159 NA
HETATM   11  N   UNL     1      21.545  47.551  47.357  1.00  0.00    -0.244 N 
HETATM   12  C   UNL     1      22.268  46.521  47.913  1.00  0.00     0.261 C 
HETATM   13  H   UNL     1      21.102  47.385  46.460  1.00  0.00     0.192 HD
HETATM   14  O   UNL     1      22.376  45.440  47.335  1.00  0.00    -0.269 OA
BRANCH   8  15
HETATM   15  C   UNL     1      21.864  50.458  49.583  1.00  0.00     0.118 C 
BRANCH  15  16
HETATM   16  C   UNL     1      20.449  50.960  49.426  1.00  0.00    -0.051 A 
HETATM   17  C   UNL     1      19.405  50.422  50.188  1.00  0.00     0.007 A 
HETATM   18  C   UNL     1      18.101  50.898  50.035  1.00  0.00     0.001 A 
HETATM   19  C   UNL     1      17.830  51.912  49.118  1.00  0.00     0.000 A 
HETATM   20  C   UNL     1      18.861  52.451  48.353  1.00  0.00     0.001 A 
HETATM   21  C   UNL     1      20.163  51.978  48.504  1.00  0.00     0.007 A 
ENDBRANCH  15  16
ENDBRANCH   8  15
ENDBRANCH   5   6
ENDBRANCH   1   5
BRANCH   2  22
HETATM   22  N   UNL     1      25.779  46.105  52.758  1.00  0.00    -0.249 N 
HETATM   23  C   UNL     1      26.877  45.312  53.064  1.00  0.00     0.339 C 
HETATM   24  N   UNL     1      27.448  45.680  54.262  1.00  0.00    -0.308 N 
HETATM   25  O   UNL     1      27.259  44.435  52.296  1.00  0.00    -0.245 OA
HETATM   26  H   UNL     1      27.088  46.529  54.674  1.00  0.00     0.170 HD
HETATM   27  H   UNL     1      25.209  46.487  53.508  1.00  0.00     0.192 HD
BRANCH  24  28
HETATM   28  C   UNL     1      28.561  45.095  54.897  1.00  0.00     0.037 A 
HETATM   29  C   UNL     1      29.053  45.503  56.140  1.00  0.00     0.045 A 
HETATM   30  C   UNL     1      30.166  44.869  56.722  1.00  0.00     0.050 A 
HETATM   31  C   UNL     1      30.795  43.825  56.029  1.00  0.00     0.016 A 
HETATM   32  C   UNL     1      30.315  43.416  54.786  1.00  0.00     0.003 A 
HETATM   33  C   UNL     1      29.205  44.049  54.225  1.00  0.00     0.029 A 
BRANCH  30  34
HETATM   34  C   UNL     1      30.704  45.326  58.055  1.00  0.00     0.417 C 
HETATM   35  F   UNL     1      31.003  46.653  58.101  1.00  0.00    -0.166 F 
HETATM   36  F   UNL     1      29.827  45.109  59.077  1.00  0.00    -0.166 F 
HETATM   37  F   UNL     1      31.846  44.670  58.403  1.00  0.00    -0.166 F 
ENDBRANCH  30  34
ENDBRANCH  24  28
ENDBRANCH   2  22
TORSDOF 7
ENDMDL
MODEL 3
REMARK VINA RESULT:      -9.9      3.651      4.816
REMARK  7 active torsions:
REMARK  status: ('A' for Active; 'I' for Inactive)
REMARK    1  A    between atoms: C_4  and  C_5 
REMARK    2  A    between atoms: C_5  and  C_6 
REMARK    3  A    between atoms: C_8  and  C_9 
REMARK    4  A    between atoms: C_9  and  C_10 
REMARK       I    between atoms: C_10  and  N_11 
REMARK    5  A    between atoms: N_11  and  N_12 
REMARK       I    between atoms: N_12  and  C_13 
REMARK       I    between atoms: C_13  and  N_14 
REMARK    6  A    between atoms: N_14  and  C_15 
REMARK    7  A    between atoms: C_17  and  C_18 
ROOT
HETATM    1  C   UNL     1      22.096  46.073  48.474  1.00  0.00     0.238 C 
HETATM    2  N   UNL     1      22.772  45.405  49.470  1.00  0.00    -0.266 N 
HETATM    3  O   UNL     1      22.485  47.139  48.002  1.00  0.00    -0.272 OA
HETATM    4  H   UNL     1      22.430  44.561  49.934  1.00  0.00     0.190 HD
ENDROOT
BRANCH   1   5
HETATM    5  C   UNL     1      20.849  45.354  48.025  1.00  0.00     0.139 C 
BRANCH   5   6
HETATM    6  C   UNL     1      19.660  45.648  48.937  1.00  0.00     0.185 C 
HETATM    7  N   UNL     1      19.768  46.998  49.486  1.00  0.00    -0.363 N 
HETATM    8  C   UNL     1      18.626  47.732  49.713  1.00  0.00     0.125 C 
HETATM    9  H   UNL     1      20.497  47.082  50.195  1.00  0.00     0.161 HD
HETATM   10  N   UNL     1      17.464  47.468  49.191  1.00  0.00    -0.159 NA
HETATM   11  N   UNL     1      17.368  46.377  48.381  1.00  0.00    -0.244 N 
HETATM   12  C   UNL     1      18.367  45.464  48.139  1.00  0.00     0.261 C 
HETATM   13  H   UNL     1      16.483  46.246  47.901  1.00  0.00     0.192 HD
HETATM   14  O   UNL     1      18.192  44.527  47.361  1.00  0.00    -0.269 OA
BRANCH   8  15
HETATM   15  C   UNL     1      18.728  48.939  50.638  1.00  0.00     0.118 C 
BRANCH  15  16
HETATM   16  C   UNL     1      18.857  50.234  49.873  1.00  0.00    -0.051 A 
HETATM   17  C   UNL     1      20.033  50.550  49.183  1.00  0.00     0.007 A 
HETATM   18  C   UNL     1      20.137  51.750  48.477  1.00  0.00     0.001 A 
HETATM   19  C   UNL     1      19.068  52.645  48.456  1.00  0.00     0.000 A 
HETATM   20  C   UNL     1      17.895  52.341  49.142  1.00  0.00     0.001 A 
HETATM   21  C   UNL     1      17.789  51.143  49.848  1.00  0.00     0.007 A 
ENDBRANCH  15  16
ENDBRANCH   8  15
ENDBRANCH   5   6
ENDBRANCH   1   5
BRANCH   2  22
HETATM   22  N   UNL     1      23.960  45.953  49.973  1.00  0.00    -0.249 N 
HETATM   23  C   UNL     1      24.539  45.296  51.050  1.00  0.00     0.339 C 
HETATM   24  N   UNL     1      25.654  45.962  51.509  1.00  0.00    -0.308 N 
HETATM   25  O   UNL     1      24.083  44.235  51.466  1.00  0.00    -0.245 OA
HETATM   26  H   UNL     1      25.966  46.734  50.937  1.00  0.00     0.170 HD
HETATM   27  H   UNL     1      24.021  46.966  49.908  1.00  0.00     0.192 HD
BRANCH  24  28
HETATM   28  C   UNL     1      26.483  45.604  52.589  1.00  0.00     0.037 A 
HETATM   29  C   UNL     1      27.361  44.517  52.572  1.00  0.00     0.045 A 
HETATM   30  C   UNL     1      28.168  44.220  53.685  1.00  0.00     0.050 A 
HETATM   31  C   UNL     1      28.071  45.023  54.831  1.00  0.00     0.016 A 
HETATM   32  C   UNL     1      27.194  46.105  54.859  1.00  0.00     0.003 A 
HETATM   33  C   UNL     1      26.405  46.392  53.744  1.00  0.00     0.029 A 
BRANCH  30  34
HETATM   34  C   UNL     1      29.101  43.035  53.668  1.00  0.00     0.417 C 
HETATM   35  F   UNL     1      28.464  41.837  53.549  1.00  0.00    -0.166 F 
HETATM   36  F   UNL     1      29.992  43.083  52.637  1.00  0.00    -0.166 F 
HETATM   37  F   UNL     1      29.851  42.951  54.802  1.00  0.00    -0.166 F 
ENDBRANCH  30  34
ENDBRANCH  24  28
ENDBRANCH   2  22
TORSDOF 7
ENDMDL
MODEL 4
REMARK VINA RESULT:      -9.7      1.508      1.943
REMARK  7 active torsions:
REMARK  status: ('A' for Active; 'I' for Inactive)
REMARK    1  A    between atoms: C_4  and  C_5 
REMARK    2  A    between atoms: C_5  and  C_6 
REMARK    3  A    between atoms: C_8  and  C_9 
REMARK    4  A    between atoms: C_9  and  C_10 
REMARK       I    between atoms: C_10  and  N_11 
REMARK    5  A    between atoms: N_11  and  N_12 
REMARK       I    between atoms: N_12  and  C_13 
REMARK       I    between atoms: C_13  and  N_14 
REMARK    6  A    between atoms: N_14  and  C_15 
REMARK    7  A    between atoms: C_17  and  C_18 
ROOT
HETATM    1  C   UNL     1      24.608  44.395  50.329  1.00  0.00     0.238 C 
HETATM    2  N   UNL     1      24.835  44.658  51.662  1.00  0.00    -0.266 N 
HETATM    3  O   UNL     1      25.452  44.592  49.456  1.00  0.00    -0.272 OA
HETATM    4  H   UNL     1      24.128  44.578  52.394  1.00  0.00     0.190 HD
ENDROOT
BRANCH   1   5
HETATM    5  C   UNL     1      23.234  43.835  50.066  1.00  0.00     0.139 C 
BRANCH   5   6
HETATM    6  C   UNL     1      22.308  44.870  49.430  1.00  0.00     0.185 C 
HETATM    7  N   UNL     1      22.920  46.195  49.484  1.00  0.00    -0.363 N 
HETATM    8  C   UNL     1      22.698  47.087  48.460  1.00  0.00     0.125 C 
HETATM    9  H   UNL     1      22.929  46.592  50.423  1.00  0.00     0.161 HD
HETATM   10  N   UNL     1      22.250  46.763  47.282  1.00  0.00    -0.159 NA
HETATM   11  N   UNL     1      21.962  45.451  47.055  1.00  0.00    -0.244 N 
HETATM   12  C   UNL     1      22.006  44.444  47.991  1.00  0.00     0.261 C 
HETATM   13  H   UNL     1      21.713  45.201  46.104  1.00  0.00     0.192 HD
HETATM   14  O   UNL     1      21.759  43.280  47.678  1.00  0.00    -0.269 OA
BRANCH   8  15
HETATM   15  C   UNL     1      22.999  48.559  48.722  1.00  0.00     0.118 C 
BRANCH  15  16
HETATM   16  C   UNL     1      24.481  48.832  48.807  1.00  0.00    -0.051 A 
HETATM   17  C   UNL     1      25.311  48.056  49.625  1.00  0.00     0.007 A 
HETATM   18  C   UNL     1      26.681  48.318  49.691  1.00  0.00     0.001 A 
HETATM   19  C   UNL     1      27.232  49.356  48.943  1.00  0.00     0.000 A 
HETATM   20  C   UNL     1      26.415  50.135  48.128  1.00  0.00     0.001 A 
HETATM   21  C   UNL     1      25.046  49.876  48.060  1.00  0.00     0.007 A 
ENDBRANCH  15  16
ENDBRANCH   8  15
ENDBRANCH   5   6
ENDBRANCH   1   5
BRANCH   2  22
HETATM   22  N   UNL     1      26.081  45.168  52.053  1.00  0.00    -0.249 N 
HETATM   23  C   UNL     1      26.767  44.454  53.025  1.00  0.00     0.339 C 
HETATM   24  N   UNL     1      27.936  45.084  53.387  1.00  0.00    -0.308 N 
HETATM   25  O   UNL     1      26.344  43.378  53.439  1.00  0.00    -0.245 OA
HETATM   26  H   UNL     1      28.194  45.881  52.821  1.00  0.00     0.170 HD
HETATM   27  H   UNL     1      26.150  46.182  52.030  1.00  0.00     0.192 HD
BRANCH  24  28
HETATM   28  C   UNL     1      28.875  44.665  54.349  1.00  0.00     0.037 A 
HETATM   29  C   UNL     1      29.062  45.295  55.582  1.00  0.00     0.045 A 
HETATM   30  C   UNL     1      30.014  44.818  56.502  1.00  0.00     0.050 A 
HETATM   31  C   UNL     1      30.794  43.705  56.159  1.00  0.00     0.016 A 
HETATM   32  C   UNL     1      30.619  43.075  54.929  1.00  0.00     0.003 A 
HETATM   33  C   UNL     1      29.666  43.554  54.030  1.00  0.00     0.029 A 
BRANCH  30  34
HETATM   34  C   UNL     1      30.224  45.513  57.824  1.00  0.00     0.417 C 
HETATM   35  F   UNL     1      30.914  44.769  58.732  1.00  0.00    -0.166 F 
HETATM   36  F   UNL     1      30.918  46.680  57.699  1.00  0.00    -0.166 F 
HETATM   37  F   UNL     1      29.048  45.845  58.425  1.00  0.00    -0.166 F 
ENDBRANCH  30  34
ENDBRANCH  24  28
ENDBRANCH   2  22
TORSDOF 7
ENDMDL
MODEL 5
REMARK VINA RESULT:      -9.6      5.616     10.178
REMARK  7 active torsions:
REMARK  status: ('A' for Active; 'I' for Inactive)
REMARK    1  A    between atoms: C_4  and  C_5 
REMARK    2  A    between atoms: C_5  and  C_6 
REMARK    3  A    between atoms: C_8  and  C_9 
REMARK    4  A    between atoms: C_9  and  C_10 
REMARK       I    between atoms: C_10  and  N_11 
REMARK    5  A    between atoms: N_11  and  N_12 
REMARK       I    between atoms: N_12  and  C_13 
REMARK       I    between atoms: C_13  and  N_14 
REMARK    6  A    between atoms: N_14  and  C_15 
REMARK    7  A    between atoms: C_17  and  C_18 
ROOT
HETATM    1  C   UNL     1      24.895  47.167  50.179  1.00  0.00     0.238 C 
HETATM    2  N   UNL     1      23.885  46.980  49.262  1.00  0.00    -0.266 N 
HETATM    3  O   UNL     1      24.733  47.772  51.237  1.00  0.00    -0.272 OA
HETATM    4  H   UNL     1      24.012  46.552  48.343  1.00  0.00     0.190 HD
ENDROOT
BRANCH   1   5
HETATM    5  C   UNL     1      26.200  46.545  49.751  1.00  0.00     0.139 C 
BRANCH   5   6
HETATM    6  C   UNL     1      26.570  45.341  50.614  1.00  0.00     0.185 C 
HETATM    7  N   UNL     1      26.602  45.722  52.024  1.00  0.00    -0.363 N 
HETATM    8  C   UNL     1      26.217  44.813  52.982  1.00  0.00     0.125 C 
HETATM    9  H   UNL     1      27.408  46.302  52.261  1.00  0.00     0.161 HD
HETATM   10  N   UNL     1      25.520  43.740  52.744  1.00  0.00    -0.159 NA
HETATM   11  N   UNL     1      25.165  43.491  51.452  1.00  0.00    -0.244 N 
HETATM   12  C   UNL     1      25.561  44.219  50.355  1.00  0.00     0.261 C 
HETATM   13  H   UNL     1      24.537  42.710  51.298  1.00  0.00     0.192 HD
HETATM   14  O   UNL     1      25.158  43.933  49.228  1.00  0.00    -0.269 OA
BRANCH   8  15
HETATM   15  C   UNL     1      26.634  45.079  54.424  1.00  0.00     0.118 C 
BRANCH  15  16
HETATM   16  C   UNL     1      28.028  44.579  54.717  1.00  0.00    -0.051 A 
HETATM   17  C   UNL     1      28.873  45.271  55.593  1.00  0.00     0.007 A 
HETATM   18  C   UNL     1      30.158  44.794  55.857  1.00  0.00     0.001 A 
HETATM   19  C   UNL     1      30.611  43.625  55.247  1.00  0.00     0.000 A 
HETATM   20  C   UNL     1      29.779  42.932  54.372  1.00  0.00     0.001 A 
HETATM   21  C   UNL     1      28.494  43.405  54.107  1.00  0.00     0.007 A 
ENDBRANCH  15  16
ENDBRANCH   8  15
ENDBRANCH   5   6
ENDBRANCH   1   5
BRANCH   2  22
HETATM   22  N   UNL     1      22.611  47.494  49.538  1.00  0.00    -0.249 N 
HETATM   23  C   UNL     1      22.146  48.491  48.691  1.00  0.00     0.339 C 
HETATM   24  N   UNL     1      20.923  48.974  49.100  1.00  0.00    -0.308 N 
HETATM   25  O   UNL     1      22.783  48.825  47.697  1.00  0.00    -0.245 OA
HETATM   26  H   UNL     1      20.484  48.464  49.853  1.00  0.00     0.170 HD
HETATM   27  H   UNL     1      22.366  47.516  50.525  1.00  0.00     0.192 HD
BRANCH  24  28
HETATM   28  C   UNL     1      20.159  49.994  48.501  1.00  0.00     0.037 A 
HETATM   29  C   UNL     1      19.470  49.845  47.294  1.00  0.00     0.045 A 
HETATM   30  C   UNL     1      18.718  50.905  46.755  1.00  0.00     0.050 A 
HETATM   31  C   UNL     1      18.679  52.129  47.437  1.00  0.00     0.016 A 
HETATM   32  C   UNL     1      19.368  52.288  48.638  1.00  0.00     0.003 A 
HETATM   33  C   UNL     1      20.104  51.226  49.164  1.00  0.00     0.029 A 
BRANCH  30  34
HETATM   34  C   UNL     1      17.991  50.745  45.443  1.00  0.00     0.417 C 
HETATM   35  F   UNL     1      17.531  49.483  45.220  1.00  0.00    -0.166 F 
HETATM   36  F   UNL     1      16.901  51.558  45.344  1.00  0.00    -0.166 F 
HETATM   37  F   UNL     1      18.780  51.052  44.376  1.00  0.00    -0.166 F 
ENDBRANCH  30  34
ENDBRANCH  24  28
ENDBRANCH   2  22
TORSDOF 7
ENDMDL
MODEL 6
REMARK VINA RESULT:      -9.6      4.193      5.904
REMARK  7 active torsions:
REMARK  status: ('A' for Active; 'I' for Inactive)
REMARK    1  A    between atoms: C_4  and  C_5 
REMARK    2  A    between atoms: C_5  and  C_6 
REMARK    3  A    between atoms: C_8  and  C_9 
REMARK    4  A    between atoms: C_9  and  C_10 
REMARK       I    between atoms: C_10  and  N_11 
REMARK    5  A    between atoms: N_11  and  N_12 
REMARK       I    between atoms: N_12  and  C_13 
REMARK       I    between atoms: C_13  and  N_14 
REMARK    6  A    between atoms: N_14  and  C_15 
REMARK    7  A    between atoms: C_17  and  C_18 
ROOT
HETATM    1  C   UNL     1      23.012  47.506  48.929  1.00  0.00     0.238 C 
HETATM    2  N   UNL     1      24.042  47.633  49.834  1.00  0.00    -0.266 N 
HETATM    3  O   UNL     1      22.315  46.496  48.848  1.00  0.00    -0.272 OA
HETATM    4  H   UNL     1      24.685  48.425  49.869  1.00  0.00     0.190 HD
ENDROOT
BRANCH   1   5
HETATM    5  C   UNL     1      22.831  48.730  48.068  1.00  0.00     0.139 C 
BRANCH   5   6
HETATM    6  C   UNL     1      21.588  49.525  48.459  1.00  0.00     0.185 C 
HETATM    7  N   UNL     1      20.492  48.618  48.789  1.00  0.00    -0.363 N 
HETATM    8  C   UNL     1      19.593  48.967  49.770  1.00  0.00     0.125 C 
HETATM    9  H   UNL     1      20.096  48.158  47.969  1.00  0.00     0.161 HD
HETATM   10  N   UNL     1      19.799  49.889  50.665  1.00  0.00    -0.159 NA
HETATM   11  N   UNL     1      20.979  50.568  50.613  1.00  0.00    -0.244 N 
HETATM   12  C   UNL     1      21.938  50.440  49.636  1.00  0.00     0.261 C 
HETATM   13  H   UNL     1      21.166  51.209  51.377  1.00  0.00     0.192 HD
HETATM   14  O   UNL     1      22.990  51.077  49.695  1.00  0.00    -0.269 OA
BRANCH   8  15
HETATM   15  C   UNL     1      18.264  48.222  49.816  1.00  0.00     0.118 C 
BRANCH  15  16
HETATM   16  C   UNL     1      17.257  48.794  48.848  1.00  0.00    -0.051 A 
HETATM   17  C   UNL     1      16.334  47.968  48.195  1.00  0.00     0.007 A 
HETATM   18  C   UNL     1      15.406  48.511  47.304  1.00  0.00     0.001 A 
HETATM   19  C   UNL     1      15.393  49.883  47.057  1.00  0.00     0.000 A 
HETATM   20  C   UNL     1      16.308  50.713  47.699  1.00  0.00     0.001 A 
HETATM   21  C   UNL     1      17.236  50.173  48.589  1.00  0.00     0.007 A 
ENDBRANCH  15  16
ENDBRANCH   8  15
ENDBRANCH   5   6
ENDBRANCH   1   5
BRANCH   2  22
HETATM   22  N   UNL     1      24.314  46.573  50.710  1.00  0.00    -0.249 N 
HETATM   23  C   UNL     1      25.452  46.692  51.495  1.00  0.00     0.339 C 
HETATM   24  N   UNL     1      25.662  45.566  52.258  1.00  0.00    -0.308 N 
HETATM   25  O   UNL     1      26.122  47.721  51.488  1.00  0.00    -0.245 OA
HETATM   26  H   UNL     1      24.915  44.886  52.245  1.00  0.00     0.170 HD
HETATM   27  H   UNL     1      24.029  45.658  50.371  1.00  0.00     0.192 HD
BRANCH  24  28
HETATM   28  C   UNL     1      26.720  45.321  53.155  1.00  0.00     0.037 A 
HETATM   29  C   UNL     1      27.686  44.329  52.970  1.00  0.00     0.045 A 
HETATM   30  C   UNL     1      28.722  44.145  53.904  1.00  0.00     0.050 A 
HETATM   31  C   UNL     1      28.767  44.961  55.042  1.00  0.00     0.016 A 
HETATM   32  C   UNL     1      27.804  45.949  55.238  1.00  0.00     0.003 A 
HETATM   33  C   UNL     1      26.787  46.126  54.299  1.00  0.00     0.029 A 
BRANCH  30  34
HETATM   34  C   UNL     1      29.752  43.060  53.708  1.00  0.00     0.417 C 
HETATM   35  F   UNL     1      29.242  41.799  53.777  1.00  0.00    -0.166 F 
HETATM   36  F   UNL     1      30.376  43.140  52.498  1.00  0.00    -0.166 F 
HETATM   37  F   UNL     1      30.744  43.116  54.639  1.00  0.00    -0.166 F 
ENDBRANCH  30  34
ENDBRANCH  24  28
ENDBRANCH   2  22
TORSDOF 7
ENDMDL
MODEL 7
REMARK VINA RESULT:      -9.6      4.379      9.024
REMARK  7 active torsions:
REMARK  status: ('A' for Active; 'I' for Inactive)
REMARK    1  A    between atoms: C_4  and  C_5 
REMARK    2  A    between atoms: C_5  and  C_6 
REMARK    3  A    between atoms: C_8  and  C_9 
REMARK    4  A    between atoms: C_9  and  C_10 
REMARK       I    between atoms: C_10  and  N_11 
REMARK    5  A    between atoms: N_11  and  N_12 
REMARK       I    between atoms: N_12  and  C_13 
REMARK       I    between atoms: C_13  and  N_14 
REMARK    6  A    between atoms: N_14  and  C_15 
REMARK    7  A    between atoms: C_17  and  C_18 
ROOT
HETATM    1  C   UNL     1      23.917  43.073  50.305  1.00  0.00     0.238 C 
HETATM    2  N   UNL     1      22.971  43.330  49.338  1.00  0.00    -0.266 N 
HETATM    3  O   UNL     1      23.926  43.637  51.398  1.00  0.00    -0.272 OA
HETATM    4  H   UNL     1      22.987  42.936  48.396  1.00  0.00     0.190 HD
ENDROOT
BRANCH   1   5
HETATM    5  C   UNL     1      24.919  42.028  49.885  1.00  0.00     0.139 C 
BRANCH   5   6
HETATM    6  C   UNL     1      26.326  42.354  50.379  1.00  0.00     0.185 C 
HETATM    7  N   UNL     1      26.503  41.875  51.748  1.00  0.00    -0.363 N 
HETATM    8  C   UNL     1      27.734  41.410  52.150  1.00  0.00     0.125 C 
HETATM    9  H   UNL     1      25.994  42.434  52.434  1.00  0.00     0.161 HD
HETATM   10  N   UNL     1      28.689  41.053  51.341  1.00  0.00    -0.159 NA
HETATM   11  N   UNL     1      28.459  41.169  50.004  1.00  0.00    -0.244 N 
HETATM   12  C   UNL     1      27.343  41.724  49.424  1.00  0.00     0.261 C 
HETATM   13  H   UNL     1      29.172  40.791  49.388  1.00  0.00     0.192 HD
HETATM   14  O   UNL     1      27.214  41.751  48.200  1.00  0.00    -0.269 OA
BRANCH   8  15
HETATM   15  C   UNL     1      27.999  41.302  53.648  1.00  0.00     0.118 C 
BRANCH  15  16
HETATM   16  C   UNL     1      28.452  42.614  54.242  1.00  0.00    -0.051 A 
HETATM   17  C   UNL     1      27.565  43.689  54.376  1.00  0.00     0.007 A 
HETATM   18  C   UNL     1      27.998  44.895  54.931  1.00  0.00     0.001 A 
HETATM   19  C   UNL     1      29.318  45.038  55.355  1.00  0.00     0.000 A 
HETATM   20  C   UNL     1      30.208  43.975  55.224  1.00  0.00     0.001 A 
HETATM   21  C   UNL     1      29.779  42.769  54.670  1.00  0.00     0.007 A 
ENDBRANCH  15  16
ENDBRANCH   8  15
ENDBRANCH   5   6
ENDBRANCH   1   5
BRANCH   2  22
HETATM   22  N   UNL     1      21.967  44.272  49.601  1.00  0.00    -0.249 N 
HETATM   23  C   UNL     1      21.885  45.351  48.731  1.00  0.00     0.339 C 
HETATM   24  N   UNL     1      20.918  46.248  49.127  1.00  0.00    -0.308 N 
HETATM   25  O   UNL     1      22.591  45.414  47.730  1.00  0.00    -0.245 OA
HETATM   26  H   UNL     1      20.330  45.946  49.891  1.00  0.00     0.170 HD
HETATM   27  H   UNL     1      21.754  44.402  50.587  1.00  0.00     0.192 HD
BRANCH  24  28
HETATM   28  C   UNL     1      20.565  47.461  48.504  1.00  0.00     0.037 A 
HETATM   29  C   UNL     1      20.951  48.720  48.973  1.00  0.00     0.045 A 
HETATM   30  C   UNL     1      20.569  49.892  48.296  1.00  0.00     0.050 A 
HETATM   31  C   UNL     1      19.777  49.787  47.144  1.00  0.00     0.016 A 
HETATM   32  C   UNL     1      19.383  48.536  46.673  1.00  0.00     0.003 A 
HETATM   33  C   UNL     1      19.775  47.381  47.351  1.00  0.00     0.029 A 
BRANCH  30  34
HETATM   34  C   UNL     1      20.972  51.249  48.817  1.00  0.00     0.417 C 
HETATM   35  F   UNL     1      20.174  52.264  48.384  1.00  0.00    -0.166 F 
HETATM   36  F   UNL     1      20.948  51.317  50.179  1.00  0.00    -0.166 F 
HETATM   37  F   UNL     1      22.241  51.586  48.453  1.00  0.00    -0.166 F 
ENDBRANCH  30  34
ENDBRANCH  24  28
ENDBRANCH   2  22
TORSDOF 7
ENDMDL
MODEL 8
REMARK VINA RESULT:      -9.5      3.409      4.605
REMARK  7 active torsions:
REMARK  status: ('A' for Active; 'I' for Inactive)
REMARK    1  A    between atoms: C_4  and  C_5 
REMARK    2  A    between atoms: C_5  and  C_6 
REMARK    3  A    between atoms: C_8  and  C_9 
REMARK    4  A    between atoms: C_9  and  C_10 
REMARK       I    between atoms: C_10  and  N_11 
REMARK    5  A    between atoms: N_11  and  N_12 
REMARK       I    between atoms: N_12  and  C_13 
REMARK       I    between atoms: C_13  and  N_14 
REMARK    6  A    between atoms: N_14  and  C_15 
REMARK    7  A    between atoms: C_17  and  C_18 
ROOT
HETATM    1  C   UNL     1      21.911  45.967  48.082  1.00  0.00     0.238 C 
HETATM    2  N   UNL     1      22.610  45.222  49.006  1.00  0.00    -0.266 N 
HETATM    3  O   UNL     1      22.340  47.020  47.611  1.00  0.00    -0.272 OA
HETATM    4  H   UNL     1      22.244  44.389  49.470  1.00  0.00     0.190 HD
ENDROOT
BRANCH   1   5
HETATM    5  C   UNL     1      20.587  45.352  47.710  1.00  0.00     0.139 C 
BRANCH   5   6
HETATM    6  C   UNL     1      19.509  45.640  48.752  1.00  0.00     0.185 C 
HETATM    7  N   UNL     1      19.697  46.976  49.314  1.00  0.00    -0.363 N 
HETATM    8  C   UNL     1      18.597  47.719  49.679  1.00  0.00     0.125 C 
HETATM    9  H   UNL     1      20.499  47.035  49.941  1.00  0.00     0.161 HD
HETATM   10  N   UNL     1      17.381  47.482  49.282  1.00  0.00    -0.159 NA
HETATM   11  N   UNL     1      17.181  46.411  48.464  1.00  0.00    -0.244 N 
HETATM   12  C   UNL     1      18.135  45.491  48.095  1.00  0.00     0.261 C 
HETATM   13  H   UNL     1      16.248  46.302  48.081  1.00  0.00     0.192 HD
HETATM   14  O   UNL     1      17.862  44.573  47.321  1.00  0.00    -0.269 OA
BRANCH   8  15
HETATM   15  C   UNL     1      18.818  48.903  50.613  1.00  0.00     0.118 C 
BRANCH  15  16
HETATM   16  C   UNL     1      18.910  50.210  49.863  1.00  0.00    -0.051 A 
HETATM   17  C   UNL     1      17.845  51.120  49.867  1.00  0.00     0.007 A 
HETATM   18  C   UNL     1      17.945  52.327  49.171  1.00  0.00     0.001 A 
HETATM   19  C   UNL     1      19.108  52.634  48.466  1.00  0.00     0.000 A 
HETATM   20  C   UNL     1      20.171  51.735  48.454  1.00  0.00     0.001 A 
HETATM   21  C   UNL     1      20.073  50.529  49.147  1.00  0.00     0.007 A 
ENDBRANCH  15  16
ENDBRANCH   8  15
ENDBRANCH   5   6
ENDBRANCH   1   5
BRANCH   2  22
HETATM   22  N   UNL     1      23.868  45.670  49.432  1.00  0.00    -0.249 N 
HETATM   23  C   UNL     1      24.310  45.201  50.661  1.00  0.00     0.339 C 
HETATM   24  N   UNL     1      25.516  45.764  51.013  1.00  0.00    -0.308 N 
HETATM   25  O   UNL     1      23.672  44.359  51.285  1.00  0.00    -0.245 OA
HETATM   26  H   UNL     1      25.965  46.316  50.297  1.00  0.00     0.170 HD
HETATM   27  H   UNL     1      24.104  46.614  49.138  1.00  0.00     0.192 HD
BRANCH  24  28
HETATM   28  C   UNL     1      26.256  45.540  52.191  1.00  0.00     0.037 A 
HETATM   29  C   UNL     1      26.499  46.521  53.157  1.00  0.00     0.045 A 
HETATM   30  C   UNL     1      27.241  46.227  54.316  1.00  0.00     0.050 A 
HETATM   31  C   UNL     1      27.754  44.933  54.487  1.00  0.00     0.016 A 
HETATM   32  C   UNL     1      27.522  43.952  53.525  1.00  0.00     0.003 A 
HETATM   33  C   UNL     1      26.778  44.255  52.385  1.00  0.00     0.029 A 
BRANCH  30  34
HETATM   34  C   UNL     1      27.516  47.293  55.346  1.00  0.00     0.417 C 
HETATM   35  F   UNL     1      28.188  48.371  54.855  1.00  0.00    -0.166 F 
HETATM   36  F   UNL     1      26.376  47.792  55.903  1.00  0.00    -0.166 F 
HETATM   37  F   UNL     1      28.262  46.827  56.386  1.00  0.00    -0.166 F 
ENDBRANCH  30  34
ENDBRANCH  24  28
ENDBRANCH   2  22
TORSDOF 7
ENDMDL
MODEL 9
REMARK VINA RESULT:      -9.4      2.039      3.042
REMARK  7 active torsions:
REMARK  status: ('A' for Active; 'I' for Inactive)
REMARK    1  A    between atoms: C_4  and  C_5 
REMARK    2  A    between atoms: C_5  and  C_6 
REMARK    3  A    between atoms: C_8  and  C_9 
REMARK    4  A    between atoms: C_9  and  C_10 
REMARK       I    between atoms: C_10  and  N_11 
REMARK    5  A    between atoms: N_11  and  N_12 
REMARK       I    between atoms: N_12  and  C_13 
REMARK       I    between atoms: C_13  and  N_14 
REMARK    6  A    between atoms: N_14  and  C_15 
REMARK    7  A    between atoms: C_17  and  C_18 
ROOT
HETATM    1  C   UNL     1      23.165  43.663  49.930  1.00  0.00     0.238 C 
HETATM    2  N   UNL     1      24.530  43.622  50.108  1.00  0.00    -0.266 N 
HETATM    3  O   UNL     1      22.370  43.238  50.766  1.00  0.00    -0.272 OA
HETATM    4  H   UNL     1      25.213  43.894  49.399  1.00  0.00     0.190 HD
ENDROOT
BRANCH   1   5
HETATM    5  C   UNL     1      22.761  44.288  48.619  1.00  0.00     0.139 C 
BRANCH   5   6
HETATM    6  C   UNL     1      21.678  45.348  48.801  1.00  0.00     0.185 C 
HETATM    7  N   UNL     1      22.279  46.679  48.854  1.00  0.00    -0.363 N 
HETATM    8  C   UNL     1      21.598  47.752  48.326  1.00  0.00     0.125 C 
HETATM    9  H   UNL     1      22.779  46.856  49.725  1.00  0.00     0.161 HD
HETATM   10  N   UNL     1      20.602  47.658  47.494  1.00  0.00    -0.159 NA
HETATM   11  N   UNL     1      20.193  46.409  47.138  1.00  0.00    -0.244 N 
HETATM   12  C   UNL     1      20.671  45.227  47.654  1.00  0.00     0.261 C 
HETATM   13  H   UNL     1      19.486  46.354  46.412  1.00  0.00     0.192 HD
HETATM   14  O   UNL     1      20.259  44.144  47.242  1.00  0.00    -0.269 OA
BRANCH   8  15
HETATM   15  C   UNL     1      22.042  49.150  48.742  1.00  0.00     0.118 C 
BRANCH  15  16
HETATM   16  C   UNL     1      20.871  50.060  49.023  1.00  0.00    -0.051 A 
HETATM   17  C   UNL     1      20.718  51.271  48.337  1.00  0.00     0.007 A 
HETATM   18  C   UNL     1      19.628  52.101  48.605  1.00  0.00     0.001 A 
HETATM   19  C   UNL     1      18.683  51.730  49.561  1.00  0.00     0.000 A 
HETATM   20  C   UNL     1      18.828  50.529  50.251  1.00  0.00     0.001 A 
HETATM   21  C   UNL     1      19.916  49.698  49.985  1.00  0.00     0.007 A 
ENDBRANCH  15  16
ENDBRANCH   8  15
ENDBRANCH   5   6
ENDBRANCH   1   5
BRANCH   2  22
HETATM   22  N   UNL     1      25.046  43.078  51.292  1.00  0.00    -0.249 N 
HETATM   23  C   UNL     1      26.189  43.678  51.803  1.00  0.00     0.339 C 
HETATM   24  N   UNL     1      26.651  43.018  52.920  1.00  0.00    -0.308 N 
HETATM   25  O   UNL     1      26.655  44.693  51.294  1.00  0.00    -0.245 OA
HETATM   26  H   UNL     1      26.043  42.297  53.282  1.00  0.00     0.170 HD
HETATM   27  H   UNL     1      24.917  42.075  51.391  1.00  0.00     0.192 HD
BRANCH  24  28
HETATM   28  C   UNL     1      27.788  43.328  53.691  1.00  0.00     0.037 A 
HETATM   29  C   UNL     1      27.916  44.486  54.462  1.00  0.00     0.045 A 
HETATM   30  C   UNL     1      29.079  44.729  55.217  1.00  0.00     0.050 A 
HETATM   31  C   UNL     1      30.126  43.797  55.174  1.00  0.00     0.016 A 
HETATM   32  C   UNL     1      30.009  42.643  54.402  1.00  0.00     0.003 A 
HETATM   33  C   UNL     1      28.847  42.411  53.666  1.00  0.00     0.029 A 
BRANCH  30  34
HETATM   34  C   UNL     1      29.219  45.989  56.032  1.00  0.00     0.417 C 
HETATM   35  F   UNL     1      30.476  46.195  56.514  1.00  0.00    -0.166 F 
HETATM   36  F   UNL     1      28.908  47.111  55.323  1.00  0.00    -0.166 F 
HETATM   37  F   UNL     1      28.395  45.997  57.117  1.00  0.00    -0.166 F 
ENDBRANCH  30  34
ENDBRANCH  24  28
ENDBRANCH   2  22
TORSDOF 7
ENDMDL
MODEL 10
REMARK VINA RESULT:      -9.2      5.012      9.771
REMARK  7 active torsions:
REMARK  status: ('A' for Active; 'I' for Inactive)
REMARK    1  A    between atoms: C_4  and  C_5 
REMARK    2  A    between atoms: C_5  and  C_6 
REMARK    3  A    between atoms: C_8  and  C_9 
REMARK    4  A    between atoms: C_9  and  C_10 
REMARK       I    between atoms: C_10  and  N_11 
REMARK    5  A    between atoms: N_11  and  N_12 
REMARK       I    between atoms: N_12  and  C_13 
REMARK       I    between atoms: C_13  and  N_14 
REMARK    6  A    between atoms: N_14  and  C_15 
REMARK    7  A    between atoms: C_17  and  C_18 
ROOT
HETATM    1  C   UNL     1      25.025  45.662  50.308  1.00  0.00     0.238 C 
HETATM    2  N   UNL     1      24.819  46.875  49.689  1.00  0.00    -0.266 N 
HETATM    3  O   UNL     1      24.296  45.237  51.202  1.00  0.00    -0.272 OA
HETATM    4  H   UNL     1      25.452  47.287  49.002  1.00  0.00     0.190 HD
ENDROOT
BRANCH   1   5
HETATM    5  C   UNL     1      26.219  44.920  49.765  1.00  0.00     0.139 C 
BRANCH   5   6
HETATM    6  C   UNL     1      27.052  44.286  50.877  1.00  0.00     0.185 C 
HETATM    7  N   UNL     1      27.085  45.164  52.045  1.00  0.00    -0.363 N 
HETATM    8  C   UNL     1      27.120  44.614  53.306  1.00  0.00     0.125 C 
HETATM    9  H   UNL     1      27.666  45.990  51.905  1.00  0.00     0.161 HD
HETATM   10  N   UNL     1      26.806  43.382  53.583  1.00  0.00    -0.159 NA
HETATM   11  N   UNL     1      26.438  42.576  52.548  1.00  0.00    -0.244 N 
HETATM   12  C   UNL     1      26.461  42.915  51.216  1.00  0.00     0.261 C 
HETATM   13  H   UNL     1      26.098  41.652  52.793  1.00  0.00     0.192 HD
HETATM   14  O   UNL     1      26.075  42.125  50.355  1.00  0.00    -0.269 OA
BRANCH   8  15
HETATM   15  C   UNL     1      27.554  45.509  54.460  1.00  0.00     0.118 C 
BRANCH  15  16
HETATM   16  C   UNL     1      28.829  45.027  55.108  1.00  0.00    -0.051 A 
HETATM   17  C   UNL     1      29.391  45.711  56.193  1.00  0.00     0.007 A 
HETATM   18  C   UNL     1      30.569  45.251  56.784  1.00  0.00     0.001 A 
HETATM   19  C   UNL     1      31.197  44.106  56.296  1.00  0.00     0.000 A 
HETATM   20  C   UNL     1      30.648  43.420  55.215  1.00  0.00     0.001 A 
HETATM   21  C   UNL     1      29.471  43.878  54.623  1.00  0.00     0.007 A 
ENDBRANCH  15  16
ENDBRANCH   8  15
ENDBRANCH   5   6
ENDBRANCH   1   5
BRANCH   2  22
HETATM   22  N   UNL     1      23.731  47.666  50.085  1.00  0.00    -0.249 N 
HETATM   23  C   UNL     1      22.709  47.823  49.160  1.00  0.00     0.339 C 
HETATM   24  N   UNL     1      21.733  48.677  49.623  1.00  0.00    -0.308 N 
HETATM   25  O   UNL     1      22.719  47.214  48.094  1.00  0.00    -0.245 OA
HETATM   26  H   UNL     1      21.822  48.956  50.589  1.00  0.00     0.170 HD
HETATM   27  H   UNL     1      23.968  48.433  50.709  1.00  0.00     0.192 HD
BRANCH  24  28
HETATM   28  C   UNL     1      20.561  49.084  48.956  1.00  0.00     0.037 A 
HETATM   29  C   UNL     1      19.343  48.404  49.035  1.00  0.00     0.045 A 
HETATM   30  C   UNL     1      18.207  48.872  48.349  1.00  0.00     0.050 A 
HETATM   31  C   UNL     1      18.314  50.027  47.562  1.00  0.00     0.016 A 
HETATM   32  C   UNL     1      19.527  50.707  47.472  1.00  0.00     0.003 A 
HETATM   33  C   UNL     1      20.643  50.236  48.165  1.00  0.00     0.029 A 
BRANCH  30  34
HETATM   34  C   UNL     1      16.899  48.124  48.424  1.00  0.00     0.417 C 
HETATM   35  F   UNL     1      15.821  48.924  48.650  1.00  0.00    -0.166 F 
HETATM   36  F   UNL     1      16.618  47.442  47.277  1.00  0.00    -0.166 F 
HETATM   37  F   UNL     1      16.893  47.193  49.418  1.00  0.00    -0.166 F 
ENDBRANCH  30  34
ENDBRANCH  24  28
ENDBRANCH   2  22
TORSDOF 7
ENDMDL
