MODEL 1
REMARK VINA RESULT:      -8.0      0.000      0.000
REMARK  5 active torsions:
REMARK  status: ('A' for Active; 'I' for Inactive)
REMARK    1  A    between atoms: O_2  and  C_3 
REMARK    2  A    between atoms: C_4  and  C_5 
REMARK    3  A    between atoms: C_6  and  C_7 
REMARK    4  A    between atoms: C_6  and  C_16 
REMARK       I    between atoms: C_7  and  N_8 
REMARK    5  A    between atoms: N_8  and  C_9 
ROOT
HETATM    1  C   UNL     1      21.870  50.337  49.351  1.00  0.00     0.032 C 
HETATM    2  C   UNL     1      22.336  49.187  48.817  1.00  0.00     0.043 C 
ENDROOT
BRANCH   2   3
HETATM    3  C   UNL     1      21.562  48.150  48.037  1.00  0.00     0.257 C 
HETATM    4  N   UNL     1      20.528  47.545  48.719  1.00  0.00    -0.323 N 
HETATM    5  H   UNL     1      20.390  47.814  49.681  1.00  0.00     0.169 HD
HETATM    6  O   UNL     1      21.872  47.923  46.871  1.00  0.00    -0.267 OA
BRANCH   4   7
HETATM    7  C   UNL     1      19.653  46.548  48.237  1.00  0.00     0.037 A 
HETATM    8  C   UNL     1      20.074  45.339  47.696  1.00  0.00     0.049 A 
HETATM    9  C   UNL     1      19.113  44.446  47.247  1.00  0.00     0.118 A 
HETATM   10  N   UNL     1      17.784  44.670  47.316  1.00  0.00    -0.273 NA
HETATM   11  C   UNL     1      17.400  45.847  47.848  1.00  0.00     0.118 A 
HETATM   12  C   UNL     1      18.284  46.811  48.308  1.00  0.00     0.049 A 
ENDBRANCH   4   7
ENDBRANCH   2   3
BRANCH   2  13
HETATM   13  C   UNL     1      23.755  48.896  49.121  1.00  0.00    -0.021 A 
HETATM   14  C   UNL     1      24.775  49.675  48.561  1.00  0.00     0.012 A 
HETATM   15  C   UNL     1      26.114  49.370  48.814  1.00  0.00     0.001 A 
HETATM   16  C   UNL     1      26.440  48.285  49.627  1.00  0.00     0.000 A 
HETATM   17  C   UNL     1      25.429  47.507  50.192  1.00  0.00     0.001 A 
HETATM   18  C   UNL     1      24.090  47.809  49.940  1.00  0.00     0.012 A 
ENDBRANCH   2  13
BRANCH   1  19
HETATM   19  C   UNL     1      20.518  50.898  49.293  1.00  0.00    -0.002 A 
HETATM   20  C   UNL     1      19.490  50.435  50.130  1.00  0.00     0.078 A 
HETATM   21  C   UNL     1      18.225  51.023  50.097  1.00  0.00     0.037 A 
HETATM   22  C   UNL     1      17.962  52.054  49.197  1.00  0.00     0.003 A 
HETATM   23  C   UNL     1      18.969  52.510  48.348  1.00  0.00     0.001 A 
HETATM   24  C   UNL     1      20.243  51.938  48.400  1.00  0.00     0.014 A 
BRANCH  20  25
HETATM   25  O   UNL     1      19.708  49.491  51.100  1.00  0.00    -0.355 OA
HETATM   26  C   UNL     1      18.526  48.738  51.374  1.00  0.00     0.210 C 
ENDBRANCH  20  25
ENDBRANCH   1  19
TORSDOF 5
ENDMDL
MODEL 2
REMARK VINA RESULT:      -7.9      7.411     10.196
REMARK  5 active torsions:
REMARK  status: ('A' for Active; 'I' for Inactive)
REMARK    1  A    between atoms: O_2  and  C_3 
REMARK    2  A    between atoms: C_4  and  C_5 
REMARK    3  A    between atoms: C_6  and  C_7 
REMARK    4  A    between atoms: C_6  and  C_16 
REMARK       I    between atoms: C_7  and  N_8 
REMARK    5  A    between atoms: N_8  and  C_9 
ROOT
HETATM    1  C   UNL     1      27.238  44.205  52.354  1.00  0.00     0.032 C 
HETATM    2  C   UNL     1      28.027  43.252  52.894  1.00  0.00     0.043 C 
ENDROOT
BRANCH   2   3
HETATM    3  C   UNL     1      28.016  41.769  52.604  1.00  0.00     0.257 C 
HETATM    4  N   UNL     1      28.402  41.411  51.331  1.00  0.00    -0.323 N 
HETATM    5  H   UNL     1      28.629  42.156  50.690  1.00  0.00     0.169 HD
HETATM    6  O   UNL     1      27.694  40.986  53.495  1.00  0.00    -0.267 OA
BRANCH   4   7
HETATM    7  C   UNL     1      28.479  40.107  50.795  1.00  0.00     0.037 A 
HETATM    8  C   UNL     1      29.489  39.200  51.097  1.00  0.00     0.049 A 
HETATM    9  C   UNL     1      29.457  37.952  50.495  1.00  0.00     0.118 A 
HETATM   10  N   UNL     1      28.493  37.551  49.639  1.00  0.00    -0.273 NA
HETATM   11  C   UNL     1      27.523  38.446  49.364  1.00  0.00     0.118 A 
HETATM   12  C   UNL     1      27.478  39.723  49.902  1.00  0.00     0.049 A 
ENDBRANCH   4   7
ENDBRANCH   2   3
BRANCH   2  13
HETATM   13  C   UNL     1      28.942  43.735  53.952  1.00  0.00    -0.021 A 
HETATM   14  C   UNL     1      30.097  43.011  54.277  1.00  0.00     0.012 A 
HETATM   15  C   UNL     1      30.934  43.445  55.307  1.00  0.00     0.001 A 
HETATM   16  C   UNL     1      30.622  44.604  56.016  1.00  0.00     0.000 A 
HETATM   17  C   UNL     1      29.476  45.332  55.696  1.00  0.00     0.001 A 
HETATM   18  C   UNL     1      28.636  44.900  54.669  1.00  0.00     0.012 A 
ENDBRANCH   2  13
BRANCH   1  19
HETATM   19  C   UNL     1      26.195  44.069  51.333  1.00  0.00    -0.002 A 
HETATM   20  C   UNL     1      26.322  44.660  50.066  1.00  0.00     0.078 A 
HETATM   21  C   UNL     1      25.341  44.471  49.091  1.00  0.00     0.037 A 
HETATM   22  C   UNL     1      24.204  43.722  49.386  1.00  0.00     0.003 A 
HETATM   23  C   UNL     1      24.058  43.146  50.648  1.00  0.00     0.001 A 
HETATM   24  C   UNL     1      25.052  43.315  51.615  1.00  0.00     0.014 A 
BRANCH  20  25
HETATM   25  O   UNL     1      27.456  45.327  49.681  1.00  0.00    -0.355 OA
HETATM   26  C   UNL     1      27.209  46.723  49.506  1.00  0.00     0.210 C 
ENDBRANCH  20  25
ENDBRANCH   1  19
TORSDOF 5
ENDMDL
MODEL 3
REMARK VINA RESULT:      -7.9      5.110      8.394
REMARK  5 active torsions:
REMARK  status: ('A' for Active; 'I' for Inactive)
REMARK    1  A    between atoms: O_2  and  C_3 
REMARK    2  A    between atoms: C_4  and  C_5 
REMARK    3  A    between atoms: C_6  and  C_7 
REMARK    4  A    between atoms: C_6  and  C_16 
REMARK       I    between atoms: C_7  and  N_8 
REMARK    5  A    between atoms: N_8  and  C_9 
ROOT
HETATM    1  C   UNL     1      25.950  44.203  52.318  1.00  0.00     0.032 C 
HETATM    2  C   UNL     1      26.297  45.473  52.618  1.00  0.00     0.043 C 
ENDROOT
BRANCH   2   3
HETATM    3  C   UNL     1      25.886  46.738  51.900  1.00  0.00     0.257 C 
HETATM    4  N   UNL     1      26.425  46.908  50.643  1.00  0.00    -0.323 N 
HETATM    5  H   UNL     1      27.068  46.202  50.317  1.00  0.00     0.169 HD
HETATM    6  O   UNL     1      25.104  47.511  52.447  1.00  0.00    -0.267 OA
BRANCH   4   7
HETATM    7  C   UNL     1      26.216  47.990  49.761  1.00  0.00     0.037 A 
HETATM    8  C   UNL     1      24.971  48.356  49.261  1.00  0.00     0.049 A 
HETATM    9  C   UNL     1      24.901  49.434  48.392  1.00  0.00     0.118 A 
HETATM   10  N   UNL     1      25.968  50.166  48.008  1.00  0.00    -0.273 NA
HETATM   11  C   UNL     1      27.162  49.794  48.510  1.00  0.00     0.118 A 
HETATM   12  C   UNL     1      27.338  48.722  49.370  1.00  0.00     0.049 A 
ENDBRANCH   4   7
ENDBRANCH   2   3
BRANCH   2  13
HETATM   13  C   UNL     1      27.261  45.603  53.733  1.00  0.00    -0.021 A 
HETATM   14  C   UNL     1      27.326  46.784  54.482  1.00  0.00     0.012 A 
HETATM   15  C   UNL     1      28.267  46.920  55.504  1.00  0.00     0.001 A 
HETATM   16  C   UNL     1      29.148  45.876  55.783  1.00  0.00     0.000 A 
HETATM   17  C   UNL     1      29.087  44.695  55.044  1.00  0.00     0.001 A 
HETATM   18  C   UNL     1      28.149  44.557  54.021  1.00  0.00     0.012 A 
ENDBRANCH   2  13
BRANCH   1  19
HETATM   19  C   UNL     1      25.070  43.715  51.253  1.00  0.00    -0.002 A 
HETATM   20  C   UNL     1      25.374  42.559  50.516  1.00  0.00     0.078 A 
HETATM   21  C   UNL     1      24.493  42.081  49.544  1.00  0.00     0.037 A 
HETATM   22  C   UNL     1      23.318  42.778  49.271  1.00  0.00     0.003 A 
HETATM   23  C   UNL     1      23.014  43.937  49.983  1.00  0.00     0.001 A 
HETATM   24  C   UNL     1      23.884  44.401  50.973  1.00  0.00     0.014 A 
BRANCH  20  25
HETATM   25  O   UNL     1      26.464  41.778  50.800  1.00  0.00    -0.355 OA
HETATM   26  C   UNL     1      26.196  40.397  50.559  1.00  0.00     0.210 C 
ENDBRANCH  20  25
ENDBRANCH   1  19
TORSDOF 5
ENDMDL
MODEL 4
REMARK VINA RESULT:      -7.9      5.225      8.759
REMARK  5 active torsions:
REMARK  status: ('A' for Active; 'I' for Inactive)
REMARK    1  A    between atoms: O_2  and  C_3 
REMARK    2  A    between atoms: C_4  and  C_5 
REMARK    3  A    between atoms: C_6  and  C_7 
REMARK    4  A    between atoms: C_6  and  C_16 
REMARK       I    between atoms: C_7  and  N_8 
REMARK    5  A    between atoms: N_8  and  C_9 
ROOT
HETATM    1  C   UNL     1      26.067  42.942  51.498  1.00  0.00     0.032 C 
HETATM    2  C   UNL     1      26.812  44.067  51.545  1.00  0.00     0.043 C 
ENDROOT
BRANCH   2   3
HETATM    3  C   UNL     1      26.861  45.186  50.532  1.00  0.00     0.257 C 
HETATM    4  N   UNL     1      26.037  46.259  50.794  1.00  0.00    -0.323 N 
HETATM    5  H   UNL     1      25.450  46.202  51.613  1.00  0.00     0.169 HD
HETATM    6  O   UNL     1      27.621  45.094  49.571  1.00  0.00    -0.267 OA
BRANCH   4   7
HETATM    7  C   UNL     1      25.882  47.429  50.020  1.00  0.00     0.037 A 
HETATM    8  C   UNL     1      26.940  48.219  49.584  1.00  0.00     0.049 A 
HETATM    9  C   UNL     1      26.654  49.351  48.837  1.00  0.00     0.118 A 
HETATM   10  N   UNL     1      25.407  49.732  48.490  1.00  0.00    -0.273 NA
HETATM   11  C   UNL     1      24.398  48.949  48.921  1.00  0.00     0.118 A 
HETATM   12  C   UNL     1      24.581  47.808  49.687  1.00  0.00     0.049 A 
ENDBRANCH   4   7
ENDBRANCH   2   3
BRANCH   2  13
HETATM   13  C   UNL     1      27.743  44.142  52.693  1.00  0.00    -0.021 A 
HETATM   14  C   UNL     1      28.893  43.342  52.728  1.00  0.00     0.012 A 
HETATM   15  C   UNL     1      29.745  43.383  53.833  1.00  0.00     0.001 A 
HETATM   16  C   UNL     1      29.454  44.222  54.908  1.00  0.00     0.000 A 
HETATM   17  C   UNL     1      28.313  45.024  54.878  1.00  0.00     0.001 A 
HETATM   18  C   UNL     1      27.458  44.985  53.776  1.00  0.00     0.012 A 
ENDBRANCH   2  13
BRANCH   1  19
HETATM   19  C   UNL     1      25.094  42.522  50.486  1.00  0.00    -0.002 A 
HETATM   20  C   UNL     1      25.419  41.582  49.495  1.00  0.00     0.078 A 
HETATM   21  C   UNL     1      24.460  41.155  48.575  1.00  0.00     0.037 A 
HETATM   22  C   UNL     1      23.176  41.695  48.611  1.00  0.00     0.003 A 
HETATM   23  C   UNL     1      22.846  42.643  49.579  1.00  0.00     0.001 A 
HETATM   24  C   UNL     1      23.800  43.051  50.515  1.00  0.00     0.014 A 
BRANCH  20  25
HETATM   25  O   UNL     1      26.633  40.944  49.464  1.00  0.00    -0.355 OA
HETATM   26  C   UNL     1      26.526  39.594  49.916  1.00  0.00     0.210 C 
ENDBRANCH  20  25
ENDBRANCH   1  19
TORSDOF 5
ENDMDL
MODEL 5
REMARK VINA RESULT:      -7.8      4.888      8.440
REMARK  5 active torsions:
REMARK  status: ('A' for Active; 'I' for Inactive)
REMARK    1  A    between atoms: O_2  and  C_3 
REMARK    2  A    between atoms: C_4  and  C_5 
REMARK    3  A    between atoms: C_6  and  C_7 
REMARK    4  A    between atoms: C_6  and  C_16 
REMARK       I    between atoms: C_7  and  N_8 
REMARK    5  A    between atoms: N_8  and  C_9 
ROOT
HETATM    1  C   UNL     1      26.171  42.932  51.593  1.00  0.00     0.032 C 
HETATM    2  C   UNL     1      26.725  44.162  51.655  1.00  0.00     0.043 C 
ENDROOT
BRANCH   2   3
HETATM    3  C   UNL     1      26.760  45.216  50.573  1.00  0.00     0.257 C 
HETATM    4  N   UNL     1      26.030  46.356  50.832  1.00  0.00    -0.323 N 
HETATM    5  H   UNL     1      25.510  46.385  51.696  1.00  0.00     0.169 HD
HETATM    6  O   UNL     1      27.431  45.017  49.564  1.00  0.00    -0.267 OA
BRANCH   4   7
HETATM    7  C   UNL     1      25.886  47.487  50.000  1.00  0.00     0.037 A 
HETATM    8  C   UNL     1      26.950  48.253  49.538  1.00  0.00     0.049 A 
HETATM    9  C   UNL     1      26.674  49.349  48.734  1.00  0.00     0.118 A 
HETATM   10  N   UNL     1      25.431  49.714  48.356  1.00  0.00    -0.273 NA
HETATM   11  C   UNL     1      24.417  48.954  48.814  1.00  0.00     0.118 A 
HETATM   12  C   UNL     1      24.589  47.851  49.636  1.00  0.00     0.049 A 
ENDBRANCH   4   7
ENDBRANCH   2   3
BRANCH   2  13
HETATM   13  C   UNL     1      27.448  44.450  52.914  1.00  0.00    -0.021 A 
HETATM   14  C   UNL     1      27.003  45.463  53.773  1.00  0.00     0.012 A 
HETATM   15  C   UNL     1      27.713  45.763  54.937  1.00  0.00     0.001 A 
HETATM   16  C   UNL     1      28.872  45.052  55.249  1.00  0.00     0.000 A 
HETATM   17  C   UNL     1      29.319  44.039  54.400  1.00  0.00     0.001 A 
HETATM   18  C   UNL     1      28.612  43.738  53.235  1.00  0.00     0.012 A 
ENDBRANCH   2  13
BRANCH   1  19
HETATM   19  C   UNL     1      25.438  42.306  50.489  1.00  0.00    -0.002 A 
HETATM   20  C   UNL     1      24.137  42.708  50.147  1.00  0.00     0.078 A 
HETATM   21  C   UNL     1      23.479  42.136  49.056  1.00  0.00     0.037 A 
HETATM   22  C   UNL     1      24.100  41.128  48.322  1.00  0.00     0.003 A 
HETATM   23  C   UNL     1      25.384  40.708  48.665  1.00  0.00     0.001 A 
HETATM   24  C   UNL     1      26.053  41.298  49.741  1.00  0.00     0.014 A 
BRANCH  20  25
HETATM   25  O   UNL     1      23.509  43.757  50.767  1.00  0.00    -0.355 OA
HETATM   26  C   UNL     1      22.752  44.536  49.840  1.00  0.00     0.210 C 
ENDBRANCH  20  25
ENDBRANCH   1  19
TORSDOF 5
ENDMDL
MODEL 6
REMARK VINA RESULT:      -7.5      4.003      7.781
REMARK  5 active torsions:
REMARK  status: ('A' for Active; 'I' for Inactive)
REMARK    1  A    between atoms: O_2  and  C_3 
REMARK    2  A    between atoms: C_4  and  C_5 
REMARK    3  A    between atoms: C_6  and  C_7 
REMARK    4  A    between atoms: C_6  and  C_16 
REMARK       I    between atoms: C_7  and  N_8 
REMARK    5  A    between atoms: N_8  and  C_9 
ROOT
HETATM    1  C   UNL     1      17.402  52.227  49.603  1.00  0.00     0.032 C 
HETATM    2  C   UNL     1      16.404  52.306  48.697  1.00  0.00     0.043 C 
ENDROOT
BRANCH   2   3
HETATM    3  C   UNL     1      16.405  51.800  47.273  1.00  0.00     0.257 C 
HETATM    4  N   UNL     1      17.176  52.521  46.388  1.00  0.00    -0.323 N 
HETATM    5  H   UNL     1      17.648  53.338  46.745  1.00  0.00     0.169 HD
HETATM    6  O   UNL     1      15.757  50.794  46.994  1.00  0.00    -0.267 OA
BRANCH   4   7
HETATM    7  C   UNL     1      17.353  52.275  45.009  1.00  0.00     0.037 A 
HETATM    8  C   UNL     1      18.045  51.183  44.497  1.00  0.00     0.049 A 
HETATM    9  C   UNL     1      18.158  51.060  43.121  1.00  0.00     0.118 A 
HETATM   10  N   UNL     1      17.622  51.930  42.238  1.00  0.00    -0.273 NA
HETATM   11  C   UNL     1      16.953  52.978  42.759  1.00  0.00     0.118 A 
HETATM   12  C   UNL     1      16.801  53.197  44.119  1.00  0.00     0.049 A 
ENDBRANCH   4   7
ENDBRANCH   2   3
BRANCH   2  13
HETATM   13  C   UNL     1      15.215  53.058  49.155  1.00  0.00    -0.021 A 
HETATM   14  C   UNL     1      14.474  53.833  48.253  1.00  0.00     0.012 A 
HETATM   15  C   UNL     1      13.379  54.577  48.696  1.00  0.00     0.001 A 
HETATM   16  C   UNL     1      13.019  54.551  50.043  1.00  0.00     0.000 A 
HETATM   17  C   UNL     1      13.749  53.779  50.946  1.00  0.00     0.001 A 
HETATM   18  C   UNL     1      14.845  53.035  50.506  1.00  0.00     0.012 A 
ENDBRANCH   2  13
BRANCH   1  19
HETATM   19  C   UNL     1      18.725  51.609  49.465  1.00  0.00    -0.002 A 
HETATM   20  C   UNL     1      19.083  50.463  50.193  1.00  0.00     0.078 A 
HETATM   21  C   UNL     1      20.327  49.859  50.004  1.00  0.00     0.037 A 
HETATM   22  C   UNL     1      21.243  50.420  49.116  1.00  0.00     0.003 A 
HETATM   23  C   UNL     1      20.906  51.570  48.402  1.00  0.00     0.001 A 
HETATM   24  C   UNL     1      19.650  52.159  48.572  1.00  0.00     0.014 A 
BRANCH  20  25
HETATM   25  O   UNL     1      18.196  49.809  51.008  1.00  0.00    -0.355 OA
HETATM   26  C   UNL     1      18.568  48.444  51.199  1.00  0.00     0.210 C 
ENDBRANCH  20  25
ENDBRANCH   1  19
TORSDOF 5
ENDMDL
MODEL 7
REMARK VINA RESULT:      -7.3      3.438      7.032
REMARK  5 active torsions:
REMARK  status: ('A' for Active; 'I' for Inactive)
REMARK    1  A    between atoms: O_2  and  C_3 
REMARK    2  A    between atoms: C_4  and  C_5 
REMARK    3  A    between atoms: C_6  and  C_7 
REMARK    4  A    between atoms: C_6  and  C_16 
REMARK       I    between atoms: C_7  and  N_8 
REMARK    5  A    between atoms: N_8  and  C_9 
ROOT
HETATM    1  C   UNL     1      17.517  52.171  49.513  1.00  0.00     0.032 C 
HETATM    2  C   UNL     1      16.440  51.990  48.720  1.00  0.00     0.043 C 
ENDROOT
BRANCH   2   3
HETATM    3  C   UNL     1      16.339  51.135  47.477  1.00  0.00     0.257 C 
HETATM    4  N   UNL     1      15.675  49.939  47.633  1.00  0.00    -0.323 N 
HETATM    5  H   UNL     1      15.340  49.713  48.558  1.00  0.00     0.169 HD
HETATM    6  O   UNL     1      16.821  51.549  46.425  1.00  0.00    -0.267 OA
BRANCH   4   7
HETATM    7  C   UNL     1      15.441  48.955  46.648  1.00  0.00     0.037 A 
HETATM    8  C   UNL     1      16.397  48.042  46.218  1.00  0.00     0.049 A 
HETATM    9  C   UNL     1      16.044  47.131  45.234  1.00  0.00     0.118 A 
HETATM   10  N   UNL     1      14.818  47.064  44.672  1.00  0.00    -0.273 NA
HETATM   11  C   UNL     1      13.908  47.957  45.107  1.00  0.00     0.118 A 
HETATM   12  C   UNL     1      14.170  48.916  46.073  1.00  0.00     0.049 A 
ENDBRANCH   4   7
ENDBRANCH   2   3
BRANCH   2  13
HETATM   13  C   UNL     1      15.259  52.802  49.089  1.00  0.00    -0.021 A 
HETATM   14  C   UNL     1      14.658  53.649  48.149  1.00  0.00     0.012 A 
HETATM   15  C   UNL     1      13.572  54.447  48.512  1.00  0.00     0.001 A 
HETATM   16  C   UNL     1      13.081  54.404  49.817  1.00  0.00     0.000 A 
HETATM   17  C   UNL     1      13.672  53.560  50.757  1.00  0.00     0.001 A 
HETATM   18  C   UNL     1      14.758  52.762  50.397  1.00  0.00     0.012 A 
ENDBRANCH   2  13
BRANCH   1  19
HETATM   19  C   UNL     1      18.852  51.575  49.405  1.00  0.00    -0.002 A 
HETATM   20  C   UNL     1      19.230  50.467  50.181  1.00  0.00     0.078 A 
HETATM   21  C   UNL     1      20.486  49.881  50.021  1.00  0.00     0.037 A 
HETATM   22  C   UNL     1      21.394  50.423  49.113  1.00  0.00     0.003 A 
HETATM   23  C   UNL     1      21.037  51.534  48.351  1.00  0.00     0.001 A 
HETATM   24  C   UNL     1      19.770  52.105  48.493  1.00  0.00     0.014 A 
BRANCH  20  25
HETATM   25  O   UNL     1      18.352  49.831  51.020  1.00  0.00    -0.355 OA
HETATM   26  C   UNL     1      18.546  48.416  51.005  1.00  0.00     0.210 C 
ENDBRANCH  20  25
ENDBRANCH   1  19
TORSDOF 5
ENDMDL
MODEL 8
REMARK VINA RESULT:      -7.2      4.597      7.865
REMARK  5 active torsions:
REMARK  status: ('A' for Active; 'I' for Inactive)
REMARK    1  A    between atoms: O_2  and  C_3 
REMARK    2  A    between atoms: C_4  and  C_5 
REMARK    3  A    between atoms: C_6  and  C_7 
REMARK    4  A    between atoms: C_6  and  C_16 
REMARK       I    between atoms: C_7  and  N_8 
REMARK    5  A    between atoms: N_8  and  C_9 
ROOT
HETATM    1  C   UNL     1      18.502  51.337  46.585  1.00  0.00     0.032 C 
HETATM    2  C   UNL     1      17.351  51.856  46.108  1.00  0.00     0.043 C 
ENDROOT
BRANCH   2   3
HETATM    3  C   UNL     1      16.045  52.044  46.845  1.00  0.00     0.257 C 
HETATM    4  N   UNL     1      16.062  52.987  47.849  1.00  0.00    -0.323 N 
HETATM    5  H   UNL     1      16.939  53.450  48.033  1.00  0.00     0.169 HD
HETATM    6  O   UNL     1      15.066  51.383  46.509  1.00  0.00    -0.267 OA
BRANCH   4   7
HETATM    7  C   UNL     1      14.992  53.359  48.692  1.00  0.00     0.037 A 
HETATM    8  C   UNL     1      13.992  54.254  48.331  1.00  0.00     0.049 A 
HETATM    9  C   UNL     1      13.001  54.544  49.256  1.00  0.00     0.118 A 
HETATM   10  N   UNL     1      12.935  53.999  50.489  1.00  0.00    -0.273 NA
HETATM   11  C   UNL     1      13.914  53.131  50.815  1.00  0.00     0.118 A 
HETATM   12  C   UNL     1      14.956  52.791  49.967  1.00  0.00     0.049 A 
ENDBRANCH   4   7
ENDBRANCH   2   3
BRANCH   2  13
HETATM   13  C   UNL     1      17.377  52.194  44.667  1.00  0.00    -0.021 A 
HETATM   14  C   UNL     1      17.927  51.301  43.739  1.00  0.00     0.012 A 
HETATM   15  C   UNL     1      17.991  51.641  42.386  1.00  0.00     0.001 A 
HETATM   16  C   UNL     1      17.506  52.875  41.954  1.00  0.00     0.000 A 
HETATM   17  C   UNL     1      16.953  53.767  42.873  1.00  0.00     0.001 A 
HETATM   18  C   UNL     1      16.889  53.431  44.225  1.00  0.00     0.012 A 
ENDBRANCH   2  13
BRANCH   1  19
HETATM   19  C   UNL     1      18.805  50.851  47.934  1.00  0.00    -0.002 A 
HETATM   20  C   UNL     1      18.356  49.600  48.386  1.00  0.00     0.078 A 
HETATM   21  C   UNL     1      18.704  49.134  49.655  1.00  0.00     0.037 A 
HETATM   22  C   UNL     1      19.470  49.933  50.501  1.00  0.00     0.003 A 
HETATM   23  C   UNL     1      19.906  51.185  50.071  1.00  0.00     0.001 A 
HETATM   24  C   UNL     1      19.579  51.640  48.790  1.00  0.00     0.014 A 
BRANCH  20  25
HETATM   25  O   UNL     1      17.680  48.729  47.571  1.00  0.00    -0.355 OA
HETATM   26  C   UNL     1      16.372  48.451  48.071  1.00  0.00     0.210 C 
ENDBRANCH  20  25
ENDBRANCH   1  19
TORSDOF 5
ENDMDL
MODEL 9
REMARK VINA RESULT:      -7.1      1.692      2.698
REMARK  5 active torsions:
REMARK  status: ('A' for Active; 'I' for Inactive)
REMARK    1  A    between atoms: O_2  and  C_3 
REMARK    2  A    between atoms: C_4  and  C_5 
REMARK    3  A    between atoms: C_6  and  C_7 
REMARK    4  A    between atoms: C_6  and  C_16 
REMARK       I    between atoms: C_7  and  N_8 
REMARK    5  A    between atoms: N_8  and  C_9 
ROOT
HETATM    1  C   UNL     1      20.383  51.181  48.560  1.00  0.00     0.032 C 
HETATM    2  C   UNL     1      20.854  49.916  48.517  1.00  0.00     0.043 C 
ENDROOT
BRANCH   2   3
HETATM    3  C   UNL     1      20.058  48.632  48.533  1.00  0.00     0.257 C 
HETATM    4  N   UNL     1      19.872  48.035  47.305  1.00  0.00    -0.323 N 
HETATM    5  H   UNL     1      20.247  48.511  46.499  1.00  0.00     0.169 HD
HETATM    6  O   UNL     1      19.651  48.192  49.605  1.00  0.00    -0.267 OA
BRANCH   4   7
HETATM    7  C   UNL     1      19.170  46.841  47.031  1.00  0.00     0.037 A 
HETATM    8  C   UNL     1      17.859  46.798  46.570  1.00  0.00     0.049 A 
HETATM    9  C   UNL     1      17.279  45.558  46.349  1.00  0.00     0.118 A 
HETATM   10  N   UNL     1      17.913  44.382  46.540  1.00  0.00    -0.273 NA
HETATM   11  C   UNL     1      19.183  44.450  46.984  1.00  0.00     0.118 A 
HETATM   12  C   UNL     1      19.845  45.639  47.251  1.00  0.00     0.049 A 
ENDBRANCH   4   7
ENDBRANCH   2   3
BRANCH   2  13
HETATM   13  C   UNL     1      22.329  49.807  48.545  1.00  0.00    -0.021 A 
HETATM   14  C   UNL     1      23.122  50.710  47.826  1.00  0.00     0.012 A 
HETATM   15  C   UNL     1      24.512  50.577  47.817  1.00  0.00     0.001 A 
HETATM   16  C   UNL     1      25.116  49.541  48.528  1.00  0.00     0.000 A 
HETATM   17  C   UNL     1      24.334  48.640  49.250  1.00  0.00     0.001 A 
HETATM   18  C   UNL     1      22.945  48.769  49.259  1.00  0.00     0.012 A 
ENDBRANCH   2  13
BRANCH   1  19
HETATM   19  C   UNL     1      18.993  51.646  48.599  1.00  0.00    -0.002 A 
HETATM   20  C   UNL     1      18.137  51.507  47.495  1.00  0.00     0.078 A 
HETATM   21  C   UNL     1      16.802  51.906  47.575  1.00  0.00     0.037 A 
HETATM   22  C   UNL     1      16.319  52.486  48.746  1.00  0.00     0.003 A 
HETATM   23  C   UNL     1      17.165  52.647  49.842  1.00  0.00     0.001 A 
HETATM   24  C   UNL     1      18.495  52.224  49.771  1.00  0.00     0.014 A 
BRANCH  20  25
HETATM   25  O   UNL     1      18.522  50.859  46.350  1.00  0.00    -0.355 OA
HETATM   26  C   UNL     1      17.867  51.396  45.200  1.00  0.00     0.210 C 
ENDBRANCH  20  25
ENDBRANCH   1  19
TORSDOF 5
ENDMDL
MODEL 10
REMARK VINA RESULT:      -7.1      5.160      8.589
REMARK  5 active torsions:
REMARK  status: ('A' for Active; 'I' for Inactive)
REMARK    1  A    between atoms: O_2  and  C_3 
REMARK    2  A    between atoms: C_4  and  C_5 
REMARK    3  A    between atoms: C_6  and  C_7 
REMARK    4  A    between atoms: C_6  and  C_16 
REMARK       I    between atoms: C_7  and  N_8 
REMARK    5  A    between atoms: N_8  and  C_9 
ROOT
HETATM    1  C   UNL     1      27.180  43.883  52.160  1.00  0.00     0.032 C 
HETATM    2  C   UNL     1      26.275  44.862  52.378  1.00  0.00     0.043 C 
ENDROOT
BRANCH   2   3
HETATM    3  C   UNL     1      25.002  45.132  51.610  1.00  0.00     0.257 C 
HETATM    4  N   UNL     1      25.111  46.042  50.582  1.00  0.00    -0.323 N 
HETATM    5  H   UNL     1      26.011  46.477  50.443  1.00  0.00     0.169 HD
HETATM    6  O   UNL     1      23.977  44.530  51.920  1.00  0.00    -0.267 OA
BRANCH   4   7
HETATM    7  C   UNL     1      24.088  46.479  49.714  1.00  0.00     0.037 A 
HETATM    8  C   UNL     1      23.372  45.638  48.869  1.00  0.00     0.049 A 
HETATM    9  C   UNL     1      22.397  46.194  48.056  1.00  0.00     0.118 A 
HETATM   10  N   UNL     1      22.084  47.507  48.040  1.00  0.00    -0.273 NA
HETATM   11  C   UNL     1      22.789  48.301  48.870  1.00  0.00     0.118 A 
HETATM   12  C   UNL     1      23.794  47.844  49.707  1.00  0.00     0.049 A 
ENDBRANCH   4   7
ENDBRANCH   2   3
BRANCH   2  13
HETATM   13  C   UNL     1      26.646  45.818  53.445  1.00  0.00    -0.021 A 
HETATM   14  C   UNL     1      25.886  46.975  53.657  1.00  0.00     0.012 A 
HETATM   15  C   UNL     1      26.265  47.897  54.635  1.00  0.00     0.001 A 
HETATM   16  C   UNL     1      27.404  47.668  55.405  1.00  0.00     0.000 A 
HETATM   17  C   UNL     1      28.163  46.515  55.203  1.00  0.00     0.001 A 
HETATM   18  C   UNL     1      27.789  45.593  54.225  1.00  0.00     0.012 A 
ENDBRANCH   2  13
BRANCH   1  19
HETATM   19  C   UNL     1      27.157  42.813  51.158  1.00  0.00    -0.002 A 
HETATM   20  C   UNL     1      27.357  41.469  51.510  1.00  0.00     0.078 A 
HETATM   21  C   UNL     1      27.275  40.461  50.548  1.00  0.00     0.037 A 
HETATM   22  C   UNL     1      27.034  40.792  49.216  1.00  0.00     0.003 A 
HETATM   23  C   UNL     1      26.852  42.125  48.851  1.00  0.00     0.001 A 
HETATM   24  C   UNL     1      26.909  43.131  49.820  1.00  0.00     0.014 A 
BRANCH  20  25
HETATM   25  O   UNL     1      27.504  41.069  52.813  1.00  0.00    -0.355 OA
HETATM   26  C   UNL     1      28.881  40.924  53.164  1.00  0.00     0.210 C 
ENDBRANCH  20  25
ENDBRANCH   1  19
TORSDOF 5
ENDMDL
