MODEL 1
REMARK VINA RESULT:      -9.5      0.000      0.000
REMARK  7 active torsions:
REMARK  status: ('A' for Active; 'I' for Inactive)
REMARK    1  A    between atoms: C_11  and  N_12 
REMARK       I    between atoms: N_12  and  C_13 
REMARK    2  A    between atoms: C_13  and  C_14 
REMARK    3  A    between atoms: C_14  and  S_15 
REMARK    4  A    between atoms: S_15  and  C_16 
REMARK    5  A    between atoms: N_17  and  C_18 
REMARK    6  A    between atoms: C_18  and  C_19 
REMARK    7  A    between atoms: C_25  and  C_26 
ROOT
HETATM    1  N   UNL     1      26.650  43.634  51.091  1.00  0.00    -0.326 N 
HETATM    2  C   UNL     1      26.704  44.506  50.019  1.00  0.00     0.231 C 
HETATM    3  O   UNL     1      27.673  45.212  49.733  1.00  0.00    -0.272 OA
HETATM    4  H   UNL     1      25.842  43.021  51.123  1.00  0.00     0.169 HD
ENDROOT
BRANCH   2   5
HETATM    5  C   UNL     1      25.438  44.646  49.189  1.00  0.00     0.185 C 
BRANCH   5   6
HETATM    6  S   UNL     1      23.925  45.019  50.131  1.00  0.00    -0.081 SA
BRANCH   6   7
HETATM    7  C   UNL     1      23.794  46.715  49.769  1.00  0.00     0.192 A 
HETATM    8  N   UNL     1      23.007  47.268  48.784  1.00  0.00    -0.307 N 
HETATM    9  C   UNL     1      23.333  48.610  48.783  1.00  0.00     0.135 A 
HETATM   10  N   UNL     1      24.163  48.843  49.781  1.00  0.00    -0.134 NA
HETATM   11  N   UNL     1      24.461  47.658  50.388  1.00  0.00    -0.123 NA
BRANCH   8  12
HETATM   12  C   UNL     1      21.896  46.614  48.118  1.00  0.00     0.171 C 
BRANCH  12  13
HETATM   13  C   UNL     1      20.617  47.411  48.067  1.00  0.00    -0.040 A 
HETATM   14  C   UNL     1      20.042  47.850  46.865  1.00  0.00     0.009 A 
HETATM   15  C   UNL     1      18.833  48.551  46.868  1.00  0.00     0.001 A 
HETATM   16  C   UNL     1      18.173  48.806  48.068  1.00  0.00     0.000 A 
HETATM   17  C   UNL     1      18.717  48.358  49.268  1.00  0.00     0.001 A 
HETATM   18  C   UNL     1      19.925  47.659  49.267  1.00  0.00     0.009 A 
ENDBRANCH  12  13
ENDBRANCH   8  12
BRANCH   9  19
HETATM   19  C   UNL     1      22.956  49.780  47.882  1.00  0.00     0.057 A 
HETATM   20  C   UNL     1      21.877  50.738  48.335  1.00  0.00     0.013 A 
HETATM   21  C   UNL     1      23.275  51.225  48.159  1.00  0.00     0.013 A 
ENDBRANCH   9  19
ENDBRANCH   6   7
ENDBRANCH   5   6
ENDBRANCH   2   5
BRANCH   1  22
HETATM   22  C   UNL     1      27.643  43.450  52.082  1.00  0.00     0.037 A 
HETATM   23  C   UNL     1      28.538  42.374  52.083  1.00  0.00     0.032 A 
HETATM   24  C   UNL     1      29.513  42.248  53.077  1.00  0.00     0.041 A 
HETATM   25  C   UNL     1      29.614  43.209  54.074  1.00  0.00     0.096 A 
HETATM   26  O   UNL     1      30.565  43.000  55.034  1.00  0.00    -0.335 OA
HETATM   27  C   UNL     1      28.723  44.284  54.092  1.00  0.00     0.070 A 
HETATM   28  C   UNL     1      30.922  44.183  55.744  1.00  0.00     0.217 C 
HETATM   29  C   UNL     1      31.662  43.753  57.005  1.00  0.00     0.050 C 
HETATM   30  C   UNL     1      29.779  45.154  56.083  1.00  0.00     0.251 C 
HETATM   31  N   UNL     1      28.786  45.212  55.135  1.00  0.00    -0.323 N 
HETATM   32  O   UNL     1      29.770  45.910  57.052  1.00  0.00    -0.270 OA
HETATM   33  H   UNL     1      28.067  45.910  55.265  1.00  0.00     0.169 HD
HETATM   34  C   UNL     1      27.741  44.409  53.101  1.00  0.00     0.062 A 
ENDBRANCH   1  22
TORSDOF 7
ENDMDL
MODEL 2
REMARK VINA RESULT:      -9.5      2.212      4.181
REMARK  7 active torsions:
REMARK  status: ('A' for Active; 'I' for Inactive)
REMARK    1  A    between atoms: C_11  and  N_12 
REMARK       I    between atoms: N_12  and  C_13 
REMARK    2  A    between atoms: C_13  and  C_14 
REMARK    3  A    between atoms: C_14  and  S_15 
REMARK    4  A    between atoms: S_15  and  C_16 
REMARK    5  A    between atoms: N_17  and  C_18 
REMARK    6  A    between atoms: C_18  and  C_19 
REMARK    7  A    between atoms: C_25  and  C_26 
ROOT
HETATM    1  N   UNL     1      26.697  44.542  52.422  1.00  0.00    -0.326 N 
HETATM    2  C   UNL     1      25.399  44.066  52.406  1.00  0.00     0.231 C 
HETATM    3  O   UNL     1      24.653  44.022  53.386  1.00  0.00    -0.272 OA
HETATM    4  H   UNL     1      27.143  44.643  51.516  1.00  0.00     0.169 HD
ENDROOT
BRANCH   2   5
HETATM    5  C   UNL     1      24.900  43.489  51.091  1.00  0.00     0.185 C 
BRANCH   5   6
HETATM    6  S   UNL     1      25.703  44.148  49.595  1.00  0.00    -0.081 SA
BRANCH   6   7
HETATM    7  C   UNL     1      24.323  44.913  48.864  1.00  0.00     0.192 A 
HETATM    8  N   UNL     1      23.718  46.068  49.304  1.00  0.00    -0.307 N 
HETATM    9  C   UNL     1      22.600  46.208  48.506  1.00  0.00     0.135 A 
HETATM   10  N   UNL     1      22.619  45.266  47.584  1.00  0.00    -0.134 NA
HETATM   11  N   UNL     1      23.688  44.450  47.816  1.00  0.00    -0.123 NA
BRANCH   8  12
HETATM   12  C   UNL     1      24.302  47.041  50.208  1.00  0.00     0.171 C 
BRANCH  12  13
HETATM   13  C   UNL     1      25.247  48.028  49.570  1.00  0.00    -0.040 A 
HETATM   14  C   UNL     1      24.807  49.102  48.782  1.00  0.00     0.009 A 
HETATM   15  C   UNL     1      25.722  50.012  48.245  1.00  0.00     0.001 A 
HETATM   16  C   UNL     1      27.084  49.873  48.502  1.00  0.00     0.000 A 
HETATM   17  C   UNL     1      27.536  48.827  49.300  1.00  0.00     0.001 A 
HETATM   18  C   UNL     1      26.624  47.916  49.836  1.00  0.00     0.009 A 
ENDBRANCH  12  13
ENDBRANCH   8  12
BRANCH   9  19
HETATM   19  C   UNL     1      21.417  47.170  48.517  1.00  0.00     0.057 A 
HETATM   20  C   UNL     1      21.502  48.448  47.713  1.00  0.00     0.013 A 
HETATM   21  C   UNL     1      20.488  47.414  47.357  1.00  0.00     0.013 A 
ENDBRANCH   9  19
ENDBRANCH   6   7
ENDBRANCH   5   6
ENDBRANCH   2   5
BRANCH   1  22
HETATM   22  C   UNL     1      27.423  44.984  53.553  1.00  0.00     0.037 A 
HETATM   23  C   UNL     1      27.121  46.161  54.248  1.00  0.00     0.032 A 
HETATM   24  C   UNL     1      27.858  46.544  55.373  1.00  0.00     0.041 A 
HETATM   25  C   UNL     1      28.897  45.743  55.825  1.00  0.00     0.096 A 
HETATM   26  O   UNL     1      29.598  46.200  56.906  1.00  0.00    -0.335 OA
HETATM   27  C   UNL     1      29.216  44.570  55.137  1.00  0.00     0.070 A 
HETATM   28  C   UNL     1      30.325  45.178  57.583  1.00  0.00     0.217 C 
HETATM   29  C   UNL     1      31.343  45.862  58.486  1.00  0.00     0.050 C 
HETATM   30  C   UNL     1      31.002  44.115  56.701  1.00  0.00     0.251 C 
HETATM   31  N   UNL     1      30.306  43.803  55.558  1.00  0.00    -0.323 N 
HETATM   32  O   UNL     1      32.018  43.497  57.009  1.00  0.00    -0.270 OA
HETATM   33  H   UNL     1      30.660  43.037  55.001  1.00  0.00     0.169 HD
HETATM   34  C   UNL     1      28.484  44.188  54.007  1.00  0.00     0.062 A 
ENDBRANCH   1  22
TORSDOF 7
ENDMDL
MODEL 3
REMARK VINA RESULT:      -9.3      2.146      3.325
REMARK  7 active torsions:
REMARK  status: ('A' for Active; 'I' for Inactive)
REMARK    1  A    between atoms: C_11  and  N_12 
REMARK       I    between atoms: N_12  and  C_13 
REMARK    2  A    between atoms: C_13  and  C_14 
REMARK    3  A    between atoms: C_14  and  S_15 
REMARK    4  A    between atoms: S_15  and  C_16 
REMARK    5  A    between atoms: N_17  and  C_18 
REMARK    6  A    between atoms: C_18  and  C_19 
REMARK    7  A    between atoms: C_25  and  C_26 
ROOT
HETATM    1  N   UNL     1      27.341  43.651  52.206  1.00  0.00    -0.326 N 
HETATM    2  C   UNL     1      25.994  43.462  51.955  1.00  0.00     0.231 C 
HETATM    3  O   UNL     1      25.081  43.858  52.681  1.00  0.00    -0.272 OA
HETATM    4  H   UNL     1      27.972  43.390  51.456  1.00  0.00     0.169 HD
ENDROOT
BRANCH   2   5
HETATM    5  C   UNL     1      25.638  42.639  50.728  1.00  0.00     0.185 C 
BRANCH   5   6
HETATM    6  S   UNL     1      24.963  43.582  49.324  1.00  0.00    -0.081 SA
BRANCH   6   7
HETATM    7  C   UNL     1      25.936  45.016  49.471  1.00  0.00     0.192 A 
HETATM    8  N   UNL     1      25.467  46.280  49.747  1.00  0.00    -0.307 N 
HETATM    9  C   UNL     1      26.571  47.101  49.630  1.00  0.00     0.135 A 
HETATM   10  N   UNL     1      27.635  46.349  49.419  1.00  0.00    -0.134 NA
HETATM   11  N   UNL     1      27.235  45.049  49.308  1.00  0.00    -0.123 NA
BRANCH   8  12
HETATM   12  C   UNL     1      24.168  46.599  50.310  1.00  0.00     0.171 C 
BRANCH  12  13
HETATM   13  C   UNL     1      23.259  47.405  49.415  1.00  0.00    -0.040 A 
HETATM   14  C   UNL     1      23.189  48.805  49.466  1.00  0.00     0.009 A 
HETATM   15  C   UNL     1      22.359  49.508  48.587  1.00  0.00     0.001 A 
HETATM   16  C   UNL     1      21.605  48.824  47.637  1.00  0.00     0.000 A 
HETATM   17  C   UNL     1      21.679  47.437  47.557  1.00  0.00     0.001 A 
HETATM   18  C   UNL     1      22.507  46.734  48.435  1.00  0.00     0.009 A 
ENDBRANCH  12  13
ENDBRANCH   8  12
BRANCH   9  19
HETATM   19  C   UNL     1      26.764  48.612  49.667  1.00  0.00     0.057 A 
HETATM   20  C   UNL     1      28.051  49.202  49.135  1.00  0.00     0.013 A 
HETATM   21  C   UNL     1      26.758  49.516  48.463  1.00  0.00     0.013 A 
ENDBRANCH   9  19
ENDBRANCH   6   7
ENDBRANCH   5   6
ENDBRANCH   2   5
BRANCH   1  22
HETATM   22  C   UNL     1      27.912  44.250  53.354  1.00  0.00     0.037 A 
HETATM   23  C   UNL     1      27.454  45.455  53.901  1.00  0.00     0.032 A 
HETATM   24  C   UNL     1      28.042  45.995  55.049  1.00  0.00     0.041 A 
HETATM   25  C   UNL     1      29.085  45.325  55.673  1.00  0.00     0.096 A 
HETATM   26  O   UNL     1      29.636  45.933  56.767  1.00  0.00    -0.335 OA
HETATM   27  C   UNL     1      29.559  44.127  55.135  1.00  0.00     0.070 A 
HETATM   28  C   UNL     1      30.363  45.038  57.605  1.00  0.00     0.217 C 
HETATM   29  C   UNL     1      31.230  45.881  58.532  1.00  0.00     0.050 C 
HETATM   30  C   UNL     1      31.203  43.961  56.898  1.00  0.00     0.251 C 
HETATM   31  N   UNL     1      30.654  43.493  55.730  1.00  0.00    -0.323 N 
HETATM   32  O   UNL     1      32.225  43.459  57.360  1.00  0.00    -0.270 OA
HETATM   33  H   UNL     1      31.118  42.713  55.284  1.00  0.00     0.169 HD
HETATM   34  C   UNL     1      28.977  43.587  53.982  1.00  0.00     0.062 A 
ENDBRANCH   1  22
TORSDOF 7
ENDMDL
MODEL 4
REMARK VINA RESULT:      -9.2      2.563      9.534
REMARK  7 active torsions:
REMARK  status: ('A' for Active; 'I' for Inactive)
REMARK    1  A    between atoms: C_11  and  N_12 
REMARK       I    between atoms: N_12  and  C_13 
REMARK    2  A    between atoms: C_13  and  C_14 
REMARK    3  A    between atoms: C_14  and  S_15 
REMARK    4  A    between atoms: S_15  and  C_16 
REMARK    5  A    between atoms: N_17  and  C_18 
REMARK    6  A    between atoms: C_18  and  C_19 
REMARK    7  A    between atoms: C_25  and  C_26 
ROOT
HETATM    1  N   UNL     1      25.983  43.129  51.156  1.00  0.00    -0.326 N 
HETATM    2  C   UNL     1      27.349  43.301  51.292  1.00  0.00     0.231 C 
HETATM    3  O   UNL     1      27.990  44.241  50.818  1.00  0.00    -0.272 OA
HETATM    4  H   UNL     1      25.573  42.385  51.712  1.00  0.00     0.169 HD
ENDROOT
BRANCH   2   5
HETATM    5  C   UNL     1      28.106  42.202  52.019  1.00  0.00     0.185 C 
BRANCH   5   6
HETATM    6  S   UNL     1      27.644  41.958  53.763  1.00  0.00    -0.081 SA
BRANCH   6   7
HETATM    7  C   UNL     1      27.043  43.553  54.108  1.00  0.00     0.192 A 
HETATM    8  N   UNL     1      27.802  44.625  54.521  1.00  0.00    -0.307 N 
HETATM    9  C   UNL     1      26.885  45.620  54.797  1.00  0.00     0.135 A 
HETATM   10  N   UNL     1      25.685  45.196  54.453  1.00  0.00    -0.134 NA
HETATM   11  N   UNL     1      25.783  43.901  54.035  1.00  0.00    -0.123 NA
BRANCH   8  12
HETATM   12  C   UNL     1      29.243  44.740  54.404  1.00  0.00     0.171 C 
BRANCH  12  13
HETATM   13  C   UNL     1      30.011  44.538  55.686  1.00  0.00    -0.040 A 
HETATM   14  C   UNL     1      30.862  43.442  55.897  1.00  0.00     0.009 A 
HETATM   15  C   UNL     1      31.584  43.321  57.088  1.00  0.00     0.001 A 
HETATM   16  C   UNL     1      31.480  44.299  58.074  1.00  0.00     0.000 A 
HETATM   17  C   UNL     1      30.659  45.404  57.872  1.00  0.00     0.001 A 
HETATM   18  C   UNL     1      29.937  45.526  56.683  1.00  0.00     0.009 A 
ENDBRANCH  12  13
ENDBRANCH   8  12
BRANCH   9  19
HETATM   19  C   UNL     1      27.000  47.010  55.413  1.00  0.00     0.057 A 
HETATM   20  C   UNL     1      27.742  48.089  54.656  1.00  0.00     0.013 A 
HETATM   21  C   UNL     1      26.282  48.238  54.920  1.00  0.00     0.013 A 
ENDBRANCH   9  19
ENDBRANCH   6   7
ENDBRANCH   5   6
ENDBRANCH   2   5
BRANCH   1  22
HETATM   22  C   UNL     1      25.099  43.935  50.400  1.00  0.00     0.037 A 
HETATM   23  C   UNL     1      24.215  43.418  49.446  1.00  0.00     0.032 A 
HETATM   24  C   UNL     1      23.349  44.257  48.738  1.00  0.00     0.041 A 
HETATM   25  C   UNL     1      23.346  45.622  48.990  1.00  0.00     0.096 A 
HETATM   26  O   UNL     1      22.501  46.384  48.232  1.00  0.00    -0.335 OA
HETATM   27  C   UNL     1      24.229  46.153  49.932  1.00  0.00     0.070 A 
HETATM   28  C   UNL     1      22.213  47.654  48.810  1.00  0.00     0.217 C 
HETATM   29  C   UNL     1      21.611  48.528  47.716  1.00  0.00     0.050 C 
HETATM   30  C   UNL     1      23.381  48.375  49.505  1.00  0.00     0.251 C 
HETATM   31  N   UNL     1      24.269  47.536  50.132  1.00  0.00    -0.323 N 
HETATM   32  O   UNL     1      23.486  49.595  49.607  1.00  0.00    -0.270 OA
HETATM   33  H   UNL     1      24.994  47.968  50.688  1.00  0.00     0.169 HD
HETATM   34  C   UNL     1      25.102  45.317  50.637  1.00  0.00     0.062 A 
ENDBRANCH   1  22
TORSDOF 7
ENDMDL
MODEL 5
REMARK VINA RESULT:      -9.2      1.091      2.049
REMARK  7 active torsions:
REMARK  status: ('A' for Active; 'I' for Inactive)
REMARK    1  A    between atoms: C_11  and  N_12 
REMARK       I    between atoms: N_12  and  C_13 
REMARK    2  A    between atoms: C_13  and  C_14 
REMARK    3  A    between atoms: C_14  and  S_15 
REMARK    4  A    between atoms: S_15  and  C_16 
REMARK    5  A    between atoms: N_17  and  C_18 
REMARK    6  A    between atoms: C_18  and  C_19 
REMARK    7  A    between atoms: C_25  and  C_26 
ROOT
HETATM    1  N   UNL     1      25.897  44.913  51.471  1.00  0.00    -0.326 N 
HETATM    2  C   UNL     1      26.368  44.846  50.172  1.00  0.00     0.231 C 
HETATM    3  O   UNL     1      27.529  45.076  49.832  1.00  0.00    -0.272 OA
HETATM    4  H   UNL     1      24.955  44.567  51.619  1.00  0.00     0.169 HD
ENDROOT
BRANCH   2   5
HETATM    5  C   UNL     1      25.345  44.538  49.091  1.00  0.00     0.185 C 
BRANCH   5   6
HETATM    6  S   UNL     1      23.606  44.797  49.565  1.00  0.00    -0.081 SA
BRANCH   6   7
HETATM    7  C   UNL     1      23.539  46.528  49.408  1.00  0.00     0.192 A 
HETATM    8  N   UNL     1      22.837  47.220  48.449  1.00  0.00    -0.307 N 
HETATM    9  C   UNL     1      23.192  48.542  48.636  1.00  0.00     0.135 A 
HETATM   10  N   UNL     1      23.954  48.626  49.708  1.00  0.00    -0.134 NA
HETATM   11  N   UNL     1      24.181  47.367  50.182  1.00  0.00    -0.123 NA
BRANCH   8  12
HETATM   12  C   UNL     1      21.761  46.688  47.634  1.00  0.00     0.171 C 
BRANCH  12  13
HETATM   13  C   UNL     1      20.408  47.311  47.865  1.00  0.00    -0.040 A 
HETATM   14  C   UNL     1      19.779  47.318  49.119  1.00  0.00     0.009 A 
HETATM   15  C   UNL     1      18.541  47.945  49.291  1.00  0.00     0.001 A 
HETATM   16  C   UNL     1      17.925  48.586  48.219  1.00  0.00     0.000 A 
HETATM   17  C   UNL     1      18.544  48.607  46.974  1.00  0.00     0.001 A 
HETATM   18  C   UNL     1      19.780  47.982  46.800  1.00  0.00     0.009 A 
ENDBRANCH  12  13
ENDBRANCH   8  12
BRANCH   9  19
HETATM   19  C   UNL     1      22.906  49.824  47.863  1.00  0.00     0.057 A 
HETATM   20  C   UNL     1      21.778  50.722  48.322  1.00  0.00     0.013 A 
HETATM   21  C   UNL     1      23.184  51.217  48.362  1.00  0.00     0.013 A 
ENDBRANCH   9  19
ENDBRANCH   6   7
ENDBRANCH   5   6
ENDBRANCH   2   5
BRANCH   1  22
HETATM   22  C   UNL     1      26.623  45.325  52.614  1.00  0.00     0.037 A 
HETATM   23  C   UNL     1      26.354  46.510  53.309  1.00  0.00     0.032 A 
HETATM   24  C   UNL     1      27.090  46.862  54.444  1.00  0.00     0.041 A 
HETATM   25  C   UNL     1      28.094  46.023  54.907  1.00  0.00     0.096 A 
HETATM   26  O   UNL     1      28.797  46.451  55.999  1.00  0.00    -0.335 OA
HETATM   27  C   UNL     1      28.381  44.842  54.218  1.00  0.00     0.070 A 
HETATM   28  C   UNL     1      29.478  45.401  56.680  1.00  0.00     0.217 C 
HETATM   29  C   UNL     1      30.509  46.046  57.599  1.00  0.00     0.050 C 
HETATM   30  C   UNL     1      30.129  44.318  55.803  1.00  0.00     0.251 C 
HETATM   31  N   UNL     1      29.437  44.035  54.650  1.00  0.00    -0.323 N 
HETATM   32  O   UNL     1      31.118  43.664  56.121  1.00  0.00    -0.270 OA
HETATM   33  H   UNL     1      29.771  43.260  54.094  1.00  0.00     0.169 HD
HETATM   34  C   UNL     1      27.650  44.490  53.078  1.00  0.00     0.062 A 
ENDBRANCH   1  22
TORSDOF 7
ENDMDL
MODEL 6
REMARK VINA RESULT:      -9.0      1.572      2.436
REMARK  7 active torsions:
REMARK  status: ('A' for Active; 'I' for Inactive)
REMARK    1  A    between atoms: C_11  and  N_12 
REMARK       I    between atoms: N_12  and  C_13 
REMARK    2  A    between atoms: C_13  and  C_14 
REMARK    3  A    between atoms: C_14  and  S_15 
REMARK    4  A    between atoms: S_15  and  C_16 
REMARK    5  A    between atoms: N_17  and  C_18 
REMARK    6  A    between atoms: C_18  and  C_19 
REMARK    7  A    between atoms: C_25  and  C_26 
ROOT
HETATM    1  N   UNL     1      25.950  42.890  51.401  1.00  0.00    -0.326 N 
HETATM    2  C   UNL     1      26.016  43.417  50.124  1.00  0.00     0.231 C 
HETATM    3  O   UNL     1      27.040  43.855  49.596  1.00  0.00    -0.272 OA
HETATM    4  H   UNL     1      25.073  42.446  51.652  1.00  0.00     0.169 HD
ENDROOT
BRANCH   2   5
HETATM    5  C   UNL     1      24.706  43.523  49.361  1.00  0.00     0.185 C 
BRANCH   5   6
HETATM    6  S   UNL     1      23.451  44.607  50.113  1.00  0.00    -0.081 SA
BRANCH   6   7
HETATM    7  C   UNL     1      24.449  45.997  50.426  1.00  0.00     0.192 A 
HETATM    8  N   UNL     1      24.689  47.027  49.546  1.00  0.00    -0.307 N 
HETATM    9  C   UNL     1      25.633  47.816  50.175  1.00  0.00     0.135 A 
HETATM   10  N   UNL     1      25.837  47.343  51.389  1.00  0.00    -0.134 NA
HETATM   11  N   UNL     1      25.106  46.200  51.540  1.00  0.00    -0.123 NA
BRANCH   8  12
HETATM   12  C   UNL     1      23.904  47.337  48.366  1.00  0.00     0.171 C 
BRANCH  12  13
HETATM   13  C   UNL     1      22.940  48.486  48.517  1.00  0.00    -0.040 A 
HETATM   14  C   UNL     1      21.723  48.372  49.206  1.00  0.00     0.009 A 
HETATM   15  C   UNL     1      20.881  49.478  49.352  1.00  0.00     0.001 A 
HETATM   16  C   UNL     1      21.251  50.715  48.830  1.00  0.00     0.000 A 
HETATM   17  C   UNL     1      22.465  50.852  48.163  1.00  0.00     0.001 A 
HETATM   18  C   UNL     1      23.306  49.748  48.015  1.00  0.00     0.009 A 
ENDBRANCH  12  13
ENDBRANCH   8  12
BRANCH   9  19
HETATM   19  C   UNL     1      26.444  49.029  49.738  1.00  0.00     0.057 A 
HETATM   20  C   UNL     1      27.770  48.815  49.041  1.00  0.00     0.013 A 
HETATM   21  C   UNL     1      26.645  49.471  48.313  1.00  0.00     0.013 A 
ENDBRANCH   9  19
ENDBRANCH   6   7
ENDBRANCH   5   6
ENDBRANCH   2   5
BRANCH   1  22
HETATM   22  C   UNL     1      27.001  42.829  52.347  1.00  0.00     0.037 A 
HETATM   23  C   UNL     1      27.842  41.720  52.491  1.00  0.00     0.032 A 
HETATM   24  C   UNL     1      28.878  41.718  53.429  1.00  0.00     0.041 A 
HETATM   25  C   UNL     1      29.095  42.835  54.224  1.00  0.00     0.096 A 
HETATM   26  O   UNL     1      30.101  42.746  55.146  1.00  0.00    -0.335 OA
HETATM   27  C   UNL     1      28.259  43.946  54.099  1.00  0.00     0.070 A 
HETATM   28  C   UNL     1      30.563  44.014  55.603  1.00  0.00     0.217 C 
HETATM   29  C   UNL     1      31.369  43.776  56.874  1.00  0.00     0.050 C 
HETATM   30  C   UNL     1      29.494  45.097  55.828  1.00  0.00     0.251 C 
HETATM   31  N   UNL     1      28.440  45.041  54.948  1.00  0.00    -0.323 N 
HETATM   32  O   UNL     1      29.589  46.014  56.640  1.00  0.00    -0.270 OA
HETATM   33  H   UNL     1      27.766  45.793  54.992  1.00  0.00     0.169 HD
HETATM   34  C   UNL     1      27.216  43.948  53.165  1.00  0.00     0.062 A 
ENDBRANCH   1  22
TORSDOF 7
ENDMDL
MODEL 7
REMARK VINA RESULT:      -8.9      1.496      2.672
REMARK  7 active torsions:
REMARK  status: ('A' for Active; 'I' for Inactive)
REMARK    1  A    between atoms: C_11  and  N_12 
REMARK       I    between atoms: N_12  and  C_13 
REMARK    2  A    between atoms: C_13  and  C_14 
REMARK    3  A    between atoms: C_14  and  S_15 
REMARK    4  A    between atoms: S_15  and  C_16 
REMARK    5  A    between atoms: N_17  and  C_18 
REMARK    6  A    between atoms: C_18  and  C_19 
REMARK    7  A    between atoms: C_25  and  C_26 
ROOT
HETATM    1  N   UNL     1      25.784  44.472  52.502  1.00  0.00    -0.326 N 
HETATM    2  C   UNL     1      25.774  45.222  51.339  1.00  0.00     0.231 C 
HETATM    3  O   UNL     1      26.781  45.605  50.741  1.00  0.00    -0.272 OA
HETATM    4  H   UNL     1      24.884  44.115  52.806  1.00  0.00     0.169 HD
ENDROOT
BRANCH   2   5
HETATM    5  C   UNL     1      24.414  45.657  50.820  1.00  0.00     0.185 C 
BRANCH   5   6
HETATM    6  S   UNL     1      24.369  47.297  50.029  1.00  0.00    -0.081 SA
BRANCH   6   7
HETATM    7  C   UNL     1      23.163  46.979  48.817  1.00  0.00     0.192 A 
HETATM    8  N   UNL     1      22.294  47.904  48.286  1.00  0.00    -0.307 N 
HETATM    9  C   UNL     1      21.448  47.171  47.478  1.00  0.00     0.135 A 
HETATM   10  N   UNL     1      21.871  45.923  47.446  1.00  0.00    -0.134 NA
HETATM   11  N   UNL     1      22.935  45.801  48.292  1.00  0.00    -0.123 NA
BRANCH   8  12
HETATM   12  C   UNL     1      22.443  49.346  48.355  1.00  0.00     0.171 C 
BRANCH  12  13
HETATM   13  C   UNL     1      21.228  50.096  48.839  1.00  0.00    -0.040 A 
HETATM   14  C   UNL     1      20.526  49.739  50.000  1.00  0.00     0.009 A 
HETATM   15  C   UNL     1      19.429  50.492  50.429  1.00  0.00     0.001 A 
HETATM   16  C   UNL     1      19.030  51.620  49.715  1.00  0.00     0.000 A 
HETATM   17  C   UNL     1      19.728  52.001  48.574  1.00  0.00     0.001 A 
HETATM   18  C   UNL     1      20.824  51.250  48.144  1.00  0.00     0.009 A 
ENDBRANCH  12  13
ENDBRANCH   8  12
BRANCH   9  19
HETATM   19  C   UNL     1      20.185  47.515  46.697  1.00  0.00     0.057 A 
HETATM   20  C   UNL     1      18.963  46.638  46.853  1.00  0.00     0.013 A 
HETATM   21  C   UNL     1      18.917  48.061  47.296  1.00  0.00     0.013 A 
ENDBRANCH   9  19
ENDBRANCH   6   7
ENDBRANCH   5   6
ENDBRANCH   2   5
BRANCH   1  22
HETATM   22  C   UNL     1      26.921  44.081  53.248  1.00  0.00     0.037 A 
HETATM   23  C   UNL     1      27.566  42.850  53.078  1.00  0.00     0.032 A 
HETATM   24  C   UNL     1      28.698  42.520  53.828  1.00  0.00     0.041 A 
HETATM   25  C   UNL     1      29.209  43.427  54.746  1.00  0.00     0.096 A 
HETATM   26  O   UNL     1      30.295  43.020  55.471  1.00  0.00    -0.335 OA
HETATM   27  C   UNL     1      28.572  44.656  54.933  1.00  0.00     0.070 A 
HETATM   28  C   UNL     1      31.028  44.099  56.045  1.00  0.00     0.217 C 
HETATM   29  C   UNL     1      31.938  43.513  57.118  1.00  0.00     0.050 C 
HETATM   30  C   UNL     1      30.204  45.271  56.606  1.00  0.00     0.251 C 
HETATM   31  N   UNL     1      29.053  45.537  55.906  1.00  0.00    -0.323 N 
HETATM   32  O   UNL     1      30.565  45.999  57.528  1.00  0.00    -0.270 OA
HETATM   33  H   UNL     1      28.533  46.361  56.175  1.00  0.00     0.169 HD
HETATM   34  C   UNL     1      27.434  44.986  54.188  1.00  0.00     0.062 A 
ENDBRANCH   1  22
TORSDOF 7
ENDMDL
MODEL 8
REMARK VINA RESULT:      -8.8      2.271      3.914
REMARK  7 active torsions:
REMARK  status: ('A' for Active; 'I' for Inactive)
REMARK    1  A    between atoms: C_11  and  N_12 
REMARK       I    between atoms: N_12  and  C_13 
REMARK    2  A    between atoms: C_13  and  C_14 
REMARK    3  A    between atoms: C_14  and  S_15 
REMARK    4  A    between atoms: S_15  and  C_16 
REMARK    5  A    between atoms: N_17  and  C_18 
REMARK    6  A    between atoms: C_18  and  C_19 
REMARK    7  A    between atoms: C_25  and  C_26 
ROOT
HETATM    1  N   UNL     1      24.568  45.067  51.523  1.00  0.00    -0.326 N 
HETATM    2  C   UNL     1      24.449  45.528  50.224  1.00  0.00     0.231 C 
HETATM    3  O   UNL     1      25.251  46.280  49.668  1.00  0.00    -0.272 OA
HETATM    4  H   UNL     1      23.907  44.349  51.800  1.00  0.00     0.169 HD
ENDROOT
BRANCH   2   5
HETATM    5  C   UNL     1      23.191  45.127  49.471  1.00  0.00     0.185 C 
BRANCH   5   6
HETATM    6  S   UNL     1      22.613  46.324  48.226  1.00  0.00    -0.081 SA
BRANCH   6   7
HETATM    7  C   UNL     1      20.932  45.878  48.185  1.00  0.00     0.192 A 
HETATM    8  N   UNL     1      19.891  46.703  47.827  1.00  0.00    -0.307 N 
HETATM    9  C   UNL     1      18.751  45.964  48.078  1.00  0.00     0.135 A 
HETATM   10  N   UNL     1      19.109  44.748  48.442  1.00  0.00    -0.134 NA
HETATM   11  N   UNL     1      20.471  44.699  48.521  1.00  0.00    -0.123 NA
BRANCH   8  12
HETATM   12  C   UNL     1      20.008  47.947  47.090  1.00  0.00     0.171 C 
BRANCH  12  13
HETATM   13  C   UNL     1      19.913  49.201  47.922  1.00  0.00    -0.040 A 
HETATM   14  C   UNL     1      20.522  49.327  49.179  1.00  0.00     0.009 A 
HETATM   15  C   UNL     1      20.438  50.525  49.894  1.00  0.00     0.001 A 
HETATM   16  C   UNL     1      19.762  51.617  49.356  1.00  0.00     0.000 A 
HETATM   17  C   UNL     1      19.170  51.517  48.101  1.00  0.00     0.001 A 
HETATM   18  C   UNL     1      19.253  50.321  47.386  1.00  0.00     0.009 A 
ENDBRANCH  12  13
ENDBRANCH   8  12
BRANCH   9  19
HETATM   19  C   UNL     1      17.263  46.286  48.041  1.00  0.00     0.057 A 
HETATM   20  C   UNL     1      16.735  47.421  48.891  1.00  0.00     0.013 A 
HETATM   21  C   UNL     1      16.656  47.509  47.404  1.00  0.00     0.013 A 
ENDBRANCH   9  19
ENDBRANCH   6   7
ENDBRANCH   5   6
ENDBRANCH   2   5
BRANCH   1  22
HETATM   22  C   UNL     1      25.566  45.425  52.460  1.00  0.00     0.037 A 
HETATM   23  C   UNL     1      25.604  46.667  53.104  1.00  0.00     0.032 A 
HETATM   24  C   UNL     1      26.603  46.965  54.036  1.00  0.00     0.041 A 
HETATM   25  C   UNL     1      27.565  46.015  54.347  1.00  0.00     0.096 A 
HETATM   26  O   UNL     1      28.533  46.390  55.238  1.00  0.00    -0.335 OA
HETATM   27  C   UNL     1      27.546  44.775  53.706  1.00  0.00     0.070 A 
HETATM   28  C   UNL     1      29.202  45.288  55.844  1.00  0.00     0.217 C 
HETATM   29  C   UNL     1      30.477  45.823  56.484  1.00  0.00     0.050 C 
HETATM   30  C   UNL     1      29.507  44.084  54.937  1.00  0.00     0.251 C 
HETATM   31  N   UNL     1      28.557  43.847  53.974  1.00  0.00    -0.323 N 
HETATM   32  O   UNL     1      30.449  43.312  55.097  1.00  0.00    -0.270 OA
HETATM   33  H   UNL     1      28.663  43.007  53.422  1.00  0.00     0.169 HD
HETATM   34  C   UNL     1      26.551  44.476  52.767  1.00  0.00     0.062 A 
ENDBRANCH   1  22
TORSDOF 7
ENDMDL
MODEL 9
REMARK VINA RESULT:      -8.6      2.377      3.690
REMARK  7 active torsions:
REMARK  status: ('A' for Active; 'I' for Inactive)
REMARK    1  A    between atoms: C_11  and  N_12 
REMARK       I    between atoms: N_12  and  C_13 
REMARK    2  A    between atoms: C_13  and  C_14 
REMARK    3  A    between atoms: C_14  and  S_15 
REMARK    4  A    between atoms: S_15  and  C_16 
REMARK    5  A    between atoms: N_17  and  C_18 
REMARK    6  A    between atoms: C_18  and  C_19 
REMARK    7  A    between atoms: C_25  and  C_26 
ROOT
HETATM    1  N   UNL     1      24.618  46.306  50.978  1.00  0.00    -0.326 N 
HETATM    2  C   UNL     1      24.572  47.363  50.087  1.00  0.00     0.231 C 
HETATM    3  O   UNL     1      25.444  48.226  49.973  1.00  0.00    -0.272 OA
HETATM    4  H   UNL     1      23.897  45.601  50.866  1.00  0.00     0.169 HD
ENDROOT
BRANCH   2   5
HETATM    5  C   UNL     1      23.311  47.495  49.250  1.00  0.00     0.185 C 
BRANCH   5   6
HETATM    6  S   UNL     1      23.175  49.030  48.279  1.00  0.00    -0.081 SA
BRANCH   6   7
HETATM    7  C   UNL     1      21.985  49.853  49.243  1.00  0.00     0.192 A 
HETATM    8  N   UNL     1      20.620  49.715  49.125  1.00  0.00    -0.307 N 
HETATM    9  C   UNL     1      20.094  50.654  49.991  1.00  0.00     0.135 A 
HETATM   10  N   UNL     1      21.084  51.215  50.658  1.00  0.00    -0.134 NA
HETATM   11  N   UNL     1      22.265  50.724  50.181  1.00  0.00    -0.123 NA
BRANCH   8  12
HETATM   12  C   UNL     1      19.931  48.630  48.453  1.00  0.00     0.171 C 
BRANCH  12  13
HETATM   13  C   UNL     1      19.351  48.973  47.104  1.00  0.00    -0.040 A 
HETATM   14  C   UNL     1      19.317  50.282  46.601  1.00  0.00     0.009 A 
HETATM   15  C   UNL     1      18.805  50.542  45.327  1.00  0.00     0.001 A 
HETATM   16  C   UNL     1      18.338  49.498  44.532  1.00  0.00     0.000 A 
HETATM   17  C   UNL     1      18.385  48.191  45.005  1.00  0.00     0.001 A 
HETATM   18  C   UNL     1      18.895  47.929  46.278  1.00  0.00     0.009 A 
ENDBRANCH  12  13
ENDBRANCH   8  12
BRANCH   9  19
HETATM   19  C   UNL     1      18.679  51.143  50.274  1.00  0.00     0.057 A 
HETATM   20  C   UNL     1      18.151  52.341  49.516  1.00  0.00     0.013 A 
HETATM   21  C   UNL     1      17.511  51.007  49.334  1.00  0.00     0.013 A 
ENDBRANCH   9  19
ENDBRANCH   6   7
ENDBRANCH   5   6
ENDBRANCH   2   5
BRANCH   1  22
HETATM   22  C   UNL     1      25.613  46.067  51.956  1.00  0.00     0.037 A 
HETATM   23  C   UNL     1      25.711  46.797  53.147  1.00  0.00     0.032 A 
HETATM   24  C   UNL     1      26.702  46.508  54.089  1.00  0.00     0.041 A 
HETATM   25  C   UNL     1      27.597  45.473  53.859  1.00  0.00     0.096 A 
HETATM   26  O   UNL     1      28.563  45.274  54.806  1.00  0.00    -0.335 OA
HETATM   27  C   UNL     1      27.517  44.741  52.672  1.00  0.00     0.070 A 
HETATM   28  C   UNL     1      29.148  43.976  54.754  1.00  0.00     0.217 C 
HETATM   29  C   UNL     1      30.437  44.023  55.564  1.00  0.00     0.050 C 
HETATM   30  C   UNL     1      29.401  43.390  53.354  1.00  0.00     0.251 C 
HETATM   31  N   UNL     1      28.463  43.744  52.415  1.00  0.00    -0.323 N 
HETATM   32  O   UNL     1      30.290  42.586  53.085  1.00  0.00    -0.270 OA
HETATM   33  H   UNL     1      28.531  43.302  51.509  1.00  0.00     0.169 HD
HETATM   34  C   UNL     1      26.530  45.033  51.723  1.00  0.00     0.062 A 
ENDBRANCH   1  22
TORSDOF 7
ENDMDL
MODEL 10
REMARK VINA RESULT:      -8.6      2.879      9.637
REMARK  7 active torsions:
REMARK  status: ('A' for Active; 'I' for Inactive)
REMARK    1  A    between atoms: C_11  and  N_12 
REMARK       I    between atoms: N_12  and  C_13 
REMARK    2  A    between atoms: C_13  and  C_14 
REMARK    3  A    between atoms: C_14  and  S_15 
REMARK    4  A    between atoms: S_15  and  C_16 
REMARK    5  A    between atoms: N_17  and  C_18 
REMARK    6  A    between atoms: C_18  and  C_19 
REMARK    7  A    between atoms: C_25  and  C_26 
ROOT
HETATM    1  N   UNL     1      25.259  45.313  50.077  1.00  0.00    -0.326 N 
HETATM    2  C   UNL     1      26.609  45.563  49.904  1.00  0.00     0.231 C 
HETATM    3  O   UNL     1      27.072  46.465  49.205  1.00  0.00    -0.272 OA
HETATM    4  H   UNL     1      25.024  44.626  50.786  1.00  0.00     0.169 HD
ENDROOT
BRANCH   2   5
HETATM    5  C   UNL     1      27.573  44.598  50.574  1.00  0.00     0.185 C 
BRANCH   5   6
HETATM    6  S   UNL     1      26.797  43.216  51.471  1.00  0.00    -0.081 SA
BRANCH   6   7
HETATM    7  C   UNL     1      28.102  42.833  52.554  1.00  0.00     0.192 A 
HETATM    8  N   UNL     1      28.226  43.277  53.851  1.00  0.00    -0.307 N 
HETATM    9  C   UNL     1      29.469  42.834  54.259  1.00  0.00     0.135 A 
HETATM   10  N   UNL     1      29.982  42.080  53.307  1.00  0.00    -0.134 NA
HETATM   11  N   UNL     1      29.133  42.089  52.238  1.00  0.00    -0.123 NA
BRANCH   8  12
HETATM   12  C   UNL     1      27.160  43.832  54.664  1.00  0.00     0.171 C 
BRANCH  12  13
HETATM   13  C   UNL     1      26.957  45.320  54.533  1.00  0.00    -0.040 A 
HETATM   14  C   UNL     1      25.882  45.881  53.826  1.00  0.00     0.009 A 
HETATM   15  C   UNL     1      25.715  47.268  53.768  1.00  0.00     0.001 A 
HETATM   16  C   UNL     1      26.607  48.110  54.427  1.00  0.00     0.000 A 
HETATM   17  C   UNL     1      27.666  47.570  55.151  1.00  0.00     0.001 A 
HETATM   18  C   UNL     1      27.835  46.185  55.210  1.00  0.00     0.009 A 
ENDBRANCH  12  13
ENDBRANCH   8  12
BRANCH   9  19
HETATM   19  C   UNL     1      30.307  43.069  55.510  1.00  0.00     0.057 A 
HETATM   20  C   UNL     1      31.397  44.117  55.479  1.00  0.00     0.013 A 
HETATM   21  C   UNL     1      30.229  44.288  56.390  1.00  0.00     0.013 A 
ENDBRANCH   9  19
ENDBRANCH   6   7
ENDBRANCH   5   6
ENDBRANCH   2   5
BRANCH   1  22
HETATM   22  C   UNL     1      24.186  45.977  49.438  1.00  0.00     0.037 A 
HETATM   23  C   UNL     1      23.383  45.377  48.461  1.00  0.00     0.032 A 
HETATM   24  C   UNL     1      22.323  46.073  47.873  1.00  0.00     0.041 A 
HETATM   25  C   UNL     1      22.043  47.374  48.268  1.00  0.00     0.096 A 
HETATM   26  O   UNL     1      21.017  48.005  47.621  1.00  0.00    -0.335 OA
HETATM   27  C   UNL     1      22.841  47.989  49.235  1.00  0.00     0.070 A 
HETATM   28  C   UNL     1      20.497  49.120  48.340  1.00  0.00     0.217 C 
HETATM   29  C   UNL     1      19.665  49.944  47.364  1.00  0.00     0.050 C 
HETATM   30  C   UNL     1      21.519  50.005  49.073  1.00  0.00     0.251 C 
HETATM   31  N   UNL     1      22.596  49.322  49.580  1.00  0.00    -0.323 N 
HETATM   32  O   UNL     1      21.367  51.203  49.301  1.00  0.00    -0.270 OA
HETATM   33  H   UNL     1      23.241  49.845  50.157  1.00  0.00     0.169 HD
HETATM   34  C   UNL     1      23.908  47.297  49.821  1.00  0.00     0.062 A 
ENDBRANCH   1  22
TORSDOF 7
ENDMDL
