MODEL 1
REMARK VINA RESULT:     -11.8      0.000      0.000
REMARK  8 active torsions:
REMARK  status: ('A' for Active; 'I' for Inactive)
REMARK    1  A    between atoms: C_4  and  S_5 
REMARK    2  A    between atoms: S_5  and  C_6 
REMARK    3  A    between atoms: C_6  and  C_7 
REMARK       I    between atoms: C_7  and  N_8 
REMARK    4  A    between atoms: N_8  and  C_9 
REMARK    5  A    between atoms: C_11  and  C_12 
REMARK    6  A    between atoms: C_23  and  C_24 
REMARK    7  A    between atoms: C_30  and  C_31 
REMARK       I    between atoms: C_31  and  N_32 
REMARK    8  A    between atoms: N_32  and  C_33 
ROOT
HETATM    1  C   UNL     1      22.789  44.863  47.477  1.00  0.00     0.069 C 
HETATM    2  C   UNL     1      23.525  45.548  48.597  1.00  0.00     0.019 C 
HETATM    3  N   UNL     1      24.564  44.825  49.166  1.00  0.00    -0.353 N 
HETATM    4  C   UNL     1      25.317  45.212  50.263  1.00  0.00     0.087 C 
HETATM    5  C   UNL     1      25.112  46.445  50.781  1.00  0.00     0.055 C 
HETATM    6  C   UNL     1      25.736  46.942  52.075  1.00  0.00     0.019 C 
HETATM    7  N   UNL     1      26.252  47.354  53.150  1.00  0.00    -0.096 N 
HETATM    8  C   UNL     1      24.245  47.462  50.032  1.00  0.00     0.104 C 
HETATM    9  C   UNL     1      23.293  46.812  49.025  1.00  0.00     0.046 C 
HETATM   10  H   UNL     1      24.786  43.909  48.784  1.00  0.00     0.166 HD
ENDROOT
BRANCH   4  11
HETATM   11  S   UNL     1      26.650  44.200  50.760  1.00  0.00    -0.102 SA
BRANCH  11  12
HETATM   12  C   UNL     1      26.016  43.224  52.157  1.00  0.00     0.184 C 
BRANCH  12  13
HETATM   13  C   UNL     1      26.570  43.749  53.491  1.00  0.00     0.231 C 
HETATM   14  N   UNL     1      27.932  43.995  53.483  1.00  0.00    -0.327 N 
HETATM   15  H   UNL     1      28.409  43.722  52.629  1.00  0.00     0.169 HD
HETATM   16  O   UNL     1      25.809  43.956  54.434  1.00  0.00    -0.272 OA
BRANCH  14  17
HETATM   17  C   UNL     1      28.757  44.455  54.525  1.00  0.00     0.035 A 
HETATM   18  C   UNL     1      29.709  43.671  55.178  1.00  0.00     0.045 A 
HETATM   19  C   UNL     1      30.499  44.212  56.210  1.00  0.00     0.050 A 
HETATM   20  C   UNL     1      30.331  45.559  56.569  1.00  0.00     0.016 A 
HETATM   21  C   UNL     1      29.384  46.345  55.923  1.00  0.00     0.003 A 
HETATM   22  C   UNL     1      28.598  45.793  54.911  1.00  0.00     0.029 A 
BRANCH  19  23
HETATM   23  C   UNL     1      31.533  43.374  56.921  1.00  0.00     0.417 C 
HETATM   24  F   UNL     1      32.532  42.923  56.113  1.00  0.00    -0.166 F 
HETATM   25  F   UNL     1      32.145  44.056  57.929  1.00  0.00    -0.166 F 
HETATM   26  F   UNL     1      30.994  42.264  57.500  1.00  0.00    -0.166 F 
ENDBRANCH  19  23
ENDBRANCH  14  17
ENDBRANCH  12  13
ENDBRANCH  11  12
ENDBRANCH   4  11
BRANCH   8  27
HETATM   27  C   UNL     1      25.186  48.480  49.364  1.00  0.00    -0.042 A 
HETATM   28  C   UNL     1      24.692  49.526  48.569  1.00  0.00     0.027 A 
HETATM   29  C   UNL     1      25.589  50.386  47.955  1.00  0.00     0.116 A 
HETATM   30  N   UNL     1      26.927  50.274  48.062  1.00  0.00    -0.273 NA
HETATM   31  C   UNL     1      27.388  49.265  48.833  1.00  0.00     0.116 A 
HETATM   32  C   UNL     1      26.573  48.355  49.491  1.00  0.00     0.027 A 
ENDBRANCH   8  27
BRANCH   9  33
HETATM   33  C   UNL     1      22.189  47.708  48.553  1.00  0.00     0.255 C 
HETATM   34  N   UNL     1      21.621  48.482  49.542  1.00  0.00    -0.323 N 
HETATM   35  H   UNL     1      21.988  48.385  50.479  1.00  0.00     0.169 HD
HETATM   36  O   UNL     1      21.929  47.758  47.357  1.00  0.00    -0.268 OA
BRANCH  34  37
HETATM   37  C   UNL     1      20.551  49.395  49.396  1.00  0.00     0.035 A 
HETATM   38  C   UNL     1      19.213  49.081  49.647  1.00  0.00     0.029 A 
HETATM   39  C   UNL     1      18.213  50.046  49.486  1.00  0.00     0.002 A 
HETATM   40  C   UNL     1      18.541  51.335  49.080  1.00  0.00     0.000 A 
HETATM   41  C   UNL     1      19.871  51.661  48.828  1.00  0.00     0.002 A 
HETATM   42  C   UNL     1      20.871  50.694  48.980  1.00  0.00     0.029 A 
ENDBRANCH  34  37
ENDBRANCH   9  33
TORSDOF 8
ENDMDL
MODEL 2
REMARK VINA RESULT:     -11.6      1.525      2.056
REMARK  8 active torsions:
REMARK  status: ('A' for Active; 'I' for Inactive)
REMARK    1  A    between atoms: C_4  and  S_5 
REMARK    2  A    between atoms: S_5  and  C_6 
REMARK    3  A    between atoms: C_6  and  C_7 
REMARK       I    between atoms: C_7  and  N_8 
REMARK    4  A    between atoms: N_8  and  C_9 
REMARK    5  A    between atoms: C_11  and  C_12 
REMARK    6  A    between atoms: C_23  and  C_24 
REMARK    7  A    between atoms: C_30  and  C_31 
REMARK       I    between atoms: C_31  and  N_32 
REMARK    8  A    between atoms: N_32  and  C_33 
ROOT
HETATM    1  C   UNL     1      22.593  44.557  47.742  1.00  0.00     0.069 C 
HETATM    2  C   UNL     1      23.309  45.225  48.886  1.00  0.00     0.019 C 
HETATM    3  N   UNL     1      24.114  44.400  49.657  1.00  0.00    -0.353 N 
HETATM    4  C   UNL     1      24.791  44.770  50.808  1.00  0.00     0.087 C 
HETATM    5  C   UNL     1      24.767  46.071  51.177  1.00  0.00     0.055 C 
HETATM    6  C   UNL     1      25.315  46.595  52.495  1.00  0.00     0.019 C 
HETATM    7  N   UNL     1      25.769  47.030  53.588  1.00  0.00    -0.096 N 
HETATM    8  C   UNL     1      24.207  47.133  50.225  1.00  0.00     0.104 C 
HETATM    9  C   UNL     1      23.275  46.551  49.160  1.00  0.00     0.046 C 
HETATM   10  H   UNL     1      24.200  43.420  49.395  1.00  0.00     0.166 HD
ENDROOT
BRANCH   4  11
HETATM   11  S   UNL     1      25.835  43.600  51.576  1.00  0.00    -0.102 SA
BRANCH  11  12
HETATM   12  C   UNL     1      27.526  44.204  51.287  1.00  0.00     0.184 C 
BRANCH  12  13
HETATM   13  C   UNL     1      28.485  43.699  52.376  1.00  0.00     0.231 C 
HETATM   14  N   UNL     1      28.581  44.531  53.478  1.00  0.00    -0.327 N 
HETATM   15  H   UNL     1      28.073  45.407  53.396  1.00  0.00     0.169 HD
HETATM   16  O   UNL     1      29.052  42.617  52.242  1.00  0.00    -0.272 OA
BRANCH  14  17
HETATM   17  C   UNL     1      29.370  44.386  54.634  1.00  0.00     0.035 A 
HETATM   18  C   UNL     1      29.255  45.190  55.768  1.00  0.00     0.045 A 
HETATM   19  C   UNL     1      30.082  44.973  56.887  1.00  0.00     0.050 A 
HETATM   20  C   UNL     1      31.019  43.928  56.857  1.00  0.00     0.016 A 
HETATM   21  C   UNL     1      31.138  43.124  55.729  1.00  0.00     0.003 A 
HETATM   22  C   UNL     1      30.322  43.357  54.622  1.00  0.00     0.029 A 
BRANCH  19  23
HETATM   23  C   UNL     1      29.965  45.834  58.121  1.00  0.00     0.417 C 
HETATM   24  F   UNL     1      28.797  46.527  58.204  1.00  0.00    -0.166 F 
HETATM   25  F   UNL     1      30.052  45.106  59.269  1.00  0.00    -0.166 F 
HETATM   26  F   UNL     1      30.957  46.766  58.200  1.00  0.00    -0.166 F 
ENDBRANCH  19  23
ENDBRANCH  14  17
ENDBRANCH  12  13
ENDBRANCH  11  12
ENDBRANCH   4  11
BRANCH   8  27
HETATM   27  C   UNL     1      25.399  47.882  49.604  1.00  0.00    -0.042 A 
HETATM   28  C   UNL     1      26.702  47.360  49.651  1.00  0.00     0.027 A 
HETATM   29  C   UNL     1      27.743  48.101  49.115  1.00  0.00     0.116 A 
HETATM   30  N   UNL     1      27.587  49.316  48.554  1.00  0.00    -0.273 NA
HETATM   31  C   UNL     1      26.328  49.804  48.513  1.00  0.00     0.116 A 
HETATM   32  C   UNL     1      25.219  49.139  49.018  1.00  0.00     0.027 A 
ENDBRANCH   8  27
BRANCH   9  33
HETATM   33  C   UNL     1      22.428  47.570  48.459  1.00  0.00     0.255 C 
HETATM   34  N   UNL     1      21.652  48.340  49.298  1.00  0.00    -0.323 N 
HETATM   35  H   UNL     1      21.718  48.160  50.290  1.00  0.00     0.169 HD
HETATM   36  O   UNL     1      22.537  47.705  47.246  1.00  0.00    -0.268 OA
BRANCH  34  37
HETATM   37  C   UNL     1      20.743  49.354  48.919  1.00  0.00     0.035 A 
HETATM   38  C   UNL     1      19.486  49.111  48.360  1.00  0.00     0.029 A 
HETATM   39  C   UNL     1      18.641  50.173  48.019  1.00  0.00     0.002 A 
HETATM   40  C   UNL     1      19.040  51.487  48.241  1.00  0.00     0.000 A 
HETATM   41  C   UNL     1      20.290  51.742  48.799  1.00  0.00     0.002 A 
HETATM   42  C   UNL     1      21.139  50.681  49.132  1.00  0.00     0.029 A 
ENDBRANCH  34  37
ENDBRANCH   9  33
TORSDOF 8
ENDMDL
MODEL 3
REMARK VINA RESULT:     -10.3      5.397     10.339
REMARK  8 active torsions:
REMARK  status: ('A' for Active; 'I' for Inactive)
REMARK    1  A    between atoms: C_4  and  S_5 
REMARK    2  A    between atoms: S_5  and  C_6 
REMARK    3  A    between atoms: C_6  and  C_7 
REMARK       I    between atoms: C_7  and  N_8 
REMARK    4  A    between atoms: N_8  and  C_9 
REMARK    5  A    between atoms: C_11  and  C_12 
REMARK    6  A    between atoms: C_23  and  C_24 
REMARK    7  A    between atoms: C_30  and  C_31 
REMARK       I    between atoms: C_31  and  N_32 
REMARK    8  A    between atoms: N_32  and  C_33 
ROOT
HETATM    1  C   UNL     1      26.080  46.420  50.251  1.00  0.00     0.069 C 
HETATM    2  C   UNL     1      25.415  45.108  49.924  1.00  0.00     0.019 C 
HETATM    3  N   UNL     1      24.710  45.073  48.730  1.00  0.00    -0.353 N 
HETATM    4  C   UNL     1      23.946  44.012  48.269  1.00  0.00     0.087 C 
HETATM    5  C   UNL     1      23.955  42.859  48.975  1.00  0.00     0.055 C 
HETATM    6  C   UNL     1      23.044  41.676  48.691  1.00  0.00     0.019 C 
HETATM    7  N   UNL     1      22.288  40.694  48.456  1.00  0.00    -0.096 N 
HETATM    8  C   UNL     1      24.961  42.660  50.113  1.00  0.00     0.104 C 
HETATM    9  C   UNL     1      25.516  43.977  50.661  1.00  0.00     0.046 C 
HETATM   10  H   UNL     1      24.707  45.902  48.140  1.00  0.00     0.166 HD
ENDROOT
BRANCH   4  11
HETATM   11  S   UNL     1      23.218  44.133  46.687  1.00  0.00    -0.102 SA
BRANCH  11  12
HETATM   12  C   UNL     1      21.546  44.785  46.976  1.00  0.00     0.184 C 
BRANCH  12  13
HETATM   13  C   UNL     1      21.517  46.313  46.824  1.00  0.00     0.231 C 
HETATM   14  N   UNL     1      21.876  47.005  47.968  1.00  0.00    -0.327 N 
HETATM   15  H   UNL     1      22.034  46.422  48.786  1.00  0.00     0.169 HD
HETATM   16  O   UNL     1      21.235  46.818  45.739  1.00  0.00    -0.272 OA
BRANCH  14  17
HETATM   17  C   UNL     1      21.938  48.393  48.184  1.00  0.00     0.035 A 
HETATM   18  C   UNL     1      20.827  49.198  48.437  1.00  0.00     0.045 A 
HETATM   19  C   UNL     1      20.976  50.582  48.648  1.00  0.00     0.050 A 
HETATM   20  C   UNL     1      22.261  51.147  48.615  1.00  0.00     0.016 A 
HETATM   21  C   UNL     1      23.373  50.349  48.362  1.00  0.00     0.003 A 
HETATM   22  C   UNL     1      23.209  48.982  48.142  1.00  0.00     0.029 A 
BRANCH  19  23
HETATM   23  C   UNL     1      19.783  51.462  48.926  1.00  0.00     0.417 C 
HETATM   24  F   UNL     1      19.845  52.684  48.332  1.00  0.00    -0.166 F 
HETATM   25  F   UNL     1      18.617  50.898  48.503  1.00  0.00    -0.166 F 
HETATM   26  F   UNL     1      19.613  51.704  50.257  1.00  0.00    -0.166 F 
ENDBRANCH  19  23
ENDBRANCH  14  17
ENDBRANCH  12  13
ENDBRANCH  11  12
ENDBRANCH   4  11
BRANCH   8  27
HETATM   27  C   UNL     1      26.076  41.733  49.599  1.00  0.00    -0.042 A 
HETATM   28  C   UNL     1      26.767  42.004  48.407  1.00  0.00     0.027 A 
HETATM   29  C   UNL     1      27.730  41.108  47.970  1.00  0.00     0.116 A 
HETATM   30  N   UNL     1      28.043  39.968  48.616  1.00  0.00    -0.273 NA
HETATM   31  C   UNL     1      27.372  39.723  49.763  1.00  0.00     0.116 A 
HETATM   32  C   UNL     1      26.395  40.556  50.286  1.00  0.00     0.027 A 
ENDBRANCH   8  27
BRANCH   9  33
HETATM   33  C   UNL     1      26.197  43.854  51.990  1.00  0.00     0.255 C 
HETATM   34  N   UNL     1      27.566  44.005  51.944  1.00  0.00    -0.323 N 
HETATM   35  H   UNL     1      27.986  44.184  51.042  1.00  0.00     0.169 HD
HETATM   36  O   UNL     1      25.518  43.718  53.000  1.00  0.00    -0.268 OA
BRANCH  34  37
HETATM   37  C   UNL     1      28.467  43.916  53.030  1.00  0.00     0.035 A 
HETATM   38  C   UNL     1      28.401  44.721  54.171  1.00  0.00     0.029 A 
HETATM   39  C   UNL     1      29.328  44.563  55.207  1.00  0.00     0.002 A 
HETATM   40  C   UNL     1      30.322  43.595  55.118  1.00  0.00     0.000 A 
HETATM   41  C   UNL     1      30.398  42.786  53.988  1.00  0.00     0.002 A 
HETATM   42  C   UNL     1      29.478  42.949  52.947  1.00  0.00     0.029 A 
ENDBRANCH  34  37
ENDBRANCH   9  33
TORSDOF 8
ENDMDL
MODEL 4
REMARK VINA RESULT:      -9.9      2.360      4.467
REMARK  8 active torsions:
REMARK  status: ('A' for Active; 'I' for Inactive)
REMARK    1  A    between atoms: C_4  and  S_5 
REMARK    2  A    between atoms: S_5  and  C_6 
REMARK    3  A    between atoms: C_6  and  C_7 
REMARK       I    between atoms: C_7  and  N_8 
REMARK    4  A    between atoms: N_8  and  C_9 
REMARK    5  A    between atoms: C_11  and  C_12 
REMARK    6  A    between atoms: C_23  and  C_24 
REMARK    7  A    between atoms: C_30  and  C_31 
REMARK       I    between atoms: C_31  and  N_32 
REMARK    8  A    between atoms: N_32  and  C_33 
ROOT
HETATM    1  C   UNL     1      24.005  47.584  50.323  1.00  0.00     0.069 C 
HETATM    2  C   UNL     1      23.572  46.733  49.158  1.00  0.00     0.019 C 
HETATM    3  N   UNL     1      23.989  45.410  49.191  1.00  0.00    -0.353 N 
HETATM    4  C   UNL     1      23.790  44.472  48.191  1.00  0.00     0.087 C 
HETATM    5  C   UNL     1      23.035  44.819  47.124  1.00  0.00     0.055 C 
HETATM    6  C   UNL     1      22.870  43.962  45.879  1.00  0.00     0.019 C 
HETATM    7  N   UNL     1      22.734  43.251  44.846  1.00  0.00    -0.096 N 
HETATM    8  C   UNL     1      22.236  46.125  47.137  1.00  0.00     0.104 C 
HETATM    9  C   UNL     1      22.767  47.143  48.150  1.00  0.00     0.046 C 
HETATM   10  H   UNL     1      24.524  45.087  49.994  1.00  0.00     0.166 HD
ENDROOT
BRANCH   4  11
HETATM   11  S   UNL     1      24.308  42.828  48.473  1.00  0.00    -0.102 SA
BRANCH  11  12
HETATM   12  C   UNL     1      24.366  42.647  50.281  1.00  0.00     0.184 C 
BRANCH  12  13
HETATM   13  C   UNL     1      25.638  43.285  50.859  1.00  0.00     0.231 C 
HETATM   14  N   UNL     1      25.639  43.405  52.238  1.00  0.00    -0.327 N 
HETATM   15  H   UNL     1      24.770  43.134  52.689  1.00  0.00     0.169 HD
HETATM   16  O   UNL     1      26.563  43.599  50.111  1.00  0.00    -0.272 OA
BRANCH  14  17
HETATM   17  C   UNL     1      26.621  43.954  53.081  1.00  0.00     0.035 A 
HETATM   18  C   UNL     1      27.838  43.338  53.373  1.00  0.00     0.045 A 
HETATM   19  C   UNL     1      28.772  43.959  54.225  1.00  0.00     0.050 A 
HETATM   20  C   UNL     1      28.472  45.218  54.770  1.00  0.00     0.016 A 
HETATM   21  C   UNL     1      27.260  45.837  54.483  1.00  0.00     0.003 A 
HETATM   22  C   UNL     1      26.339  45.204  53.648  1.00  0.00     0.029 A 
BRANCH  19  23
HETATM   23  C   UNL     1      30.092  43.303  54.545  1.00  0.00     0.417 C 
HETATM   24  F   UNL     1      30.729  42.782  53.462  1.00  0.00    -0.166 F 
HETATM   25  F   UNL     1      30.974  44.171  55.117  1.00  0.00    -0.166 F 
HETATM   26  F   UNL     1      29.960  42.275  55.430  1.00  0.00    -0.166 F 
ENDBRANCH  19  23
ENDBRANCH  14  17
ENDBRANCH  12  13
ENDBRANCH  11  12
ENDBRANCH   4  11
BRANCH   8  27
HETATM   27  C   UNL     1      20.761  45.771  47.394  1.00  0.00    -0.042 A 
HETATM   28  C   UNL     1      20.320  45.315  48.647  1.00  0.00     0.027 A 
HETATM   29  C   UNL     1      18.989  44.968  48.806  1.00  0.00     0.116 A 
HETATM   30  N   UNL     1      18.075  45.026  47.818  1.00  0.00    -0.273 NA
HETATM   31  C   UNL     1      18.512  45.469  46.619  1.00  0.00     0.116 A 
HETATM   32  C   UNL     1      19.822  45.844  46.359  1.00  0.00     0.027 A 
ENDBRANCH   8  27
BRANCH   9  33
HETATM   33  C   UNL     1      22.266  48.540  47.940  1.00  0.00     0.255 C 
HETATM   34  N   UNL     1      21.040  48.797  48.514  1.00  0.00    -0.323 N 
HETATM   35  H   UNL     1      20.592  48.043  49.017  1.00  0.00     0.169 HD
HETATM   36  O   UNL     1      22.984  49.354  47.371  1.00  0.00    -0.268 OA
BRANCH  34  37
HETATM   37  C   UNL     1      20.315  50.010  48.459  1.00  0.00     0.035 A 
HETATM   38  C   UNL     1      19.752  50.534  47.293  1.00  0.00     0.029 A 
HETATM   39  C   UNL     1      19.041  51.739  47.325  1.00  0.00     0.002 A 
HETATM   40  C   UNL     1      18.880  52.427  48.522  1.00  0.00     0.000 A 
HETATM   41  C   UNL     1      19.436  51.915  49.692  1.00  0.00     0.002 A 
HETATM   42  C   UNL     1      20.154  50.715  49.660  1.00  0.00     0.029 A 
ENDBRANCH  34  37
ENDBRANCH   9  33
TORSDOF 8
ENDMDL
MODEL 5
REMARK VINA RESULT:      -9.8      4.743      9.933
REMARK  8 active torsions:
REMARK  status: ('A' for Active; 'I' for Inactive)
REMARK    1  A    between atoms: C_4  and  S_5 
REMARK    2  A    between atoms: S_5  and  C_6 
REMARK    3  A    between atoms: C_6  and  C_7 
REMARK       I    between atoms: C_7  and  N_8 
REMARK    4  A    between atoms: N_8  and  C_9 
REMARK    5  A    between atoms: C_11  and  C_12 
REMARK    6  A    between atoms: C_23  and  C_24 
REMARK    7  A    between atoms: C_30  and  C_31 
REMARK       I    between atoms: C_31  and  N_32 
REMARK    8  A    between atoms: N_32  and  C_33 
ROOT
HETATM    1  C   UNL     1      25.635  46.272  49.929  1.00  0.00     0.069 C 
HETATM    2  C   UNL     1      25.030  44.933  49.601  1.00  0.00     0.019 C 
HETATM    3  N   UNL     1      24.402  44.843  48.367  1.00  0.00    -0.353 N 
HETATM    4  C   UNL     1      23.699  43.746  47.892  1.00  0.00     0.087 C 
HETATM    5  C   UNL     1      23.699  42.613  48.631  1.00  0.00     0.055 C 
HETATM    6  C   UNL     1      22.842  41.395  48.326  1.00  0.00     0.019 C 
HETATM    7  N   UNL     1      22.131  40.384  48.074  1.00  0.00    -0.096 N 
HETATM    8  C   UNL     1      24.638  42.477  49.834  1.00  0.00     0.104 C 
HETATM    9  C   UNL     1      25.119  43.826  50.375  1.00  0.00     0.046 C 
HETATM   10  H   UNL     1      24.411  45.655  47.755  1.00  0.00     0.166 HD
ENDROOT
BRANCH   4  11
HETATM   11  S   UNL     1      23.067  43.801  46.265  1.00  0.00    -0.102 SA
BRANCH  11  12
HETATM   12  C   UNL     1      21.264  43.933  46.456  1.00  0.00     0.184 C 
BRANCH  12  13
HETATM   13  C   UNL     1      20.888  45.156  47.305  1.00  0.00     0.231 C 
HETATM   14  N   UNL     1      21.209  46.372  46.725  1.00  0.00    -0.327 N 
HETATM   15  H   UNL     1      21.724  46.304  45.852  1.00  0.00     0.169 HD
HETATM   16  O   UNL     1      20.310  45.005  48.380  1.00  0.00    -0.272 OA
BRANCH  14  17
HETATM   17  C   UNL     1      21.025  47.672  47.229  1.00  0.00     0.035 A 
HETATM   18  C   UNL     1      22.008  48.399  47.902  1.00  0.00     0.045 A 
HETATM   19  C   UNL     1      21.744  49.700  48.370  1.00  0.00     0.050 A 
HETATM   20  C   UNL     1      20.481  50.269  48.141  1.00  0.00     0.016 A 
HETATM   21  C   UNL     1      19.497  49.549  47.471  1.00  0.00     0.003 A 
HETATM   22  C   UNL     1      19.768  48.256  47.024  1.00  0.00     0.029 A 
BRANCH  19  23
HETATM   23  C   UNL     1      22.799  50.496  49.097  1.00  0.00     0.417 C 
HETATM   24  F   UNL     1      23.969  49.826  49.283  1.00  0.00    -0.166 F 
HETATM   25  F   UNL     1      23.125  51.643  48.438  1.00  0.00    -0.166 F 
HETATM   26  F   UNL     1      22.393  50.887  50.338  1.00  0.00    -0.166 F 
ENDBRANCH  19  23
ENDBRANCH  14  17
ENDBRANCH  12  13
ENDBRANCH  11  12
ENDBRANCH   4  11
BRANCH   8  27
HETATM   27  C   UNL     1      25.809  41.571  49.415  1.00  0.00    -0.042 A 
HETATM   28  C   UNL     1      26.142  40.416  50.142  1.00  0.00     0.027 A 
HETATM   29  C   UNL     1      27.236  39.664  49.744  1.00  0.00     0.116 A 
HETATM   30  N   UNL     1      28.023  39.980  48.697  1.00  0.00    -0.273 NA
HETATM   31  C   UNL     1      27.688  41.091  48.006  1.00  0.00     0.116 A 
HETATM   32  C   UNL     1      26.612  41.909  48.320  1.00  0.00     0.027 A 
ENDBRANCH   8  27
BRANCH   9  33
HETATM   33  C   UNL     1      25.721  43.761  51.746  1.00  0.00     0.255 C 
HETATM   34  N   UNL     1      27.098  43.802  51.766  1.00  0.00    -0.323 N 
HETATM   35  H   UNL     1      27.576  43.873  50.878  1.00  0.00     0.169 HD
HETATM   36  O   UNL     1      24.983  43.761  52.724  1.00  0.00    -0.268 OA
BRANCH  34  37
HETATM   37  C   UNL     1      27.932  43.733  52.905  1.00  0.00     0.035 A 
HETATM   38  C   UNL     1      28.714  42.624  53.238  1.00  0.00     0.029 A 
HETATM   39  C   UNL     1      29.521  42.639  54.382  1.00  0.00     0.002 A 
HETATM   40  C   UNL     1      29.560  43.764  55.198  1.00  0.00     0.000 A 
HETATM   41  C   UNL     1      28.786  44.876  54.876  1.00  0.00     0.002 A 
HETATM   42  C   UNL     1      27.972  44.859  53.739  1.00  0.00     0.029 A 
ENDBRANCH  34  37
ENDBRANCH   9  33
TORSDOF 8
ENDMDL
MODEL 6
REMARK VINA RESULT:      -9.4      5.280     10.565
REMARK  8 active torsions:
REMARK  status: ('A' for Active; 'I' for Inactive)
REMARK    1  A    between atoms: C_4  and  S_5 
REMARK    2  A    between atoms: S_5  and  C_6 
REMARK    3  A    between atoms: C_6  and  C_7 
REMARK       I    between atoms: C_7  and  N_8 
REMARK    4  A    between atoms: N_8  and  C_9 
REMARK    5  A    between atoms: C_11  and  C_12 
REMARK    6  A    between atoms: C_23  and  C_24 
REMARK    7  A    between atoms: C_30  and  C_31 
REMARK       I    between atoms: C_31  and  N_32 
REMARK    8  A    between atoms: N_32  and  C_33 
ROOT
HETATM    1  C   UNL     1      25.481  46.148  49.721  1.00  0.00     0.069 C 
HETATM    2  C   UNL     1      24.909  44.796  49.384  1.00  0.00     0.019 C 
HETATM    3  N   UNL     1      24.269  44.702  48.157  1.00  0.00    -0.353 N 
HETATM    4  C   UNL     1      23.591  43.593  47.678  1.00  0.00     0.087 C 
HETATM    5  C   UNL     1      23.631  42.452  48.403  1.00  0.00     0.055 C 
HETATM    6  C   UNL     1      22.804  41.214  48.094  1.00  0.00     0.019 C 
HETATM    7  N   UNL     1      22.118  40.187  47.839  1.00  0.00    -0.096 N 
HETATM    8  C   UNL     1      24.587  42.328  49.593  1.00  0.00     0.104 C 
HETATM    9  C   UNL     1      25.038  43.683  50.145  1.00  0.00     0.046 C 
HETATM   10  H   UNL     1      24.248  45.522  47.554  1.00  0.00     0.166 HD
ENDROOT
BRANCH   4  11
HETATM   11  S   UNL     1      22.938  43.648  46.059  1.00  0.00    -0.102 SA
BRANCH  11  12
HETATM   12  C   UNL     1      21.213  44.187  46.256  1.00  0.00     0.184 C 
BRANCH  12  13
HETATM   13  C   UNL     1      21.135  45.694  46.542  1.00  0.00     0.231 C 
HETATM   14  N   UNL     1      19.900  46.123  46.996  1.00  0.00    -0.327 N 
HETATM   15  H   UNL     1      19.178  45.408  47.006  1.00  0.00     0.169 HD
HETATM   16  O   UNL     1      22.133  46.398  46.404  1.00  0.00    -0.272 OA
BRANCH  14  17
HETATM   17  C   UNL     1      19.480  47.423  47.331  1.00  0.00     0.035 A 
HETATM   18  C   UNL     1      19.359  47.897  48.637  1.00  0.00     0.045 A 
HETATM   19  C   UNL     1      18.937  49.217  48.885  1.00  0.00     0.050 A 
HETATM   20  C   UNL     1      18.649  50.062  47.801  1.00  0.00     0.016 A 
HETATM   21  C   UNL     1      18.766  49.594  46.496  1.00  0.00     0.003 A 
HETATM   22  C   UNL     1      19.173  48.280  46.265  1.00  0.00     0.029 A 
BRANCH  19  23
HETATM   23  C   UNL     1      18.806  49.742  50.294  1.00  0.00     0.417 C 
HETATM   24  F   UNL     1      17.832  50.680  50.447  1.00  0.00    -0.166 F 
HETATM   25  F   UNL     1      18.519  48.754  51.188  1.00  0.00    -0.166 F 
HETATM   26  F   UNL     1      19.955  50.322  50.742  1.00  0.00    -0.166 F 
ENDBRANCH  19  23
ENDBRANCH  14  17
ENDBRANCH  12  13
ENDBRANCH  11  12
ENDBRANCH   4  11
BRANCH   8  27
HETATM   27  C   UNL     1      25.777  41.459  49.151  1.00  0.00    -0.042 A 
HETATM   28  C   UNL     1      26.560  41.797  48.034  1.00  0.00     0.027 A 
HETATM   29  C   UNL     1      27.591  40.952  47.656  1.00  0.00     0.116 A 
HETATM   30  N   UNL     1      27.890  39.802  48.291  1.00  0.00    -0.273 NA
HETATM   31  C   UNL     1      27.131  39.492  49.364  1.00  0.00     0.116 A 
HETATM   32  C   UNL     1      26.079  40.271  49.825  1.00  0.00     0.027 A 
ENDBRANCH   8  27
BRANCH   9  33
HETATM   33  C   UNL     1      25.657  43.619  51.508  1.00  0.00     0.255 C 
HETATM   34  N   UNL     1      27.034  43.691  51.511  1.00  0.00    -0.323 N 
HETATM   35  H   UNL     1      27.499  43.782  50.619  1.00  0.00     0.169 HD
HETATM   36  O   UNL     1      24.931  43.593  52.494  1.00  0.00    -0.268 OA
BRANCH  34  37
HETATM   37  C   UNL     1      27.883  43.631  52.640  1.00  0.00     0.035 A 
HETATM   38  C   UNL     1      28.764  42.579  52.903  1.00  0.00     0.029 A 
HETATM   39  C   UNL     1      29.578  42.599  54.040  1.00  0.00     0.002 A 
HETATM   40  C   UNL     1      29.526  43.674  54.921  1.00  0.00     0.000 A 
HETATM   41  C   UNL     1      28.653  44.729  54.670  1.00  0.00     0.002 A 
HETATM   42  C   UNL     1      27.832  44.706  53.538  1.00  0.00     0.029 A 
ENDBRANCH  34  37
ENDBRANCH   9  33
TORSDOF 8
ENDMDL
MODEL 7
REMARK VINA RESULT:      -9.2     13.375     17.806
REMARK  8 active torsions:
REMARK  status: ('A' for Active; 'I' for Inactive)
REMARK    1  A    between atoms: C_4  and  S_5 
REMARK    2  A    between atoms: S_5  and  C_6 
REMARK    3  A    between atoms: C_6  and  C_7 
REMARK       I    between atoms: C_7  and  N_8 
REMARK    4  A    between atoms: N_8  and  C_9 
REMARK    5  A    between atoms: C_11  and  C_12 
REMARK    6  A    between atoms: C_23  and  C_24 
REMARK    7  A    between atoms: C_30  and  C_31 
REMARK       I    between atoms: C_31  and  N_32 
REMARK    8  A    between atoms: N_32  and  C_33 
ROOT
HETATM    1  C   UNL     1      39.288  48.942  44.352  1.00  0.00     0.069 C 
HETATM    2  C   UNL     1      38.896  50.301  43.835  1.00  0.00     0.019 C 
HETATM    3  N   UNL     1      37.584  50.426  43.402  1.00  0.00    -0.353 N 
HETATM    4  C   UNL     1      37.029  51.547  42.806  1.00  0.00     0.087 C 
HETATM    5  C   UNL     1      37.780  52.669  42.721  1.00  0.00     0.055 C 
HETATM    6  C   UNL     1      37.372  53.913  41.949  1.00  0.00     0.019 C 
HETATM    7  N   UNL     1      37.034  54.946  41.309  1.00  0.00    -0.096 N 
HETATM    8  C   UNL     1      39.112  52.763  43.471  1.00  0.00     0.104 C 
HETATM    9  C   UNL     1      39.696  51.394  43.832  1.00  0.00     0.046 C 
HETATM   10  H   UNL     1      36.965  49.622  43.484  1.00  0.00     0.166 HD
ENDROOT
BRANCH   4  11
HETATM   11  S   UNL     1      35.325  51.532  42.425  1.00  0.00    -0.102 SA
BRANCH  11  12
HETATM   12  C   UNL     1      34.485  52.006  43.966  1.00  0.00     0.184 C 
BRANCH  12  13
HETATM   13  C   UNL     1      33.001  51.611  43.929  1.00  0.00     0.231 C 
HETATM   14  N   UNL     1      32.582  51.089  42.717  1.00  0.00    -0.327 N 
HETATM   15  H   UNL     1      33.282  51.109  41.980  1.00  0.00     0.169 HD
HETATM   16  O   UNL     1      32.308  51.728  44.937  1.00  0.00    -0.272 OA
BRANCH  14  17
HETATM   17  C   UNL     1      31.302  50.650  42.334  1.00  0.00     0.035 A 
HETATM   18  C   UNL     1      30.345  51.460  41.723  1.00  0.00     0.045 A 
HETATM   19  C   UNL     1      29.086  50.939  41.365  1.00  0.00     0.050 A 
HETATM   20  C   UNL     1      28.806  49.587  41.618  1.00  0.00     0.016 A 
HETATM   21  C   UNL     1      29.756  48.775  42.228  1.00  0.00     0.003 A 
HETATM   22  C   UNL     1      30.994  49.307  42.588  1.00  0.00     0.029 A 
BRANCH  19  23
HETATM   23  C   UNL     1      28.044  51.805  40.701  1.00  0.00     0.417 C 
HETATM   24  F   UNL     1      28.548  52.671  39.780  1.00  0.00    -0.166 F 
HETATM   25  F   UNL     1      27.102  51.069  40.048  1.00  0.00    -0.166 F 
HETATM   26  F   UNL     1      27.359  52.572  41.596  1.00  0.00    -0.166 F 
ENDBRANCH  19  23
ENDBRANCH  14  17
ENDBRANCH  12  13
ENDBRANCH  11  12
ENDBRANCH   4  11
BRANCH   8  27
HETATM   27  C   UNL     1      38.892  53.643  44.713  1.00  0.00    -0.042 A 
HETATM   28  C   UNL     1      39.322  54.980  44.753  1.00  0.00     0.027 A 
HETATM   29  C   UNL     1      39.137  55.710  45.916  1.00  0.00     0.116 A 
HETATM   30  N   UNL     1      38.574  55.212  47.034  1.00  0.00    -0.273 NA
HETATM   31  C   UNL     1      38.162  53.927  46.979  1.00  0.00     0.116 A 
HETATM   32  C   UNL     1      38.298  53.113  45.863  1.00  0.00     0.027 A 
ENDBRANCH   8  27
BRANCH   9  33
HETATM   33  C   UNL     1      41.142  51.424  44.222  1.00  0.00     0.255 C 
HETATM   34  N   UNL     1      41.372  51.267  45.571  1.00  0.00    -0.323 N 
HETATM   35  H   UNL     1      40.568  51.145  46.171  1.00  0.00     0.169 HD
HETATM   36  O   UNL     1      41.996  51.498  43.346  1.00  0.00    -0.268 OA
BRANCH  34  37
HETATM   37  C   UNL     1      42.626  51.278  46.225  1.00  0.00     0.035 A 
HETATM   38  C   UNL     1      43.157  52.390  46.883  1.00  0.00     0.029 A 
HETATM   39  C   UNL     1      44.404  52.316  47.514  1.00  0.00     0.002 A 
HETATM   40  C   UNL     1      45.127  51.128  47.500  1.00  0.00     0.000 A 
HETATM   41  C   UNL     1      44.608  50.012  46.849  1.00  0.00     0.002 A 
HETATM   42  C   UNL     1      43.366  50.088  46.211  1.00  0.00     0.029 A 
ENDBRANCH  34  37
ENDBRANCH   9  33
TORSDOF 8
ENDMDL
MODEL 8
REMARK VINA RESULT:      -9.1      3.431      5.500
REMARK  8 active torsions:
REMARK  status: ('A' for Active; 'I' for Inactive)
REMARK    1  A    between atoms: C_4  and  S_5 
REMARK    2  A    between atoms: S_5  and  C_6 
REMARK    3  A    between atoms: C_6  and  C_7 
REMARK       I    between atoms: C_7  and  N_8 
REMARK    4  A    between atoms: N_8  and  C_9 
REMARK    5  A    between atoms: C_11  and  C_12 
REMARK    6  A    between atoms: C_23  and  C_24 
REMARK    7  A    between atoms: C_30  and  C_31 
REMARK       I    between atoms: C_31  and  N_32 
REMARK    8  A    between atoms: N_32  and  C_33 
ROOT
HETATM    1  C   UNL     1      23.732  46.757  49.782  1.00  0.00     0.069 C 
HETATM    2  C   UNL     1      23.154  46.217  48.501  1.00  0.00     0.019 C 
HETATM    3  N   UNL     1      23.440  44.888  48.224  1.00  0.00    -0.353 N 
HETATM    4  C   UNL     1      23.096  44.207  47.068  1.00  0.00     0.087 C 
HETATM    5  C   UNL     1      22.322  44.839  46.156  1.00  0.00     0.055 C 
HETATM    6  C   UNL     1      22.007  44.287  44.775  1.00  0.00     0.019 C 
HETATM    7  N   UNL     1      21.745  43.830  43.629  1.00  0.00    -0.096 N 
HETATM    8  C   UNL     1      21.657  46.174  46.502  1.00  0.00     0.104 C 
HETATM    9  C   UNL     1      22.340  46.902  47.663  1.00  0.00     0.046 C 
HETATM   10  H   UNL     1      23.984  44.356  48.900  1.00  0.00     0.166 HD
ENDROOT
BRANCH   4  11
HETATM   11  S   UNL     1      23.464  42.504  46.960  1.00  0.00    -0.102 SA
BRANCH  11  12
HETATM   12  C   UNL     1      22.929  41.796  48.547  1.00  0.00     0.184 C 
BRANCH  12  13
HETATM   13  C   UNL     1      23.762  42.356  49.710  1.00  0.00     0.231 C 
HETATM   14  N   UNL     1      25.130  42.235  49.538  1.00  0.00    -0.327 N 
HETATM   15  H   UNL     1      25.411  41.720  48.709  1.00  0.00     0.169 HD
HETATM   16  O   UNL     1      23.203  42.897  50.662  1.00  0.00    -0.272 OA
BRANCH  14  17
HETATM   17  C   UNL     1      26.171  42.619  50.403  1.00  0.00     0.035 A 
HETATM   18  C   UNL     1      26.813  41.755  51.290  1.00  0.00     0.045 A 
HETATM   19  C   UNL     1      27.852  42.220  52.119  1.00  0.00     0.050 A 
HETATM   20  C   UNL     1      28.248  43.564  52.036  1.00  0.00     0.016 A 
HETATM   21  C   UNL     1      27.610  44.431  51.154  1.00  0.00     0.003 A 
HETATM   22  C   UNL     1      26.574  43.961  50.347  1.00  0.00     0.029 A 
BRANCH  19  23
HETATM   23  C   UNL     1      28.555  41.294  53.080  1.00  0.00     0.417 C 
HETATM   24  F   UNL     1      29.484  41.909  53.863  1.00  0.00    -0.166 F 
HETATM   25  F   UNL     1      27.689  40.683  53.936  1.00  0.00    -0.166 F 
HETATM   26  F   UNL     1      29.215  40.286  52.442  1.00  0.00    -0.166 F 
ENDBRANCH  19  23
ENDBRANCH  14  17
ENDBRANCH  12  13
ENDBRANCH  11  12
ENDBRANCH   4  11
BRANCH   8  27
HETATM   27  C   UNL     1      20.171  45.899  46.787  1.00  0.00    -0.042 A 
HETATM   28  C   UNL     1      19.759  45.184  47.923  1.00  0.00     0.027 A 
HETATM   29  C   UNL     1      18.410  44.927  48.104  1.00  0.00     0.116 A 
HETATM   30  N   UNL     1      17.451  45.313  47.240  1.00  0.00    -0.273 NA
HETATM   31  C   UNL     1      17.861  46.003  46.154  1.00  0.00     0.116 A 
HETATM   32  C   UNL     1      19.186  46.314  45.884  1.00  0.00     0.027 A 
ENDBRANCH   8  27
BRANCH   9  33
HETATM   33  C   UNL     1      21.969  48.348  47.788  1.00  0.00     0.255 C 
HETATM   34  N   UNL     1      20.731  48.571  48.351  1.00  0.00    -0.323 N 
HETATM   35  H   UNL     1      20.191  47.763  48.628  1.00  0.00     0.169 HD
HETATM   36  O   UNL     1      22.786  49.205  47.476  1.00  0.00    -0.268 OA
BRANCH  34  37
HETATM   37  C   UNL     1      20.112  49.823  48.569  1.00  0.00     0.035 A 
HETATM   38  C   UNL     1      20.113  50.496  49.795  1.00  0.00     0.029 A 
HETATM   39  C   UNL     1      19.482  51.738  49.926  1.00  0.00     0.002 A 
HETATM   40  C   UNL     1      18.852  52.324  48.833  1.00  0.00     0.000 A 
HETATM   41  C   UNL     1      18.845  51.665  47.606  1.00  0.00     0.002 A 
HETATM   42  C   UNL     1      19.467  50.419  47.476  1.00  0.00     0.029 A 
ENDBRANCH  34  37
ENDBRANCH   9  33
TORSDOF 8
ENDMDL
MODEL 9
REMARK VINA RESULT:      -9.0      3.623      5.791
REMARK  8 active torsions:
REMARK  status: ('A' for Active; 'I' for Inactive)
REMARK    1  A    between atoms: C_4  and  S_5 
REMARK    2  A    between atoms: S_5  and  C_6 
REMARK    3  A    between atoms: C_6  and  C_7 
REMARK       I    between atoms: C_7  and  N_8 
REMARK    4  A    between atoms: N_8  and  C_9 
REMARK    5  A    between atoms: C_11  and  C_12 
REMARK    6  A    between atoms: C_23  and  C_24 
REMARK    7  A    between atoms: C_30  and  C_31 
REMARK       I    between atoms: C_31  and  N_32 
REMARK    8  A    between atoms: N_32  and  C_33 
ROOT
HETATM    1  C   UNL     1      19.335  48.655  49.945  1.00  0.00     0.069 C 
HETATM    2  C   UNL     1      19.926  47.852  48.816  1.00  0.00     0.019 C 
HETATM    3  N   UNL     1      20.662  46.738  49.191  1.00  0.00    -0.353 N 
HETATM    4  C   UNL     1      21.372  45.909  48.337  1.00  0.00     0.087 C 
HETATM    5  C   UNL     1      21.269  46.118  47.004  1.00  0.00     0.055 C 
HETATM    6  C   UNL     1      22.113  45.405  45.960  1.00  0.00     0.019 C 
HETATM    7  N   UNL     1      22.813  44.814  45.093  1.00  0.00    -0.096 N 
HETATM    8  C   UNL     1      20.220  47.090  46.456  1.00  0.00     0.104 C 
HETATM    9  C   UNL     1      19.733  48.099  47.499  1.00  0.00     0.046 C 
HETATM   10  H   UNL     1      20.735  46.511  50.180  1.00  0.00     0.166 HD
ENDROOT
BRANCH   4  11
HETATM   11  S   UNL     1      22.152  44.495  49.002  1.00  0.00    -0.102 SA
BRANCH  11  12
HETATM   12  C   UNL     1      23.913  44.931  49.121  1.00  0.00     0.184 C 
BRANCH  12  13
HETATM   13  C   UNL     1      24.484  44.548  50.495  1.00  0.00     0.231 C 
HETATM   14  N   UNL     1      25.713  45.119  50.779  1.00  0.00    -0.327 N 
HETATM   15  H   UNL     1      26.122  45.651  50.016  1.00  0.00     0.169 HD
HETATM   16  O   UNL     1      23.834  43.830  51.252  1.00  0.00    -0.272 OA
BRANCH  14  17
HETATM   17  C   UNL     1      26.519  44.969  51.922  1.00  0.00     0.035 A 
HETATM   18  C   UNL     1      27.536  44.022  52.046  1.00  0.00     0.045 A 
HETATM   19  C   UNL     1      28.302  43.942  53.225  1.00  0.00     0.050 A 
HETATM   20  C   UNL     1      28.041  44.837  54.275  1.00  0.00     0.016 A 
HETATM   21  C   UNL     1      27.027  45.782  54.157  1.00  0.00     0.003 A 
HETATM   22  C   UNL     1      26.268  45.842  52.989  1.00  0.00     0.029 A 
BRANCH  19  23
HETATM   23  C   UNL     1      29.406  42.924  53.370  1.00  0.00     0.417 C 
HETATM   24  F   UNL     1      30.482  43.156  52.570  1.00  0.00    -0.166 F 
HETATM   25  F   UNL     1      29.890  42.866  54.642  1.00  0.00    -0.166 F 
HETATM   26  F   UNL     1      28.989  41.660  53.076  1.00  0.00    -0.166 F 
ENDBRANCH  19  23
ENDBRANCH  14  17
ENDBRANCH  12  13
ENDBRANCH  11  12
ENDBRANCH   4  11
BRANCH   8  27
HETATM   27  C   UNL     1      19.065  46.256  45.875  1.00  0.00    -0.042 A 
HETATM   28  C   UNL     1      18.595  46.460  44.567  1.00  0.00     0.027 A 
HETATM   29  C   UNL     1      17.521  45.710  44.114  1.00  0.00     0.116 A 
HETATM   30  N   UNL     1      16.880  44.791  44.862  1.00  0.00    -0.273 NA
HETATM   31  C   UNL     1      17.345  44.603  46.116  1.00  0.00     0.116 A 
HETATM   32  C   UNL     1      18.414  45.300  46.662  1.00  0.00     0.027 A 
ENDBRANCH   8  27
BRANCH   9  33
HETATM   33  C   UNL     1      19.006  49.277  46.925  1.00  0.00     0.255 C 
HETATM   34  N   UNL     1      17.633  49.198  47.015  1.00  0.00    -0.323 N 
HETATM   35  H   UNL     1      17.240  48.375  47.451  1.00  0.00     0.169 HD
HETATM   36  O   UNL     1      19.649  50.232  46.508  1.00  0.00    -0.268 OA
BRANCH  34  37
HETATM   37  C   UNL     1      16.696  50.143  46.539  1.00  0.00     0.035 A 
HETATM   38  C   UNL     1      16.088  50.081  45.282  1.00  0.00     0.029 A 
HETATM   39  C   UNL     1      15.163  51.054  44.889  1.00  0.00     0.002 A 
HETATM   40  C   UNL     1      14.830  52.094  45.750  1.00  0.00     0.000 A 
HETATM   41  C   UNL     1      15.427  52.167  47.006  1.00  0.00     0.002 A 
HETATM   42  C   UNL     1      16.359  51.199  47.396  1.00  0.00     0.029 A 
ENDBRANCH  34  37
ENDBRANCH   9  33
TORSDOF 8
ENDMDL
MODEL 10
REMARK VINA RESULT:      -8.8     10.713     13.888
REMARK  8 active torsions:
REMARK  status: ('A' for Active; 'I' for Inactive)
REMARK    1  A    between atoms: C_4  and  S_5 
REMARK    2  A    between atoms: S_5  and  C_6 
REMARK    3  A    between atoms: C_6  and  C_7 
REMARK       I    between atoms: C_7  and  N_8 
REMARK    4  A    between atoms: N_8  and  C_9 
REMARK    5  A    between atoms: C_11  and  C_12 
REMARK    6  A    between atoms: C_23  and  C_24 
REMARK    7  A    between atoms: C_30  and  C_31 
REMARK       I    between atoms: C_31  and  N_32 
REMARK    8  A    between atoms: N_32  and  C_33 
ROOT
HETATM    1  C   UNL     1      14.505  52.547  45.229  1.00  0.00     0.069 C 
HETATM    2  C   UNL     1      15.748  52.163  45.988  1.00  0.00     0.019 C 
HETATM    3  N   UNL     1      15.752  52.483  47.338  1.00  0.00    -0.353 N 
HETATM    4  C   UNL     1      16.816  52.312  48.209  1.00  0.00     0.087 C 
HETATM    5  C   UNL     1      17.924  51.682  47.756  1.00  0.00     0.055 C 
HETATM    6  C   UNL     1      19.223  51.573  48.537  1.00  0.00     0.019 C 
HETATM    7  N   UNL     1      20.302  51.481  49.184  1.00  0.00    -0.096 N 
HETATM    8  C   UNL     1      17.908  50.977  46.396  1.00  0.00     0.104 C 
HETATM    9  C   UNL     1      16.799  51.484  45.471  1.00  0.00     0.046 C 
HETATM   10  H   UNL     1      14.925  52.920  47.738  1.00  0.00     0.166 HD
ENDROOT
BRANCH   4  11
HETATM   11  S   UNL     1      16.580  52.687  49.899  1.00  0.00    -0.102 SA
BRANCH  11  12
HETATM   12  C   UNL     1      14.779  52.676  50.146  1.00  0.00     0.184 C 
BRANCH  12  13
HETATM   13  C   UNL     1      14.302  53.990  50.783  1.00  0.00     0.231 C 
HETATM   14  N   UNL     1      15.286  54.959  50.891  1.00  0.00    -0.327 N 
HETATM   15  H   UNL     1      16.215  54.655  50.613  1.00  0.00     0.169 HD
HETATM   16  O   UNL     1      13.124  54.126  51.105  1.00  0.00    -0.272 OA
BRANCH  14  17
HETATM   17  C   UNL     1      15.202  56.253  51.435  1.00  0.00     0.035 A 
HETATM   18  C   UNL     1      15.469  56.562  52.769  1.00  0.00     0.045 A 
HETATM   19  C   UNL     1      15.366  57.887  53.233  1.00  0.00     0.050 A 
HETATM   20  C   UNL     1      15.004  58.904  52.334  1.00  0.00     0.016 A 
HETATM   21  C   UNL     1      14.736  58.601  51.003  1.00  0.00     0.003 A 
HETATM   22  C   UNL     1      14.828  57.282  50.560  1.00  0.00     0.029 A 
BRANCH  19  23
HETATM   23  C   UNL     1      15.655  58.234  54.672  1.00  0.00     0.417 C 
HETATM   24  F   UNL     1      16.934  57.973  55.059  1.00  0.00    -0.166 F 
HETATM   25  F   UNL     1      15.446  59.554  54.938  1.00  0.00    -0.166 F 
HETATM   26  F   UNL     1      14.858  57.552  55.542  1.00  0.00    -0.166 F 
ENDBRANCH  19  23
ENDBRANCH  14  17
ENDBRANCH  12  13
ENDBRANCH  11  12
ENDBRANCH   4  11
BRANCH   8  27
HETATM   27  C   UNL     1      17.801  49.464  46.653  1.00  0.00    -0.042 A 
HETATM   28  C   UNL     1      18.822  48.579  46.271  1.00  0.00     0.027 A 
HETATM   29  C   UNL     1      18.650  47.221  46.486  1.00  0.00     0.116 A 
HETATM   30  N   UNL     1      17.543  46.683  47.035  1.00  0.00    -0.273 NA
HETATM   31  C   UNL     1      16.571  47.547  47.400  1.00  0.00     0.116 A 
HETATM   32  C   UNL     1      16.648  48.922  47.231  1.00  0.00     0.027 A 
ENDBRANCH   8  27
BRANCH   9  33
HETATM   33  C   UNL     1      16.974  51.102  44.032  1.00  0.00     0.255 C 
HETATM   34  N   UNL     1      17.836  51.915  43.328  1.00  0.00    -0.323 N 
HETATM   35  H   UNL     1      18.270  52.679  43.828  1.00  0.00     0.169 HD
HETATM   36  O   UNL     1      16.430  50.088  43.612  1.00  0.00    -0.268 OA
BRANCH  34  37
HETATM   37  C   UNL     1      18.171  51.811  41.959  1.00  0.00     0.035 A 
HETATM   38  C   UNL     1      17.385  52.314  40.919  1.00  0.00     0.029 A 
HETATM   39  C   UNL     1      17.793  52.177  39.587  1.00  0.00     0.002 A 
HETATM   40  C   UNL     1      18.993  51.544  39.283  1.00  0.00     0.000 A 
HETATM   41  C   UNL     1      19.787  51.040  40.310  1.00  0.00     0.002 A 
HETATM   42  C   UNL     1      19.375  51.168  41.641  1.00  0.00     0.029 A 
ENDBRANCH  34  37
ENDBRANCH   9  33
TORSDOF 8
ENDMDL
