MODEL 1
REMARK VINA RESULT:      -9.3      0.000      0.000
REMARK  6 active torsions:
REMARK  status: ('A' for Active; 'I' for Inactive)
REMARK    1  A    between atoms: C_2  and  C_3 
REMARK    2  A    between atoms: C_7  and  C_8 
REMARK       I    between atoms: C_8  and  N_9 
REMARK    3  A    between atoms: N_9  and  C_10 
REMARK    4  A    between atoms: C_10  and  C_11 
REMARK    5  A    between atoms: C_11  and  N_12 
REMARK    6  A    between atoms: C_15  and  C_16 
ROOT
HETATM    1  C   UNL     1      25.265  44.411  52.362  1.00  0.00     0.150 C 
ENDROOT
BRANCH   1   2
HETATM    2  N   UNL     1      25.081  45.656  51.660  1.00  0.00    -0.354 N 
HETATM    3  C   UNL     1      24.376  45.734  50.473  1.00  0.00     0.272 C 
HETATM    4  O   UNL     1      23.731  44.780  50.044  1.00  0.00    -0.266 OA
HETATM    5  H   UNL     1      25.674  46.471  51.835  1.00  0.00     0.162 HD
BRANCH   3   6
HETATM    6  C   UNL     1      24.487  47.050  49.821  1.00  0.00     0.152 A 
HETATM    7  N   UNL     1      25.650  47.732  49.885  1.00  0.00    -0.169 NA
HETATM    8  N   UNL     1      25.411  48.857  49.195  1.00  0.00    -0.281 N 
HETATM    9  C   UNL     1      24.142  48.937  48.695  1.00  0.00     0.036 A 
HETATM   10  H   UNL     1      26.159  49.539  49.101  1.00  0.00     0.189 HD
HETATM   11  C   UNL     1      23.503  47.773  49.082  1.00  0.00    -0.002 A 
HETATM   12  C   UNL     1      22.103  47.378  48.778  1.00  0.00     0.053 C 
BRANCH   9  13
HETATM   13  C   UNL     1      23.682  50.113  47.903  1.00  0.00     0.055 C 
HETATM   14  C   UNL     1      22.978  51.137  48.780  1.00  0.00     0.011 C 
ENDBRANCH   9  13
ENDBRANCH   3   6
ENDBRANCH   1   2
BRANCH   1  15
HETATM   15  C   UNL     1      26.511  43.634  51.892  1.00  0.00     0.254 C 
BRANCH  15  16
HETATM   16  N   UNL     1      27.099  42.795  53.014  1.00  0.00    -0.069 N 
HETATM   17  H   UNL     1      26.403  42.083  53.276  1.00  0.00     0.280 HD
HETATM   18  C   UNL     1      27.497  43.583  54.245  1.00  0.00     0.244 C 
HETATM   19  C   UNL     1      28.926  44.056  53.959  1.00  0.00     0.046 C 
HETATM   20  C   UNL     1      29.488  43.074  52.922  1.00  0.00     0.039 C 
HETATM   21  C   UNL     1      28.374  42.087  52.622  1.00  0.00     0.235 C 
BRANCH  19  22
HETATM   22  C   UNL     1      29.743  44.197  55.227  1.00  0.00    -0.046 A 
HETATM   23  C   UNL     1      29.614  45.322  56.072  1.00  0.00    -0.055 A 
HETATM   24  C   UNL     1      28.694  46.473  55.759  1.00  0.00     0.049 C 
HETATM   25  C   UNL     1      30.377  45.391  57.251  1.00  0.00     0.007 A 
HETATM   26  C   UNL     1      31.253  44.366  57.602  1.00  0.00     0.001 A 
HETATM   27  C   UNL     1      31.383  43.257  56.778  1.00  0.00     0.001 A 
HETATM   28  C   UNL     1      30.638  43.172  55.602  1.00  0.00     0.008 A 
ENDBRANCH  19  22
ENDBRANCH  15  16
ENDBRANCH   1  15
TORSDOF 6
ENDMDL
MODEL 2
REMARK VINA RESULT:      -9.0      2.099      3.102
REMARK  6 active torsions:
REMARK  status: ('A' for Active; 'I' for Inactive)
REMARK    1  A    between atoms: C_2  and  C_3 
REMARK    2  A    between atoms: C_7  and  C_8 
REMARK       I    between atoms: C_8  and  N_9 
REMARK    3  A    between atoms: N_9  and  C_10 
REMARK    4  A    between atoms: C_10  and  C_11 
REMARK    5  A    between atoms: C_11  and  N_12 
REMARK    6  A    between atoms: C_15  and  C_16 
ROOT
HETATM    1  C   UNL     1      25.339  47.065  51.376  1.00  0.00     0.150 C 
ENDROOT
BRANCH   1   2
HETATM    2  N   UNL     1      24.169  47.431  50.617  1.00  0.00    -0.354 N 
HETATM    3  C   UNL     1      24.245  48.215  49.481  1.00  0.00     0.272 C 
HETATM    4  O   UNL     1      25.324  48.500  48.967  1.00  0.00    -0.266 OA
HETATM    5  H   UNL     1      23.228  47.377  51.012  1.00  0.00     0.162 HD
BRANCH   3   6
HETATM    6  C   UNL     1      22.926  48.641  48.984  1.00  0.00     0.152 A 
HETATM    7  N   UNL     1      21.917  47.745  48.914  1.00  0.00    -0.169 NA
HETATM    8  N   UNL     1      20.881  48.453  48.439  1.00  0.00    -0.281 N 
HETATM    9  C   UNL     1      21.177  49.763  48.190  1.00  0.00     0.036 A 
HETATM   10  H   UNL     1      19.992  47.981  48.303  1.00  0.00     0.189 HD
HETATM   11  C   UNL     1      22.507  49.929  48.535  1.00  0.00    -0.002 A 
HETATM   12  C   UNL     1      23.302  51.181  48.454  1.00  0.00     0.053 C 
BRANCH   9  13
HETATM   13  C   UNL     1      20.158  50.711  47.655  1.00  0.00     0.055 C 
HETATM   14  C   UNL     1      19.791  51.773  48.680  1.00  0.00     0.011 C 
ENDBRANCH   9  13
ENDBRANCH   3   6
ENDBRANCH   1   2
BRANCH   1  15
HETATM   15  C   UNL     1      25.208  45.689  52.059  1.00  0.00     0.254 C 
BRANCH  15  16
HETATM   16  N   UNL     1      25.556  45.767  53.536  1.00  0.00    -0.069 N 
HETATM   17  H   UNL     1      25.007  46.531  53.952  1.00  0.00     0.280 HD
HETATM   18  C   UNL     1      27.027  45.991  53.824  1.00  0.00     0.244 C 
HETATM   19  C   UNL     1      27.639  44.587  53.835  1.00  0.00     0.046 C 
HETATM   20  C   UNL     1      26.482  43.631  54.153  1.00  0.00     0.039 C 
HETATM   21  C   UNL     1      25.241  44.495  54.289  1.00  0.00     0.235 C 
BRANCH  19  22
HETATM   22  C   UNL     1      28.829  44.494  54.768  1.00  0.00    -0.046 A 
HETATM   23  C   UNL     1      29.859  43.547  54.565  1.00  0.00    -0.055 A 
HETATM   24  C   UNL     1      29.831  42.544  53.442  1.00  0.00     0.049 C 
HETATM   25  C   UNL     1      30.955  43.520  55.445  1.00  0.00     0.007 A 
HETATM   26  C   UNL     1      31.045  44.414  56.509  1.00  0.00     0.001 A 
HETATM   27  C   UNL     1      30.039  45.348  56.713  1.00  0.00     0.001 A 
HETATM   28  C   UNL     1      28.942  45.388  55.853  1.00  0.00     0.008 A 
ENDBRANCH  19  22
ENDBRANCH  15  16
ENDBRANCH   1  15
TORSDOF 6
ENDMDL
MODEL 3
REMARK VINA RESULT:      -8.8      1.587      2.008
REMARK  6 active torsions:
REMARK  status: ('A' for Active; 'I' for Inactive)
REMARK    1  A    between atoms: C_2  and  C_3 
REMARK    2  A    between atoms: C_7  and  C_8 
REMARK       I    between atoms: C_8  and  N_9 
REMARK    3  A    between atoms: N_9  and  C_10 
REMARK    4  A    between atoms: C_10  and  C_11 
REMARK    5  A    between atoms: C_11  and  N_12 
REMARK    6  A    between atoms: C_15  and  C_16 
ROOT
HETATM    1  C   UNL     1      24.467  44.321  50.689  1.00  0.00     0.150 C 
ENDROOT
BRANCH   1   2
HETATM    2  N   UNL     1      23.785  45.407  50.030  1.00  0.00    -0.354 N 
HETATM    3  C   UNL     1      24.451  46.539  49.596  1.00  0.00     0.272 C 
HETATM    4  O   UNL     1      25.679  46.604  49.600  1.00  0.00    -0.266 OA
HETATM    5  H   UNL     1      22.773  45.532  50.095  1.00  0.00     0.162 HD
BRANCH   3   6
HETATM    6  C   UNL     1      23.543  47.606  49.144  1.00  0.00     0.152 A 
HETATM    7  N   UNL     1      22.217  47.366  49.064  1.00  0.00    -0.169 NA
HETATM    8  N   UNL     1      21.697  48.526  48.637  1.00  0.00    -0.281 N 
HETATM    9  C   UNL     1      22.629  49.503  48.429  1.00  0.00     0.036 A 
HETATM   10  H   UNL     1      20.692  48.589  48.504  1.00  0.00     0.189 HD
HETATM   11  C   UNL     1      23.852  48.943  48.750  1.00  0.00    -0.002 A 
HETATM   12  C   UNL     1      25.181  49.605  48.696  1.00  0.00     0.053 C 
BRANCH   9  13
HETATM   13  C   UNL     1      22.248  50.863  47.950  1.00  0.00     0.055 C 
HETATM   14  C   UNL     1      20.912  51.304  48.527  1.00  0.00     0.011 C 
ENDBRANCH   9  13
ENDBRANCH   3   6
ENDBRANCH   1   2
BRANCH   1  15
HETATM   15  C   UNL     1      24.705  44.582  52.189  1.00  0.00     0.254 C 
BRANCH  15  16
HETATM   16  N   UNL     1      25.608  43.525  52.801  1.00  0.00    -0.069 N 
HETATM   17  H   UNL     1      25.026  42.709  53.036  1.00  0.00     0.280 HD
HETATM   18  C   UNL     1      26.360  43.978  54.036  1.00  0.00     0.244 C 
HETATM   19  C   UNL     1      27.632  44.638  53.496  1.00  0.00     0.046 C 
HETATM   20  C   UNL     1      27.856  44.031  52.104  1.00  0.00     0.039 C 
HETATM   21  C   UNL     1      26.706  43.069  51.869  1.00  0.00     0.235 C 
BRANCH  19  22
HETATM   22  C   UNL     1      28.796  44.499  54.457  1.00  0.00    -0.046 A 
HETATM   23  C   UNL     1      29.124  45.519  55.378  1.00  0.00    -0.055 A 
HETATM   24  C   UNL     1      28.374  46.824  55.447  1.00  0.00     0.049 C 
HETATM   25  C   UNL     1      30.197  45.328  56.266  1.00  0.00     0.007 A 
HETATM   26  C   UNL     1      30.938  44.149  56.256  1.00  0.00     0.001 A 
HETATM   27  C   UNL     1      30.621  43.143  55.355  1.00  0.00     0.001 A 
HETATM   28  C   UNL     1      29.562  43.314  54.464  1.00  0.00     0.008 A 
ENDBRANCH  19  22
ENDBRANCH  15  16
ENDBRANCH   1  15
TORSDOF 6
ENDMDL
MODEL 4
REMARK VINA RESULT:      -8.8      2.234      3.499
REMARK  6 active torsions:
REMARK  status: ('A' for Active; 'I' for Inactive)
REMARK    1  A    between atoms: C_2  and  C_3 
REMARK    2  A    between atoms: C_7  and  C_8 
REMARK       I    between atoms: C_8  and  N_9 
REMARK    3  A    between atoms: N_9  and  C_10 
REMARK    4  A    between atoms: C_10  and  C_11 
REMARK    5  A    between atoms: C_11  and  N_12 
REMARK    6  A    between atoms: C_15  and  C_16 
ROOT
HETATM    1  C   UNL     1      24.483  45.552  49.930  1.00  0.00     0.150 C 
ENDROOT
BRANCH   1   2
HETATM    2  N   UNL     1      23.479  46.469  49.452  1.00  0.00    -0.354 N 
HETATM    3  C   UNL     1      23.650  47.840  49.502  1.00  0.00     0.272 C 
HETATM    4  O   UNL     1      24.731  48.343  49.801  1.00  0.00    -0.266 OA
HETATM    5  H   UNL     1      22.506  46.185  49.317  1.00  0.00     0.162 HD
BRANCH   3   6
HETATM    6  C   UNL     1      22.428  48.587  49.160  1.00  0.00     0.152 A 
HETATM    7  N   UNL     1      21.255  47.931  49.037  1.00  0.00    -0.169 NA
HETATM    8  N   UNL     1      20.369  48.892  48.736  1.00  0.00    -0.281 N 
HETATM    9  C   UNL     1      20.918  50.140  48.650  1.00  0.00     0.036 A 
HETATM   10  H   UNL     1      19.397  48.632  48.599  1.00  0.00     0.189 HD
HETATM   11  C   UNL     1      22.266  49.986  48.922  1.00  0.00    -0.002 A 
HETATM   12  C   UNL     1      23.299  51.053  48.960  1.00  0.00     0.053 C 
BRANCH   9  13
HETATM   13  C   UNL     1      20.097  51.339  48.322  1.00  0.00     0.055 C 
HETATM   14  C   UNL     1      19.311  51.826  49.530  1.00  0.00     0.011 C 
ENDBRANCH   9  13
ENDBRANCH   3   6
ENDBRANCH   1   2
BRANCH   1  15
HETATM   15  C   UNL     1      24.610  45.547  51.467  1.00  0.00     0.254 C 
BRANCH  15  16
HETATM   16  N   UNL     1      25.893  46.220  51.921  1.00  0.00    -0.069 N 
HETATM   17  H   UNL     1      26.194  46.865  51.178  1.00  0.00     0.280 HD
HETATM   18  C   UNL     1      27.024  45.264  52.244  1.00  0.00     0.244 C 
HETATM   19  C   UNL     1      26.802  44.879  53.709  1.00  0.00     0.046 C 
HETATM   20  C   UNL     1      25.980  46.022  54.319  1.00  0.00     0.039 C 
HETATM   21  C   UNL     1      25.730  47.013  53.197  1.00  0.00     0.235 C 
BRANCH  19  22
HETATM   22  C   UNL     1      28.104  44.569  54.419  1.00  0.00    -0.046 A 
HETATM   23  C   UNL     1      28.714  43.296  54.329  1.00  0.00    -0.055 A 
HETATM   24  C   UNL     1      28.100  42.154  53.563  1.00  0.00     0.049 C 
HETATM   25  C   UNL     1      29.936  43.068  54.986  1.00  0.00     0.007 A 
HETATM   26  C   UNL     1      30.558  44.077  55.718  1.00  0.00     0.001 A 
HETATM   27  C   UNL     1      29.967  45.329  55.808  1.00  0.00     0.001 A 
HETATM   28  C   UNL     1      28.752  45.574  55.167  1.00  0.00     0.008 A 
ENDBRANCH  19  22
ENDBRANCH  15  16
ENDBRANCH   1  15
TORSDOF 6
ENDMDL
MODEL 5
REMARK VINA RESULT:      -8.7      2.849      5.389
REMARK  6 active torsions:
REMARK  status: ('A' for Active; 'I' for Inactive)
REMARK    1  A    between atoms: C_2  and  C_3 
REMARK    2  A    between atoms: C_7  and  C_8 
REMARK       I    between atoms: C_8  and  N_9 
REMARK    3  A    between atoms: N_9  and  C_10 
REMARK    4  A    between atoms: C_10  and  C_11 
REMARK    5  A    between atoms: C_11  and  N_12 
REMARK    6  A    between atoms: C_15  and  C_16 
ROOT
HETATM    1  C   UNL     1      25.016  45.805  51.827  1.00  0.00     0.150 C 
ENDROOT
BRANCH   1   2
HETATM    2  N   UNL     1      25.577  44.830  50.925  1.00  0.00    -0.354 N 
HETATM    3  C   UNL     1      25.234  43.492  50.982  1.00  0.00     0.272 C 
HETATM    4  O   UNL     1      24.310  43.094  51.690  1.00  0.00    -0.266 OA
HETATM    5  H   UNL     1      26.438  45.007  50.403  1.00  0.00     0.162 HD
BRANCH   3   6
HETATM    6  C   UNL     1      26.073  42.643  50.120  1.00  0.00     0.152 A 
HETATM    7  N   UNL     1      25.948  42.724  48.778  1.00  0.00    -0.169 NA
HETATM    8  N   UNL     1      26.845  41.843  48.310  1.00  0.00    -0.281 N 
HETATM    9  C   UNL     1      27.538  41.190  49.290  1.00  0.00     0.036 A 
HETATM   10  H   UNL     1      26.939  41.731  47.305  1.00  0.00     0.189 HD
HETATM   11  C   UNL     1      27.063  41.684  50.492  1.00  0.00    -0.002 A 
HETATM   12  C   UNL     1      27.505  41.296  51.856  1.00  0.00     0.053 C 
BRANCH   9  13
HETATM   13  C   UNL     1      28.577  40.169  48.971  1.00  0.00     0.055 C 
HETATM   14  C   UNL     1      28.073  38.758  49.236  1.00  0.00     0.011 C 
ENDBRANCH   9  13
ENDBRANCH   3   6
ENDBRANCH   1   2
BRANCH   1  15
HETATM   15  C   UNL     1      26.082  46.708  52.477  1.00  0.00     0.254 C 
BRANCH  15  16
HETATM   16  N   UNL     1      26.158  46.485  53.978  1.00  0.00    -0.069 N 
HETATM   17  H   UNL     1      25.512  47.147  54.430  1.00  0.00     0.280 HD
HETATM   18  C   UNL     1      27.543  46.653  54.570  1.00  0.00     0.244 C 
HETATM   19  C   UNL     1      28.202  45.279  54.414  1.00  0.00     0.046 C 
HETATM   20  C   UNL     1      27.047  44.273  54.317  1.00  0.00     0.039 C 
HETATM   21  C   UNL     1      25.767  45.086  54.393  1.00  0.00     0.235 C 
BRANCH  19  22
HETATM   22  C   UNL     1      29.209  45.004  55.512  1.00  0.00    -0.046 A 
HETATM   23  C   UNL     1      30.182  43.986  55.388  1.00  0.00    -0.055 A 
HETATM   24  C   UNL     1      30.264  43.082  54.186  1.00  0.00     0.049 C 
HETATM   25  C   UNL     1      31.111  43.790  56.426  1.00  0.00     0.007 A 
HETATM   26  C   UNL     1      31.091  44.585  57.569  1.00  0.00     0.001 A 
HETATM   27  C   UNL     1      30.140  45.587  57.696  1.00  0.00     0.001 A 
HETATM   28  C   UNL     1      29.208  45.795  56.680  1.00  0.00     0.008 A 
ENDBRANCH  19  22
ENDBRANCH  15  16
ENDBRANCH   1  15
TORSDOF 6
ENDMDL
MODEL 6
REMARK VINA RESULT:      -8.6      1.542      1.800
REMARK  6 active torsions:
REMARK  status: ('A' for Active; 'I' for Inactive)
REMARK    1  A    between atoms: C_2  and  C_3 
REMARK    2  A    between atoms: C_7  and  C_8 
REMARK       I    between atoms: C_8  and  N_9 
REMARK    3  A    between atoms: N_9  and  C_10 
REMARK    4  A    between atoms: C_10  and  C_11 
REMARK    5  A    between atoms: C_11  and  N_12 
REMARK    6  A    between atoms: C_15  and  C_16 
ROOT
HETATM    1  C   UNL     1      26.903  44.735  52.115  1.00  0.00     0.150 C 
ENDROOT
BRANCH   1   2
HETATM    2  N   UNL     1      26.118  45.432  51.128  1.00  0.00    -0.354 N 
HETATM    3  C   UNL     1      25.319  46.513  51.452  1.00  0.00     0.272 C 
HETATM    4  O   UNL     1      25.366  47.038  52.563  1.00  0.00    -0.266 OA
HETATM    5  H   UNL     1      25.889  45.015  50.223  1.00  0.00     0.162 HD
BRANCH   3   6
HETATM    6  C   UNL     1      24.448  46.942  50.345  1.00  0.00     0.152 A 
HETATM    7  N   UNL     1      24.429  48.239  49.974  1.00  0.00    -0.169 NA
HETATM    8  N   UNL     1      23.557  48.278  48.955  1.00  0.00    -0.281 N 
HETATM    9  C   UNL     1      23.005  47.064  48.657  1.00  0.00     0.036 A 
HETATM   10  H   UNL     1      23.378  49.169  48.501  1.00  0.00     0.189 HD
HETATM   11  C   UNL     1      23.562  46.160  49.544  1.00  0.00    -0.002 A 
HETATM   12  C   UNL     1      23.290  44.702  49.623  1.00  0.00     0.053 C 
BRANCH   9  13
HETATM   13  C   UNL     1      22.010  46.902  47.559  1.00  0.00     0.055 C 
HETATM   14  C   UNL     1      20.591  47.152  48.048  1.00  0.00     0.011 C 
ENDBRANCH   9  13
ENDBRANCH   3   6
ENDBRANCH   1   2
BRANCH   1  15
HETATM   15  C   UNL     1      26.978  43.216  51.861  1.00  0.00     0.254 C 
BRANCH  15  16
HETATM   16  N   UNL     1      27.509  42.475  53.076  1.00  0.00    -0.069 N 
HETATM   17  H   UNL     1      26.816  41.762  53.340  1.00  0.00     0.280 HD
HETATM   18  C   UNL     1      27.801  43.358  54.273  1.00  0.00     0.244 C 
HETATM   19  C   UNL     1      29.234  43.853  54.050  1.00  0.00     0.046 C 
HETATM   20  C   UNL     1      29.891  42.820  53.125  1.00  0.00     0.039 C 
HETATM   21  C   UNL     1      28.827  41.781  52.821  1.00  0.00     0.235 C 
BRANCH  19  22
HETATM   22  C   UNL     1      29.958  44.105  55.356  1.00  0.00    -0.046 A 
HETATM   23  C   UNL     1      29.762  45.294  56.096  1.00  0.00    -0.055 A 
HETATM   24  C   UNL     1      28.860  46.405  55.626  1.00  0.00     0.049 C 
HETATM   25  C   UNL     1      30.439  45.467  57.317  1.00  0.00     0.007 A 
HETATM   26  C   UNL     1      31.293  44.484  57.810  1.00  0.00     0.001 A 
HETATM   27  C   UNL     1      31.488  43.314  57.091  1.00  0.00     0.001 A 
HETATM   28  C   UNL     1      30.829  43.125  55.876  1.00  0.00     0.008 A 
ENDBRANCH  19  22
ENDBRANCH  15  16
ENDBRANCH   1  15
TORSDOF 6
ENDMDL
MODEL 7
REMARK VINA RESULT:      -8.6      1.203      1.835
REMARK  6 active torsions:
REMARK  status: ('A' for Active; 'I' for Inactive)
REMARK    1  A    between atoms: C_2  and  C_3 
REMARK    2  A    between atoms: C_7  and  C_8 
REMARK       I    between atoms: C_8  and  N_9 
REMARK    3  A    between atoms: N_9  and  C_10 
REMARK    4  A    between atoms: C_10  and  C_11 
REMARK    5  A    between atoms: C_11  and  N_12 
REMARK    6  A    between atoms: C_15  and  C_16 
ROOT
HETATM    1  C   UNL     1      26.499  44.088  50.358  1.00  0.00     0.150 C 
ENDROOT
BRANCH   1   2
HETATM    2  N   UNL     1      26.341  45.442  49.889  1.00  0.00    -0.354 N 
HETATM    3  C   UNL     1      25.522  46.352  50.532  1.00  0.00     0.272 C 
HETATM    4  O   UNL     1      25.020  46.105  51.627  1.00  0.00    -0.266 OA
HETATM    5  H   UNL     1      26.586  45.719  48.936  1.00  0.00     0.162 HD
BRANCH   3   6
HETATM    6  C   UNL     1      25.342  47.602  49.776  1.00  0.00     0.152 A 
HETATM    7  N   UNL     1      26.387  48.440  49.609  1.00  0.00    -0.169 NA
HETATM    8  N   UNL     1      25.888  49.451  48.883  1.00  0.00    -0.281 N 
HETATM    9  C   UNL     1      24.563  49.309  48.580  1.00  0.00     0.036 A 
HETATM   10  H   UNL     1      26.505  50.216  48.625  1.00  0.00     0.189 HD
HETATM   11  C   UNL     1      24.166  48.110  49.145  1.00  0.00    -0.002 A 
HETATM   12  C   UNL     1      22.812  47.502  49.090  1.00  0.00     0.053 C 
BRANCH   9  13
HETATM   13  C   UNL     1      23.826  50.331  47.783  1.00  0.00     0.055 C 
HETATM   14  C   UNL     1      22.900  51.160  48.660  1.00  0.00     0.011 C 
ENDBRANCH   9  13
ENDBRANCH   3   6
ENDBRANCH   1   2
BRANCH   1  15
HETATM   15  C   UNL     1      27.654  43.931  51.367  1.00  0.00     0.254 C 
BRANCH  15  16
HETATM   16  N   UNL     1      27.139  43.877  52.795  1.00  0.00    -0.069 N 
HETATM   17  H   UNL     1      26.114  43.962  52.767  1.00  0.00     0.280 HD
HETATM   18  C   UNL     1      27.707  44.945  53.709  1.00  0.00     0.244 C 
HETATM   19  C   UNL     1      29.013  44.348  54.241  1.00  0.00     0.046 C 
HETATM   20  C   UNL     1      28.853  42.826  54.120  1.00  0.00     0.039 C 
HETATM   21  C   UNL     1      27.486  42.588  53.504  1.00  0.00     0.235 C 
BRANCH  19  22
HETATM   22  C   UNL     1      29.345  44.855  55.630  1.00  0.00    -0.046 A 
HETATM   23  C   UNL     1      30.497  44.419  56.323  1.00  0.00    -0.055 A 
HETATM   24  C   UNL     1      31.449  43.399  55.756  1.00  0.00     0.049 C 
HETATM   25  C   UNL     1      30.774  44.941  57.599  1.00  0.00     0.007 A 
HETATM   26  C   UNL     1      29.934  45.884  58.188  1.00  0.00     0.001 A 
HETATM   27  C   UNL     1      28.803  46.318  57.512  1.00  0.00     0.001 A 
HETATM   28  C   UNL     1      28.509  45.809  56.247  1.00  0.00     0.008 A 
ENDBRANCH  19  22
ENDBRANCH  15  16
ENDBRANCH   1  15
TORSDOF 6
ENDMDL
MODEL 8
REMARK VINA RESULT:      -8.5      1.967      2.859
REMARK  6 active torsions:
REMARK  status: ('A' for Active; 'I' for Inactive)
REMARK    1  A    between atoms: C_2  and  C_3 
REMARK    2  A    between atoms: C_7  and  C_8 
REMARK       I    between atoms: C_8  and  N_9 
REMARK    3  A    between atoms: N_9  and  C_10 
REMARK    4  A    between atoms: C_10  and  C_11 
REMARK    5  A    between atoms: C_11  and  N_12 
REMARK    6  A    between atoms: C_15  and  C_16 
ROOT
HETATM    1  C   UNL     1      26.031  46.566  51.027  1.00  0.00     0.150 C 
ENDROOT
BRANCH   1   2
HETATM    2  N   UNL     1      24.772  47.103  50.577  1.00  0.00    -0.354 N 
HETATM    3  C   UNL     1      24.697  48.121  49.644  1.00  0.00     0.272 C 
HETATM    4  O   UNL     1      25.690  48.503  49.028  1.00  0.00    -0.266 OA
HETATM    5  H   UNL     1      23.906  46.972  51.106  1.00  0.00     0.162 HD
BRANCH   3   6
HETATM    6  C   UNL     1      23.336  48.659  49.484  1.00  0.00     0.152 A 
HETATM    7  N   UNL     1      23.037  49.878  49.981  1.00  0.00    -0.169 NA
HETATM    8  N   UNL     1      21.747  50.058  49.659  1.00  0.00    -0.281 N 
HETATM    9  C   UNL     1      21.196  49.007  48.984  1.00  0.00     0.036 A 
HETATM   10  H   UNL     1      21.294  50.926  49.931  1.00  0.00     0.189 HD
HETATM   11  C   UNL     1      22.204  48.068  48.847  1.00  0.00    -0.002 A 
HETATM   12  C   UNL     1      22.109  46.746  48.176  1.00  0.00     0.053 C 
BRANCH   9  13
HETATM   13  C   UNL     1      19.773  49.015  48.542  1.00  0.00     0.055 C 
HETATM   14  C   UNL     1      19.647  49.379  47.070  1.00  0.00     0.011 C 
ENDBRANCH   9  13
ENDBRANCH   3   6
ENDBRANCH   1   2
BRANCH   1  15
HETATM   15  C   UNL     1      25.873  45.284  51.868  1.00  0.00     0.254 C 
BRANCH  15  16
HETATM   16  N   UNL     1      25.862  45.592  53.355  1.00  0.00    -0.069 N 
HETATM   17  H   UNL     1      25.158  46.324  53.522  1.00  0.00     0.280 HD
HETATM   18  C   UNL     1      27.197  46.041  53.914  1.00  0.00     0.244 C 
HETATM   19  C   UNL     1      27.926  44.742  54.270  1.00  0.00     0.046 C 
HETATM   20  C   UNL     1      26.827  43.691  54.474  1.00  0.00     0.039 C 
HETATM   21  C   UNL     1      25.509  44.395  54.208  1.00  0.00     0.235 C 
BRANCH  19  22
HETATM   22  C   UNL     1      28.872  44.924  55.440  1.00  0.00    -0.046 A 
HETATM   23  C   UNL     1      30.070  44.180  55.548  1.00  0.00    -0.055 A 
HETATM   24  C   UNL     1      30.470  43.134  54.542  1.00  0.00     0.049 C 
HETATM   25  C   UNL     1      30.926  44.407  56.640  1.00  0.00     0.007 A 
HETATM   26  C   UNL     1      30.616  45.355  57.612  1.00  0.00     0.001 A 
HETATM   27  C   UNL     1      29.444  46.090  57.511  1.00  0.00     0.001 A 
HETATM   28  C   UNL     1      28.580  45.878  56.437  1.00  0.00     0.008 A 
ENDBRANCH  19  22
ENDBRANCH  15  16
ENDBRANCH   1  15
TORSDOF 6
ENDMDL
MODEL 9
REMARK VINA RESULT:      -8.1      2.548     10.060
REMARK  6 active torsions:
REMARK  status: ('A' for Active; 'I' for Inactive)
REMARK    1  A    between atoms: C_2  and  C_3 
REMARK    2  A    between atoms: C_7  and  C_8 
REMARK       I    between atoms: C_8  and  N_9 
REMARK    3  A    between atoms: N_9  and  C_10 
REMARK    4  A    between atoms: C_10  and  C_11 
REMARK    5  A    between atoms: C_11  and  N_12 
REMARK    6  A    between atoms: C_15  and  C_16 
ROOT
HETATM    1  C   UNL     1      24.343  46.413  49.431  1.00  0.00     0.150 C 
ENDROOT
BRANCH   1   2
HETATM    2  N   UNL     1      25.442  45.783  50.119  1.00  0.00    -0.354 N 
HETATM    3  C   UNL     1      25.255  45.010  51.250  1.00  0.00     0.272 C 
HETATM    4  O   UNL     1      24.132  44.683  51.629  1.00  0.00    -0.266 OA
HETATM    5  H   UNL     1      26.409  46.087  49.990  1.00  0.00     0.162 HD
BRANCH   3   6
HETATM    6  C   UNL     1      26.517  44.638  51.911  1.00  0.00     0.152 A 
HETATM    7  N   UNL     1      27.451  43.944  51.225  1.00  0.00    -0.169 NA
HETATM    8  N   UNL     1      28.454  43.786  52.102  1.00  0.00    -0.281 N 
HETATM    9  C   UNL     1      28.206  44.337  53.327  1.00  0.00     0.036 A 
HETATM   10  H   UNL     1      29.287  43.287  51.804  1.00  0.00     0.189 HD
HETATM   11  C   UNL     1      26.948  44.907  53.245  1.00  0.00    -0.002 A 
HETATM   12  C   UNL     1      26.226  45.639  54.317  1.00  0.00     0.053 C 
BRANCH   9  13
HETATM   13  C   UNL     1      29.197  44.262  54.438  1.00  0.00     0.055 C 
HETATM   14  C   UNL     1      29.728  42.848  54.618  1.00  0.00     0.011 C 
ENDBRANCH   9  13
ENDBRANCH   3   6
ENDBRANCH   1   2
BRANCH   1  15
HETATM   15  C   UNL     1      24.096  47.863  49.892  1.00  0.00     0.254 C 
BRANCH  15  16
HETATM   16  N   UNL     1      23.449  48.693  48.796  1.00  0.00    -0.069 N 
HETATM   17  H   UNL     1      24.192  49.010  48.158  1.00  0.00     0.280 HD
HETATM   18  C   UNL     1      22.669  49.892  49.294  1.00  0.00     0.244 C 
HETATM   19  C   UNL     1      21.270  49.348  49.597  1.00  0.00     0.046 C 
HETATM   20  C   UNL     1      21.120  48.086  48.737  1.00  0.00     0.039 C 
HETATM   21  C   UNL     1      22.431  47.922  47.989  1.00  0.00     0.235 C 
BRANCH  19  22
HETATM   22  C   UNL     1      20.196  50.398  49.396  1.00  0.00    -0.046 A 
HETATM   23  C   UNL     1      18.995  50.384  50.142  1.00  0.00    -0.055 A 
HETATM   24  C   UNL     1      18.680  49.313  51.153  1.00  0.00     0.049 C 
HETATM   25  C   UNL     1      18.043  51.398  49.937  1.00  0.00     0.007 A 
HETATM   26  C   UNL     1      18.265  52.417  49.014  1.00  0.00     0.001 A 
HETATM   27  C   UNL     1      19.442  52.438  48.280  1.00  0.00     0.001 A 
HETATM   28  C   UNL     1      20.398  51.440  48.467  1.00  0.00     0.008 A 
ENDBRANCH  19  22
ENDBRANCH  15  16
ENDBRANCH   1  15
TORSDOF 6
ENDMDL
MODEL 10
REMARK VINA RESULT:      -8.1      2.112      9.046
REMARK  6 active torsions:
REMARK  status: ('A' for Active; 'I' for Inactive)
REMARK    1  A    between atoms: C_2  and  C_3 
REMARK    2  A    between atoms: C_7  and  C_8 
REMARK       I    between atoms: C_8  and  N_9 
REMARK    3  A    between atoms: N_9  and  C_10 
REMARK    4  A    between atoms: C_10  and  C_11 
REMARK    5  A    between atoms: C_11  and  N_12 
REMARK    6  A    between atoms: C_15  and  C_16 
ROOT
HETATM    1  C   UNL     1      25.078  45.141  53.722  1.00  0.00     0.150 C 
ENDROOT
BRANCH   1   2
HETATM    2  N   UNL     1      26.298  44.826  54.422  1.00  0.00    -0.354 N 
HETATM    3  C   UNL     1      27.355  45.715  54.494  1.00  0.00     0.272 C 
HETATM    4  O   UNL     1      27.246  46.878  54.110  1.00  0.00    -0.266 OA
HETATM    5  H   UNL     1      26.558  43.865  54.652  1.00  0.00     0.162 HD
BRANCH   3   6
HETATM    6  C   UNL     1      28.572  45.119  55.070  1.00  0.00     0.152 A 
HETATM    7  N   UNL     1      29.266  44.201  54.363  1.00  0.00    -0.169 NA
HETATM    8  N   UNL     1      30.297  43.882  55.160  1.00  0.00    -0.281 N 
HETATM    9  C   UNL     1      30.296  44.546  56.354  1.00  0.00     0.036 A 
HETATM   10  H   UNL     1      30.973  43.198  54.831  1.00  0.00     0.189 HD
HETATM   11  C   UNL     1      29.183  45.367  56.336  1.00  0.00    -0.002 A 
HETATM   12  C   UNL     1      28.743  46.300  57.405  1.00  0.00     0.053 C 
BRANCH   9  13
HETATM   13  C   UNL     1      31.357  44.324  57.377  1.00  0.00     0.055 C 
HETATM   14  C   UNL     1      32.062  42.992  57.171  1.00  0.00     0.011 C 
ENDBRANCH   9  13
ENDBRANCH   3   6
ENDBRANCH   1   2
BRANCH   1  15
HETATM   15  C   UNL     1      25.084  44.662  52.257  1.00  0.00     0.254 C 
BRANCH  15  16
HETATM   16  N   UNL     1      25.848  45.623  51.361  1.00  0.00    -0.069 N 
HETATM   17  H   UNL     1      26.783  45.761  51.769  1.00  0.00     0.280 HD
HETATM   18  C   UNL     1      25.180  46.969  51.169  1.00  0.00     0.244 C 
HETATM   19  C   UNL     1      24.220  46.764  49.994  1.00  0.00     0.046 C 
HETATM   20  C   UNL     1      24.780  45.573  49.204  1.00  0.00     0.039 C 
HETATM   21  C   UNL     1      26.019  45.111  49.950  1.00  0.00     0.235 C 
BRANCH  19  22
HETATM   22  C   UNL     1      24.021  48.034  49.193  1.00  0.00    -0.046 A 
HETATM   23  C   UNL     1      22.763  48.378  48.647  1.00  0.00    -0.055 A 
HETATM   24  C   UNL     1      21.549  47.497  48.784  1.00  0.00     0.049 C 
HETATM   25  C   UNL     1      22.626  49.583  47.935  1.00  0.00     0.007 A 
HETATM   26  C   UNL     1      23.707  50.444  47.764  1.00  0.00     0.001 A 
HETATM   27  C   UNL     1      24.944  50.114  48.299  1.00  0.00     0.001 A 
HETATM   28  C   UNL     1      25.101  48.921  49.005  1.00  0.00     0.008 A 
ENDBRANCH  19  22
ENDBRANCH  15  16
ENDBRANCH   1  15
TORSDOF 6
ENDMDL
