MODEL 1
REMARK VINA RESULT:      -8.7      0.000      0.000
REMARK  6 active torsions:
REMARK  status: ('A' for Active; 'I' for Inactive)
REMARK    1  A    between atoms: C_2  and  N_3 
REMARK    2  A    between atoms: N_3  and  C_5 
REMARK    3  A    between atoms: N_3  and  C_26 
REMARK    4  A    between atoms: C_5  and  C_6 
REMARK    5  A    between atoms: C_8  and  N_9 
REMARK       I    between atoms: N_9  and  C_10 
REMARK    6  A    between atoms: C_10  and  C_11 
ROOT
HETATM    1  N   UNL     1      25.080  46.647  50.494  1.00  0.00    -0.322 N 
HETATM    2  C   UNL     1      25.332  46.608  51.857  1.00  0.00     0.277 C 
HETATM    3  O   UNL     1      25.219  47.554  52.632  1.00  0.00    -0.266 OA
HETATM    4  H   UNL     1      25.226  45.749  50.034  1.00  0.00     0.169 HD
ENDROOT
BRANCH   1   5
HETATM    5  C   UNL     1      24.728  47.755  49.708  1.00  0.00     0.035 A 
HETATM    6  C   UNL     1      23.408  48.072  49.383  1.00  0.00     0.038 A 
HETATM    7  C   UNL     1      23.083  49.244  48.680  1.00  0.00    -0.030 A 
HETATM    8  C   UNL     1      24.122  50.068  48.233  1.00  0.00     0.009 A 
HETATM    9  C   UNL     1      25.449  49.740  48.519  1.00  0.00     0.003 A 
HETATM   10  C   UNL     1      25.749  48.596  49.263  1.00  0.00     0.029 A 
BRANCH   7  11
HETATM   11  C   UNL     1      21.636  49.597  48.454  1.00  0.00     0.273 C 
BRANCH  11  12
HETATM   12  N   UNL     1      20.761  49.659  49.704  1.00  0.00    -0.068 N 
HETATM   13  H   UNL     1      21.383  49.419  50.485  1.00  0.00     0.280 HD
BRANCH  12  14
HETATM   14  C   UNL     1      19.642  48.633  49.730  1.00  0.00     0.231 C 
HETATM   15  C   UNL     1      18.695  48.880  50.890  1.00  0.00     0.034 C 
ENDBRANCH  12  14
BRANCH  12  16
HETATM   16  C   UNL     1      20.218  51.043  50.028  1.00  0.00     0.231 C 
HETATM   17  C   UNL     1      19.904  51.826  48.765  1.00  0.00     0.034 C 
ENDBRANCH  12  16
ENDBRANCH  11  12
ENDBRANCH   7  11
ENDBRANCH   1   5
BRANCH   2  18
HETATM   18  C   UNL     1      25.796  45.281  52.295  1.00  0.00     0.157 A 
HETATM   19  N   UNL     1      25.247  44.151  51.797  1.00  0.00    -0.168 NA
HETATM   20  N   UNL     1      25.961  43.168  52.379  1.00  0.00    -0.277 N 
HETATM   21  H   UNL     1      25.743  42.206  52.145  1.00  0.00     0.189 HD
HETATM   22  C   UNL     1      26.924  43.606  53.246  1.00  0.00     0.063 A 
HETATM   23  C   UNL     1      26.835  44.992  53.226  1.00  0.00     0.029 A 
HETATM   24  C   UNL     1      27.846  42.913  54.034  1.00  0.00     0.032 A 
HETATM   25  C   UNL     1      27.702  45.741  54.048  1.00  0.00     0.023 A 
HETATM   26  C   UNL     1      28.636  45.075  54.859  1.00  0.00    -0.061 A 
HETATM   27  C   UNL     1      28.696  43.676  54.846  1.00  0.00     0.009 A 
HETATM   28  C   UNL     1      29.519  45.866  55.780  1.00  0.00     0.048 C 
ENDBRANCH   2  18
TORSDOF 6
ENDMDL
MODEL 2
REMARK VINA RESULT:      -8.2      1.304      1.990
REMARK  6 active torsions:
REMARK  status: ('A' for Active; 'I' for Inactive)
REMARK    1  A    between atoms: C_2  and  N_3 
REMARK    2  A    between atoms: N_3  and  C_5 
REMARK    3  A    between atoms: N_3  and  C_26 
REMARK    4  A    between atoms: C_5  and  C_6 
REMARK    5  A    between atoms: C_8  and  N_9 
REMARK       I    between atoms: N_9  and  C_10 
REMARK    6  A    between atoms: C_10  and  C_11 
ROOT
HETATM    1  N   UNL     1      26.169  46.056  50.786  1.00  0.00    -0.322 N 
HETATM    2  C   UNL     1      26.184  45.862  52.159  1.00  0.00     0.277 C 
HETATM    3  O   UNL     1      25.713  46.629  52.994  1.00  0.00    -0.266 OA
HETATM    4  H   UNL     1      26.605  45.294  50.269  1.00  0.00     0.169 HD
ENDROOT
BRANCH   1   5
HETATM    5  C   UNL     1      25.699  47.169  50.072  1.00  0.00     0.035 A 
HETATM    6  C   UNL     1      24.342  47.448  49.899  1.00  0.00     0.038 A 
HETATM    7  C   UNL     1      23.906  48.625  49.266  1.00  0.00    -0.030 A 
HETATM    8  C   UNL     1      24.865  49.495  48.734  1.00  0.00     0.009 A 
HETATM    9  C   UNL     1      26.224  49.206  48.868  1.00  0.00     0.003 A 
HETATM   10  C   UNL     1      26.639  48.056  49.544  1.00  0.00     0.029 A 
BRANCH   7  11
HETATM   11  C   UNL     1      22.433  48.932  49.205  1.00  0.00     0.273 C 
BRANCH  11  12
HETATM   12  N   UNL     1      21.834  49.055  47.805  1.00  0.00    -0.068 N 
HETATM   13  H   UNL     1      22.634  49.018  47.162  1.00  0.00     0.280 HD
BRANCH  12  14
HETATM   14  C   UNL     1      21.144  50.380  47.539  1.00  0.00     0.231 C 
HETATM   15  C   UNL     1      21.019  51.200  48.810  1.00  0.00     0.034 C 
ENDBRANCH  12  14
BRANCH  12  16
HETATM   16  C   UNL     1      20.933  47.897  47.400  1.00  0.00     0.231 C 
HETATM   17  C   UNL     1      20.272  47.259  48.609  1.00  0.00     0.034 C 
ENDBRANCH  12  16
ENDBRANCH  11  12
ENDBRANCH   7  11
ENDBRANCH   1   5
BRANCH   2  18
HETATM   18  C   UNL     1      26.873  44.616  52.533  1.00  0.00     0.157 A 
HETATM   19  N   UNL     1      26.585  43.448  51.916  1.00  0.00    -0.168 NA
HETATM   20  N   UNL     1      27.445  42.574  52.476  1.00  0.00    -0.277 N 
HETATM   21  H   UNL     1      27.433  41.611  52.157  1.00  0.00     0.189 HD
HETATM   22  C   UNL     1      28.252  43.113  53.439  1.00  0.00     0.063 A 
HETATM   23  C   UNL     1      27.894  44.453  53.514  1.00  0.00     0.029 A 
HETATM   24  C   UNL     1      29.245  42.545  54.241  1.00  0.00     0.032 A 
HETATM   25  C   UNL     1      28.548  45.281  54.448  1.00  0.00     0.023 A 
HETATM   26  C   UNL     1      29.547  44.739  55.274  1.00  0.00    -0.061 A 
HETATM   27  C   UNL     1      29.880  43.384  55.165  1.00  0.00     0.009 A 
HETATM   28  C   UNL     1      30.204  45.603  56.312  1.00  0.00     0.048 C 
ENDBRANCH   2  18
TORSDOF 6
ENDMDL
MODEL 3
REMARK VINA RESULT:      -8.2      2.173      9.079
REMARK  6 active torsions:
REMARK  status: ('A' for Active; 'I' for Inactive)
REMARK    1  A    between atoms: C_2  and  N_3 
REMARK    2  A    between atoms: N_3  and  C_5 
REMARK    3  A    between atoms: N_3  and  C_26 
REMARK    4  A    between atoms: C_5  and  C_6 
REMARK    5  A    between atoms: C_8  and  N_9 
REMARK       I    between atoms: N_9  and  C_10 
REMARK    6  A    between atoms: C_10  and  C_11 
ROOT
HETATM    1  N   UNL     1      25.976  46.847  51.660  1.00  0.00    -0.322 N 
HETATM    2  C   UNL     1      26.282  46.745  50.312  1.00  0.00     0.277 C 
HETATM    3  O   UNL     1      26.755  45.756  49.759  1.00  0.00    -0.266 OA
HETATM    4  H   UNL     1      25.581  47.752  51.914  1.00  0.00     0.169 HD
ENDROOT
BRANCH   1   5
HETATM    5  C   UNL     1      26.205  45.905  52.676  1.00  0.00     0.035 A 
HETATM    6  C   UNL     1      27.456  45.703  53.262  1.00  0.00     0.038 A 
HETATM    7  C   UNL     1      27.628  44.825  54.345  1.00  0.00    -0.030 A 
HETATM    8  C   UNL     1      26.527  44.084  54.791  1.00  0.00     0.009 A 
HETATM    9  C   UNL     1      25.280  44.251  54.186  1.00  0.00     0.003 A 
HETATM   10  C   UNL     1      25.117  45.166  53.143  1.00  0.00     0.029 A 
BRANCH   7  11
HETATM   11  C   UNL     1      28.975  44.727  55.014  1.00  0.00     0.273 C 
BRANCH  11  12
HETATM   12  N   UNL     1      29.694  43.387  54.873  1.00  0.00    -0.068 N 
HETATM   13  H   UNL     1      29.118  42.712  55.390  1.00  0.00     0.280 HD
BRANCH  12  14
HETATM   14  C   UNL     1      31.067  43.349  55.520  1.00  0.00     0.231 C 
HETATM   15  C   UNL     1      31.033  43.942  56.917  1.00  0.00     0.034 C 
ENDBRANCH  12  14
BRANCH  12  16
HETATM   16  C   UNL     1      29.764  42.855  53.449  1.00  0.00     0.231 C 
HETATM   17  C   UNL     1      28.934  41.595  53.285  1.00  0.00     0.034 C 
ENDBRANCH  12  16
ENDBRANCH  11  12
ENDBRANCH   7  11
ENDBRANCH   1   5
BRANCH   2  18
HETATM   18  C   UNL     1      26.001  47.994  49.586  1.00  0.00     0.157 A 
HETATM   19  N   UNL     1      27.003  48.804  49.178  1.00  0.00    -0.168 NA
HETATM   20  N   UNL     1      26.366  49.788  48.513  1.00  0.00    -0.277 N 
HETATM   21  H   UNL     1      26.920  50.524  48.088  1.00  0.00     0.189 HD
HETATM   22  C   UNL     1      25.004  49.667  48.494  1.00  0.00     0.063 A 
HETATM   23  C   UNL     1      24.727  48.505  49.203  1.00  0.00     0.029 A 
HETATM   24  C   UNL     1      24.010  50.469  47.928  1.00  0.00     0.032 A 
HETATM   25  C   UNL     1      23.383  48.119  49.376  1.00  0.00     0.023 A 
HETATM   26  C   UNL     1      22.358  48.907  48.825  1.00  0.00    -0.061 A 
HETATM   27  C   UNL     1      22.681  50.069  48.114  1.00  0.00     0.009 A 
HETATM   28  C   UNL     1      20.923  48.532  49.059  1.00  0.00     0.048 C 
ENDBRANCH   2  18
TORSDOF 6
ENDMDL
MODEL 4
REMARK VINA RESULT:      -8.1      1.870      2.112
REMARK  6 active torsions:
REMARK  status: ('A' for Active; 'I' for Inactive)
REMARK    1  A    between atoms: C_2  and  N_3 
REMARK    2  A    between atoms: N_3  and  C_5 
REMARK    3  A    between atoms: N_3  and  C_26 
REMARK    4  A    between atoms: C_5  and  C_6 
REMARK    5  A    between atoms: C_8  and  N_9 
REMARK       I    between atoms: N_9  and  C_10 
REMARK    6  A    between atoms: C_10  and  C_11 
ROOT
HETATM    1  N   UNL     1      26.036  46.990  50.808  1.00  0.00    -0.322 N 
HETATM    2  C   UNL     1      25.900  45.628  50.590  1.00  0.00     0.277 C 
HETATM    3  O   UNL     1      25.814  45.084  49.492  1.00  0.00    -0.266 OA
HETATM    4  H   UNL     1      26.101  47.233  51.796  1.00  0.00     0.169 HD
ENDROOT
BRANCH   1   5
HETATM    5  C   UNL     1      26.027  48.026  49.861  1.00  0.00     0.035 A 
HETATM    6  C   UNL     1      24.858  48.511  49.271  1.00  0.00     0.038 A 
HETATM    7  C   UNL     1      24.874  49.616  48.403  1.00  0.00    -0.030 A 
HETATM    8  C   UNL     1      26.106  50.189  48.070  1.00  0.00     0.009 A 
HETATM    9  C   UNL     1      27.285  49.687  48.624  1.00  0.00     0.003 A 
HETATM   10  C   UNL     1      27.244  48.619  49.524  1.00  0.00     0.029 A 
BRANCH   7  11
HETATM   11  C   UNL     1      23.573  50.170  47.883  1.00  0.00     0.273 C 
BRANCH  11  12
HETATM   12  N   UNL     1      22.316  49.749  48.643  1.00  0.00    -0.068 N 
HETATM   13  H   UNL     1      22.628  49.031  49.308  1.00  0.00     0.280 HD
BRANCH  12  14
HETATM   14  C   UNL     1      21.260  49.088  47.776  1.00  0.00     0.231 C 
HETATM   15  C   UNL     1      21.332  47.575  47.878  1.00  0.00     0.034 C 
ENDBRANCH  12  14
BRANCH  12  16
HETATM   16  C   UNL     1      21.694  50.847  49.493  1.00  0.00     0.231 C 
HETATM   17  C   UNL     1      20.422  51.384  48.862  1.00  0.00     0.034 C 
ENDBRANCH  12  16
ENDBRANCH  11  12
ENDBRANCH   7  11
ENDBRANCH   1   5
BRANCH   2  18
HETATM   18  C   UNL     1      25.835  44.871  51.851  1.00  0.00     0.157 A 
HETATM   19  N   UNL     1      24.675  44.750  52.533  1.00  0.00    -0.168 NA
HETATM   20  N   UNL     1      24.998  43.954  53.572  1.00  0.00    -0.277 N 
HETATM   21  H   UNL     1      24.272  43.699  54.232  1.00  0.00     0.189 HD
HETATM   22  C   UNL     1      26.313  43.580  53.608  1.00  0.00     0.063 A 
HETATM   23  C   UNL     1      26.898  44.176  52.499  1.00  0.00     0.029 A 
HETATM   24  C   UNL     1      27.026  42.785  54.510  1.00  0.00     0.032 A 
HETATM   25  C   UNL     1      28.276  43.988  52.272  1.00  0.00     0.023 A 
HETATM   26  C   UNL     1      29.024  43.200  53.164  1.00  0.00    -0.061 A 
HETATM   27  C   UNL     1      28.395  42.613  54.269  1.00  0.00     0.009 A 
HETATM   28  C   UNL     1      30.504  43.046  52.960  1.00  0.00     0.048 C 
ENDBRANCH   2  18
TORSDOF 6
ENDMDL
MODEL 5
REMARK VINA RESULT:      -8.0      2.145      3.699
REMARK  6 active torsions:
REMARK  status: ('A' for Active; 'I' for Inactive)
REMARK    1  A    between atoms: C_2  and  N_3 
REMARK    2  A    between atoms: N_3  and  C_5 
REMARK    3  A    between atoms: N_3  and  C_26 
REMARK    4  A    between atoms: C_5  and  C_6 
REMARK    5  A    between atoms: C_8  and  N_9 
REMARK       I    between atoms: N_9  and  C_10 
REMARK    6  A    between atoms: C_10  and  C_11 
ROOT
HETATM    1  N   UNL     1      26.594  44.280  51.118  1.00  0.00    -0.322 N 
HETATM    2  C   UNL     1      26.606  43.958  52.466  1.00  0.00     0.277 C 
HETATM    3  O   UNL     1      25.667  44.105  53.244  1.00  0.00    -0.266 OA
HETATM    4  H   UNL     1      27.475  44.070  50.649  1.00  0.00     0.169 HD
ENDROOT
BRANCH   1   5
HETATM    5  C   UNL     1      25.572  44.897  50.381  1.00  0.00     0.035 A 
HETATM    6  C   UNL     1      25.312  46.268  50.436  1.00  0.00     0.038 A 
HETATM    7  C   UNL     1      24.347  46.868  49.609  1.00  0.00    -0.030 A 
HETATM    8  C   UNL     1      23.582  46.052  48.769  1.00  0.00     0.009 A 
HETATM    9  C   UNL     1      23.807  44.674  48.735  1.00  0.00     0.003 A 
HETATM   10  C   UNL     1      24.805  44.102  49.528  1.00  0.00     0.029 A 
BRANCH   7  11
HETATM   11  C   UNL     1      24.184  48.366  49.625  1.00  0.00     0.273 C 
BRANCH  11  12
HETATM   12  N   UNL     1      24.121  49.045  48.259  1.00  0.00    -0.068 N 
HETATM   13  H   UNL     1      24.220  48.288  47.572  1.00  0.00     0.280 HD
BRANCH  12  14
HETATM   14  C   UNL     1      25.265  50.006  47.990  1.00  0.00     0.231 C 
HETATM   15  C   UNL     1      26.520  49.589  48.736  1.00  0.00     0.034 C 
ENDBRANCH  12  14
BRANCH  12  16
HETATM   16  C   UNL     1      22.787  49.707  47.944  1.00  0.00     0.231 C 
HETATM   17  C   UNL     1      22.625  51.015  48.697  1.00  0.00     0.034 C 
ENDBRANCH  12  16
ENDBRANCH  11  12
ENDBRANCH   7  11
ENDBRANCH   1   5
BRANCH   2  18
HETATM   18  C   UNL     1      27.912  43.433  52.898  1.00  0.00     0.157 A 
HETATM   19  N   UNL     1      28.515  42.428  52.226  1.00  0.00    -0.168 NA
HETATM   20  N   UNL     1      29.689  42.274  52.871  1.00  0.00    -0.277 N 
HETATM   21  H   UNL     1      30.340  41.574  52.533  1.00  0.00     0.189 HD
HETATM   22  C   UNL     1      29.859  43.111  53.940  1.00  0.00     0.063 A 
HETATM   23  C   UNL     1      28.703  43.878  53.996  1.00  0.00     0.029 A 
HETATM   24  C   UNL     1      30.912  43.251  54.847  1.00  0.00     0.032 A 
HETATM   25  C   UNL     1      28.572  44.835  55.023  1.00  0.00     0.023 A 
HETATM   26  C   UNL     1      29.609  44.997  55.957  1.00  0.00    -0.061 A 
HETATM   27  C   UNL     1      30.760  44.205  55.862  1.00  0.00     0.009 A 
HETATM   28  C   UNL     1      29.447  45.972  57.087  1.00  0.00     0.048 C 
ENDBRANCH   2  18
TORSDOF 6
ENDMDL
MODEL 6
REMARK VINA RESULT:      -8.0      6.064      8.804
REMARK  6 active torsions:
REMARK  status: ('A' for Active; 'I' for Inactive)
REMARK    1  A    between atoms: C_2  and  N_3 
REMARK    2  A    between atoms: N_3  and  C_5 
REMARK    3  A    between atoms: N_3  and  C_26 
REMARK    4  A    between atoms: C_5  and  C_6 
REMARK    5  A    between atoms: C_8  and  N_9 
REMARK       I    between atoms: N_9  and  C_10 
REMARK    6  A    between atoms: C_10  and  C_11 
ROOT
HETATM    1  N   UNL     1      27.300  43.140  51.853  1.00  0.00    -0.322 N 
HETATM    2  C   UNL     1      27.794  42.823  53.109  1.00  0.00     0.277 C 
HETATM    3  O   UNL     1      27.940  41.688  53.554  1.00  0.00    -0.266 OA
HETATM    4  H   UNL     1      27.269  44.144  51.677  1.00  0.00     0.169 HD
ENDROOT
BRANCH   1   5
HETATM    5  C   UNL     1      26.799  42.270  50.873  1.00  0.00     0.035 A 
HETATM    6  C   UNL     1      27.528  41.195  50.362  1.00  0.00     0.038 A 
HETATM    7  C   UNL     1      26.960  40.284  49.456  1.00  0.00    -0.030 A 
HETATM    8  C   UNL     1      25.655  40.512  49.003  1.00  0.00     0.009 A 
HETATM    9  C   UNL     1      24.930  41.607  49.479  1.00  0.00     0.003 A 
HETATM   10  C   UNL     1      25.495  42.474  50.418  1.00  0.00     0.029 A 
BRANCH   7  11
HETATM   11  C   UNL     1      27.751  39.078  49.022  1.00  0.00     0.273 C 
BRANCH  11  12
HETATM   12  N   UNL     1      27.964  38.001  50.084  1.00  0.00    -0.068 N 
HETATM   13  H   UNL     1      27.553  38.382  50.945  1.00  0.00     0.280 HD
BRANCH  12  14
HETATM   14  C   UNL     1      29.422  37.724  50.403  1.00  0.00     0.231 C 
HETATM   15  C   UNL     1      30.328  38.174  49.271  1.00  0.00     0.034 C 
ENDBRANCH  12  14
BRANCH  12  16
HETATM   16  C   UNL     1      27.221  36.699  49.821  1.00  0.00     0.231 C 
HETATM   17  C   UNL     1      26.536  36.714  48.467  1.00  0.00     0.034 C 
ENDBRANCH  12  16
ENDBRANCH  11  12
ENDBRANCH   7  11
ENDBRANCH   1   5
BRANCH   2  18
HETATM   18  C   UNL     1      28.109  44.026  53.898  1.00  0.00     0.157 A 
HETATM   19  N   UNL     1      27.405  45.168  53.741  1.00  0.00    -0.168 NA
HETATM   20  N   UNL     1      27.937  45.999  54.659  1.00  0.00    -0.277 N 
HETATM   21  H   UNL     1      27.554  46.934  54.747  1.00  0.00     0.189 HD
HETATM   22  C   UNL     1      28.966  45.459  55.380  1.00  0.00     0.063 A 
HETATM   23  C   UNL     1      29.117  44.165  54.897  1.00  0.00     0.029 A 
HETATM   24  C   UNL     1      29.765  45.991  56.395  1.00  0.00     0.032 A 
HETATM   25  C   UNL     1      30.130  43.350  55.441  1.00  0.00     0.023 A 
HETATM   26  C   UNL     1      30.956  43.856  56.458  1.00  0.00    -0.061 A 
HETATM   27  C   UNL     1      30.768  45.165  56.919  1.00  0.00     0.009 A 
HETATM   28  C   UNL     1      32.075  43.013  56.997  1.00  0.00     0.048 C 
ENDBRANCH   2  18
TORSDOF 6
ENDMDL
MODEL 7
REMARK VINA RESULT:      -7.9      2.086      2.935
REMARK  6 active torsions:
REMARK  status: ('A' for Active; 'I' for Inactive)
REMARK    1  A    between atoms: C_2  and  N_3 
REMARK    2  A    between atoms: N_3  and  C_5 
REMARK    3  A    between atoms: N_3  and  C_26 
REMARK    4  A    between atoms: C_5  and  C_6 
REMARK    5  A    between atoms: C_8  and  N_9 
REMARK       I    between atoms: N_9  and  C_10 
REMARK    6  A    between atoms: C_10  and  C_11 
ROOT
HETATM    1  N   UNL     1      25.760  46.291  52.145  1.00  0.00    -0.322 N 
HETATM    2  C   UNL     1      25.616  45.635  53.358  1.00  0.00     0.277 C 
HETATM    3  O   UNL     1      24.775  44.777  53.612  1.00  0.00    -0.266 OA
HETATM    4  H   UNL     1      26.528  46.960  52.140  1.00  0.00     0.169 HD
ENDROOT
BRANCH   1   5
HETATM    5  C   UNL     1      24.956  46.183  51.000  1.00  0.00     0.035 A 
HETATM    6  C   UNL     1      24.217  47.249  50.483  1.00  0.00     0.038 A 
HETATM    7  C   UNL     1      23.504  47.136  49.278  1.00  0.00    -0.030 A 
HETATM    8  C   UNL     1      23.478  45.896  48.628  1.00  0.00     0.009 A 
HETATM    9  C   UNL     1      24.182  44.813  49.157  1.00  0.00     0.003 A 
HETATM   10  C   UNL     1      24.926  44.959  50.330  1.00  0.00     0.029 A 
BRANCH   7  11
HETATM   11  C   UNL     1      22.816  48.348  48.705  1.00  0.00     0.273 C 
BRANCH  11  12
HETATM   12  N   UNL     1      21.625  48.878  49.500  1.00  0.00    -0.068 N 
HETATM   13  H   UNL     1      21.729  48.483  50.443  1.00  0.00     0.280 HD
BRANCH  12  14
HETATM   14  C   UNL     1      20.277  48.398  48.992  1.00  0.00     0.231 C 
HETATM   15  C   UNL     1      19.222  48.467  50.082  1.00  0.00     0.034 C 
ENDBRANCH  12  14
BRANCH  12  16
HETATM   16  C   UNL     1      21.613  50.388  49.690  1.00  0.00     0.231 C 
HETATM   17  C   UNL     1      21.238  51.105  48.406  1.00  0.00     0.034 C 
ENDBRANCH  12  16
ENDBRANCH  11  12
ENDBRANCH   7  11
ENDBRANCH   1   5
BRANCH   2  18
HETATM   18  C   UNL     1      26.587  46.107  54.359  1.00  0.00     0.157 A 
HETATM   19  N   UNL     1      26.368  47.240  55.063  1.00  0.00    -0.168 NA
HETATM   20  N   UNL     1      27.422  47.302  55.901  1.00  0.00    -0.277 N 
HETATM   21  H   UNL     1      27.475  48.074  56.557  1.00  0.00     0.189 HD
HETATM   22  C   UNL     1      28.321  46.282  55.754  1.00  0.00     0.063 A 
HETATM   23  C   UNL     1      27.811  45.483  54.739  1.00  0.00     0.029 A 
HETATM   24  C   UNL     1      29.520  46.002  56.414  1.00  0.00     0.032 A 
HETATM   25  C   UNL     1      28.538  44.344  54.340  1.00  0.00     0.023 A 
HETATM   26  C   UNL     1      29.751  44.037  54.978  1.00  0.00    -0.061 A 
HETATM   27  C   UNL     1      30.228  44.867  56.000  1.00  0.00     0.009 A 
HETATM   28  C   UNL     1      30.559  42.859  54.515  1.00  0.00     0.048 C 
ENDBRANCH   2  18
TORSDOF 6
ENDMDL
MODEL 8
REMARK VINA RESULT:      -7.8      2.140      8.680
REMARK  6 active torsions:
REMARK  status: ('A' for Active; 'I' for Inactive)
REMARK    1  A    between atoms: C_2  and  N_3 
REMARK    2  A    between atoms: N_3  and  C_5 
REMARK    3  A    between atoms: N_3  and  C_26 
REMARK    4  A    between atoms: C_5  and  C_6 
REMARK    5  A    between atoms: C_8  and  N_9 
REMARK       I    between atoms: N_9  and  C_10 
REMARK    6  A    between atoms: C_10  and  C_11 
ROOT
HETATM    1  N   UNL     1      26.100  45.825  49.581  1.00  0.00    -0.322 N 
HETATM    2  C   UNL     1      26.011  46.975  50.349  1.00  0.00     0.277 C 
HETATM    3  O   UNL     1      26.076  47.023  51.574  1.00  0.00    -0.266 OA
HETATM    4  H   UNL     1      26.032  46.006  48.580  1.00  0.00     0.169 HD
ENDROOT
BRANCH   1   5
HETATM    5  C   UNL     1      26.201  44.495  50.017  1.00  0.00     0.035 A 
HETATM    6  C   UNL     1      27.313  43.999  50.701  1.00  0.00     0.038 A 
HETATM    7  C   UNL     1      27.339  42.690  51.213  1.00  0.00    -0.030 A 
HETATM    8  C   UNL     1      26.250  41.849  50.960  1.00  0.00     0.009 A 
HETATM    9  C   UNL     1      25.149  42.323  50.244  1.00  0.00     0.003 A 
HETATM   10  C   UNL     1      25.120  43.643  49.786  1.00  0.00     0.029 A 
BRANCH   7  11
HETATM   11  C   UNL     1      28.515  42.241  52.041  1.00  0.00     0.273 C 
BRANCH  11  12
HETATM   12  N   UNL     1      28.983  43.215  53.120  1.00  0.00    -0.068 N 
HETATM   13  H   UNL     1      28.981  44.139  52.673  1.00  0.00     0.280 HD
BRANCH  12  14
HETATM   14  C   UNL     1      30.406  42.981  53.592  1.00  0.00     0.231 C 
HETATM   15  C   UNL     1      30.535  43.209  55.087  1.00  0.00     0.034 C 
ENDBRANCH  12  14
BRANCH  12  16
HETATM   16  C   UNL     1      28.043  43.338  54.311  1.00  0.00     0.231 C 
HETATM   17  C   UNL     1      27.346  44.686  54.332  1.00  0.00     0.034 C 
ENDBRANCH  12  16
ENDBRANCH  11  12
ENDBRANCH   7  11
ENDBRANCH   1   5
BRANCH   2  18
HETATM   18  C   UNL     1      25.792  48.175  49.524  1.00  0.00     0.157 A 
HETATM   19  N   UNL     1      26.833  48.878  49.026  1.00  0.00    -0.168 NA
HETATM   20  N   UNL     1      26.242  49.842  48.292  1.00  0.00    -0.277 N 
HETATM   21  H   UNL     1      26.830  50.501  47.794  1.00  0.00     0.189 HD
HETATM   22  C   UNL     1      24.875  49.811  48.314  1.00  0.00     0.063 A 
HETATM   23  C   UNL     1      24.543  48.735  49.127  1.00  0.00     0.029 A 
HETATM   24  C   UNL     1      23.920  50.627  47.703  1.00  0.00     0.032 A 
HETATM   25  C   UNL     1      23.182  48.455  49.362  1.00  0.00     0.023 A 
HETATM   26  C   UNL     1      22.196  49.261  48.768  1.00  0.00    -0.061 A 
HETATM   27  C   UNL     1      22.574  50.334  47.952  1.00  0.00     0.009 A 
HETATM   28  C   UNL     1      20.746  49.003  49.065  1.00  0.00     0.048 C 
ENDBRANCH   2  18
TORSDOF 6
ENDMDL
MODEL 9
REMARK VINA RESULT:      -7.7      6.670      8.487
REMARK  6 active torsions:
REMARK  status: ('A' for Active; 'I' for Inactive)
REMARK    1  A    between atoms: C_2  and  N_3 
REMARK    2  A    between atoms: N_3  and  C_5 
REMARK    3  A    between atoms: N_3  and  C_26 
REMARK    4  A    between atoms: C_5  and  C_6 
REMARK    5  A    between atoms: C_8  and  N_9 
REMARK       I    between atoms: N_9  and  C_10 
REMARK    6  A    between atoms: C_10  and  C_11 
ROOT
HETATM    1  N   UNL     1      28.646  41.333  51.604  1.00  0.00    -0.322 N 
HETATM    2  C   UNL     1      28.349  41.430  52.955  1.00  0.00     0.277 C 
HETATM    3  O   UNL     1      28.085  40.488  53.698  1.00  0.00    -0.266 OA
HETATM    4  H   UNL     1      28.846  42.235  51.173  1.00  0.00     0.169 HD
ENDROOT
BRANCH   1   5
HETATM    5  C   UNL     1      28.636  40.188  50.793  1.00  0.00     0.035 A 
HETATM    6  C   UNL     1      27.827  40.060  49.663  1.00  0.00     0.038 A 
HETATM    7  C   UNL     1      27.915  38.943  48.815  1.00  0.00    -0.030 A 
HETATM    8  C   UNL     1      28.786  37.904  49.164  1.00  0.00     0.009 A 
HETATM    9  C   UNL     1      29.572  38.005  50.313  1.00  0.00     0.003 A 
HETATM   10  C   UNL     1      29.506  39.146  51.116  1.00  0.00     0.029 A 
BRANCH   7  11
HETATM   11  C   UNL     1      27.101  38.906  47.548  1.00  0.00     0.273 C 
BRANCH  11  12
HETATM   12  N   UNL     1      26.329  40.181  47.214  1.00  0.00    -0.068 N 
HETATM   13  H   UNL     1      26.621  40.869  47.917  1.00  0.00     0.280 HD
BRANCH  12  14
HETATM   14  C   UNL     1      24.823  40.049  47.356  1.00  0.00     0.231 C 
HETATM   15  C   UNL     1      24.277  41.043  48.366  1.00  0.00     0.034 C 
ENDBRANCH  12  14
BRANCH  12  16
HETATM   16  C   UNL     1      26.682  40.798  45.869  1.00  0.00     0.231 C 
HETATM   17  C   UNL     1      28.183  40.814  45.642  1.00  0.00     0.034 C 
ENDBRANCH  12  16
ENDBRANCH  11  12
ENDBRANCH   7  11
ENDBRANCH   1   5
BRANCH   2  18
HETATM   18  C   UNL     1      28.350  42.826  53.422  1.00  0.00     0.157 A 
HETATM   19  N   UNL     1      27.490  43.733  52.909  1.00  0.00    -0.168 NA
HETATM   20  N   UNL     1      27.748  44.851  53.617  1.00  0.00    -0.277 N 
HETATM   21  H   UNL     1      27.205  45.685  53.422  1.00  0.00     0.189 HD
HETATM   22  C   UNL     1      28.748  44.716  54.540  1.00  0.00     0.063 A 
HETATM   23  C   UNL     1      29.177  43.400  54.431  1.00  0.00     0.029 A 
HETATM   24  C   UNL     1      29.304  45.626  55.443  1.00  0.00     0.032 A 
HETATM   25  C   UNL     1      30.232  42.958  55.255  1.00  0.00     0.023 A 
HETATM   26  C   UNL     1      30.818  43.850  56.169  1.00  0.00    -0.061 A 
HETATM   27  C   UNL     1      30.353  45.168  56.250  1.00  0.00     0.009 A 
HETATM   28  C   UNL     1      31.982  43.400  57.005  1.00  0.00     0.048 C 
ENDBRANCH   2  18
TORSDOF 6
ENDMDL
MODEL 10
REMARK VINA RESULT:      -7.5      1.781      2.805
REMARK  6 active torsions:
REMARK  status: ('A' for Active; 'I' for Inactive)
REMARK    1  A    between atoms: C_2  and  N_3 
REMARK    2  A    between atoms: N_3  and  C_5 
REMARK    3  A    between atoms: N_3  and  C_26 
REMARK    4  A    between atoms: C_5  and  C_6 
REMARK    5  A    between atoms: C_8  and  N_9 
REMARK       I    between atoms: N_9  and  C_10 
REMARK    6  A    between atoms: C_10  and  C_11 
ROOT
HETATM    1  N   UNL     1      23.255  47.866  50.017  1.00  0.00    -0.322 N 
HETATM    2  C   UNL     1      24.604  47.552  49.942  1.00  0.00     0.277 C 
HETATM    3  O   UNL     1      25.444  48.162  49.286  1.00  0.00    -0.266 OA
HETATM    4  H   UNL     1      22.731  47.239  50.626  1.00  0.00     0.169 HD
ENDROOT
BRANCH   1   5
HETATM    5  C   UNL     1      22.557  48.867  49.324  1.00  0.00     0.035 A 
HETATM    6  C   UNL     1      21.260  48.696  48.836  1.00  0.00     0.038 A 
HETATM    7  C   UNL     1      20.553  49.751  48.237  1.00  0.00    -0.030 A 
HETATM    8  C   UNL     1      21.201  50.979  48.061  1.00  0.00     0.009 A 
HETATM    9  C   UNL     1      22.512  51.150  48.511  1.00  0.00     0.003 A 
HETATM   10  C   UNL     1      23.182  50.103  49.150  1.00  0.00     0.029 A 
BRANCH   7  11
HETATM   11  C   UNL     1      19.117  49.546  47.830  1.00  0.00     0.273 C 
BRANCH  11  12
HETATM   12  N   UNL     1      18.100  49.505  48.968  1.00  0.00    -0.068 N 
HETATM   13  H   UNL     1      17.209  49.798  48.549  1.00  0.00     0.280 HD
BRANCH  12  14
HETATM   14  C   UNL     1      18.381  50.492  50.087  1.00  0.00     0.231 C 
HETATM   15  C   UNL     1      17.920  51.890  49.715  1.00  0.00     0.034 C 
ENDBRANCH  12  14
BRANCH  12  16
HETATM   16  C   UNL     1      17.844  48.117  49.537  1.00  0.00     0.231 C 
HETATM   17  C   UNL     1      17.122  47.232  48.539  1.00  0.00     0.034 C 
ENDBRANCH  12  16
ENDBRANCH  11  12
ENDBRANCH   7  11
ENDBRANCH   1   5
BRANCH   2  18
HETATM   18  C   UNL     1      24.936  46.353  50.729  1.00  0.00     0.157 A 
HETATM   19  N   UNL     1      24.613  45.117  50.288  1.00  0.00    -0.168 NA
HETATM   20  N   UNL     1      25.126  44.300  51.229  1.00  0.00    -0.277 N 
HETATM   21  H   UNL     1      25.024  43.298  51.109  1.00  0.00     0.189 HD
HETATM   22  C   UNL     1      25.738  44.947  52.266  1.00  0.00     0.063 A 
HETATM   23  C   UNL     1      25.620  46.301  51.978  1.00  0.00     0.029 A 
HETATM   24  C   UNL     1      26.370  44.466  53.415  1.00  0.00     0.032 A 
HETATM   25  C   UNL     1      26.147  47.239  52.889  1.00  0.00     0.023 A 
HETATM   26  C   UNL     1      26.783  46.788  54.058  1.00  0.00    -0.061 A 
HETATM   27  C   UNL     1      26.884  45.414  54.309  1.00  0.00     0.009 A 
HETATM   28  C   UNL     1      27.292  47.784  55.060  1.00  0.00     0.048 C 
ENDBRANCH   2  18
TORSDOF 6
ENDMDL
