MODEL 1
REMARK VINA RESULT:      -9.5      0.000      0.000
REMARK  8 active torsions:
REMARK  status: ('A' for Active; 'I' for Inactive)
REMARK    1  A    between atoms: N_2  and  C_3 
REMARK    2  A    between atoms: C_4  and  C_5 
REMARK       I    between atoms: C_5  and  N_6 
REMARK    3  A    between atoms: N_6  and  C_7 
REMARK    4  A    between atoms: C_7  and  C_8 
REMARK    5  A    between atoms: N_13  and  C_15 
REMARK    6  A    between atoms: C_15  and  C_16 
REMARK    7  A    between atoms: C_16  and  C_17 
REMARK    8  A    between atoms: C_17  and  C_18 
ROOT
HETATM    1  C   UNL     1      24.114  45.956  49.856  1.00  0.00     0.140 C 
HETATM    2  O   UNL     1      24.358  45.844  51.272  1.00  0.00    -0.373 OA
HETATM    3  C   UNL     1      25.737  45.494  51.499  1.00  0.00     0.064 C 
HETATM    4  C   UNL     1      25.721  44.220  52.352  1.00  0.00     0.066 C 
HETATM    5  C   UNL     1      25.099  44.477  53.722  1.00  0.00     0.237 C 
HETATM    6  N   UNL     1      25.803  45.611  54.443  1.00  0.00    -0.071 N 
HETATM    7  H   UNL     1      25.206  45.820  55.253  1.00  0.00     0.279 HD
HETATM    8  C   UNL     1      25.754  46.875  53.598  1.00  0.00     0.237 C 
HETATM    9  C   UNL     1      26.427  46.630  52.260  1.00  0.00     0.066 C 
HETATM   10  C   UNL     1      26.369  45.275  50.123  1.00  0.00     0.041 C 
HETATM   11  C   UNL     1      25.176  45.082  49.214  1.00  0.00     0.036 C 
ENDROOT
BRANCH   1  12
HETATM   12  C   UNL     1      24.190  47.428  49.407  1.00  0.00     0.155 C 
BRANCH  12  13
HETATM   13  N   UNL     1      22.894  48.083  49.459  1.00  0.00    -0.354 N 
HETATM   14  C   UNL     1      22.516  49.070  48.566  1.00  0.00     0.253 C 
HETATM   15  O   UNL     1      23.218  49.455  47.639  1.00  0.00    -0.268 OA
HETATM   16  H   UNL     1      22.294  47.893  50.253  1.00  0.00     0.162 HD
BRANCH  14  17
HETATM   17  C   UNL     1      21.147  49.614  48.804  1.00  0.00     0.053 A 
HETATM   18  C   UNL     1      19.980  48.884  48.478  1.00  0.00     0.025 A 
HETATM   19  C   UNL     1      18.741  49.505  48.737  1.00  0.00     0.025 A 
HETATM   20  C   UNL     1      18.659  50.780  49.308  1.00  0.00     0.002 A 
HETATM   21  C   UNL     1      19.817  51.471  49.640  1.00  0.00     0.001 A 
HETATM   22  C   UNL     1      21.058  50.890  49.394  1.00  0.00     0.019 A 
BRANCH  18  23
HETATM   23  N   UNL     1      20.045  47.612  47.853  1.00  0.00    -0.291 NA
HETATM   24  C   UNL     1      19.367  47.638  46.556  1.00  0.00     0.116 C 
HETATM   25  C   UNL     1      19.667  46.491  48.718  1.00  0.00     0.116 C 
ENDBRANCH  18  23
ENDBRANCH  14  17
ENDBRANCH  12  13
ENDBRANCH   1  12
BRANCH   6  26
HETATM   26  C   UNL     1      27.153  45.206  54.990  1.00  0.00     0.235 C 
BRANCH  26  27
HETATM   27  C   UNL     1      27.879  46.318  55.738  1.00  0.00     0.032 C 
BRANCH  27  28
HETATM   28  C   UNL     1      29.369  46.424  55.411  1.00  0.00     0.040 C 
BRANCH  28  29
HETATM   29  C   UNL     1      30.154  45.386  56.170  1.00  0.00    -0.058 A 
HETATM   30  C   UNL     1      30.501  45.602  57.511  1.00  0.00     0.007 A 
HETATM   31  C   UNL     1      31.265  44.662  58.202  1.00  0.00     0.001 A 
HETATM   32  C   UNL     1      31.692  43.501  57.561  1.00  0.00     0.000 A 
HETATM   33  C   UNL     1      31.354  43.279  56.227  1.00  0.00     0.001 A 
HETATM   34  C   UNL     1      30.590  44.217  55.532  1.00  0.00     0.007 A 
ENDBRANCH  28  29
ENDBRANCH  27  28
ENDBRANCH  26  27
ENDBRANCH   6  26
TORSDOF 8
ENDMDL
MODEL 2
REMARK VINA RESULT:      -9.1      1.759      2.590
REMARK  8 active torsions:
REMARK  status: ('A' for Active; 'I' for Inactive)
REMARK    1  A    between atoms: N_2  and  C_3 
REMARK    2  A    between atoms: C_4  and  C_5 
REMARK       I    between atoms: C_5  and  N_6 
REMARK    3  A    between atoms: N_6  and  C_7 
REMARK    4  A    between atoms: C_7  and  C_8 
REMARK    5  A    between atoms: N_13  and  C_15 
REMARK    6  A    between atoms: C_15  and  C_16 
REMARK    7  A    between atoms: C_16  and  C_17 
REMARK    8  A    between atoms: C_17  and  C_18 
ROOT
HETATM    1  C   UNL     1      22.880  44.097  49.566  1.00  0.00     0.140 C 
HETATM    2  O   UNL     1      23.944  44.469  50.464  1.00  0.00    -0.373 OA
HETATM    3  C   UNL     1      25.031  43.532  50.340  1.00  0.00     0.064 C 
HETATM    4  C   UNL     1      25.295  42.991  51.750  1.00  0.00     0.066 C 
HETATM    5  C   UNL     1      25.771  44.098  52.688  1.00  0.00     0.237 C 
HETATM    6  N   UNL     1      26.994  44.803  52.133  1.00  0.00    -0.071 N 
HETATM    7  H   UNL     1      27.118  45.627  52.733  1.00  0.00     0.279 HD
HETATM    8  C   UNL     1      26.685  45.376  50.758  1.00  0.00     0.237 C 
HETATM    9  C   UNL     1      26.270  44.263  49.813  1.00  0.00     0.066 C 
HETATM   10  C   UNL     1      24.567  42.444  49.368  1.00  0.00     0.041 C 
HETATM   11  C   UNL     1      23.064  42.606  49.350  1.00  0.00     0.036 C 
ENDROOT
BRANCH   1  12
HETATM   12  C   UNL     1      22.962  44.912  48.261  1.00  0.00     0.155 C 
BRANCH  12  13
HETATM   13  N   UNL     1      22.760  46.332  48.490  1.00  0.00    -0.354 N 
HETATM   14  C   UNL     1      22.132  47.158  47.574  1.00  0.00     0.253 C 
HETATM   15  O   UNL     1      21.663  46.766  46.512  1.00  0.00    -0.268 OA
HETATM   16  H   UNL     1      23.203  46.755  49.297  1.00  0.00     0.162 HD
BRANCH  14  17
HETATM   17  C   UNL     1      22.037  48.584  48.005  1.00  0.00     0.053 A 
HETATM   18  C   UNL     1      20.840  49.139  48.514  1.00  0.00     0.025 A 
HETATM   19  C   UNL     1      20.866  50.501  48.878  1.00  0.00     0.025 A 
HETATM   20  C   UNL     1      22.027  51.273  48.761  1.00  0.00     0.002 A 
HETATM   21  C   UNL     1      23.198  50.704  48.278  1.00  0.00     0.001 A 
HETATM   22  C   UNL     1      23.206  49.363  47.905  1.00  0.00     0.019 A 
BRANCH  18  23
HETATM   23  N   UNL     1      19.641  48.383  48.592  1.00  0.00    -0.291 NA
HETATM   24  C   UNL     1      18.696  48.803  47.556  1.00  0.00     0.116 C 
HETATM   25  C   UNL     1      19.069  48.290  49.938  1.00  0.00     0.116 C 
ENDBRANCH  18  23
ENDBRANCH  14  17
ENDBRANCH  12  13
ENDBRANCH   1  12
BRANCH   6  26
HETATM   26  C   UNL     1      28.254  43.976  52.262  1.00  0.00     0.235 C 
BRANCH  26  27
HETATM   27  C   UNL     1      28.424  43.313  53.624  1.00  0.00     0.032 C 
BRANCH  27  28
HETATM   28  C   UNL     1      29.880  43.057  54.017  1.00  0.00     0.040 C 
BRANCH  28  29
HETATM   29  C   UNL     1      30.219  43.782  55.293  1.00  0.00    -0.058 A 
HETATM   30  C   UNL     1      31.137  43.229  56.198  1.00  0.00     0.007 A 
HETATM   31  C   UNL     1      31.419  43.877  57.401  1.00  0.00     0.001 A 
HETATM   32  C   UNL     1      30.786  45.079  57.712  1.00  0.00     0.000 A 
HETATM   33  C   UNL     1      29.872  45.634  56.820  1.00  0.00     0.001 A 
HETATM   34  C   UNL     1      29.587  44.990  55.616  1.00  0.00     0.007 A 
ENDBRANCH  28  29
ENDBRANCH  27  28
ENDBRANCH  26  27
ENDBRANCH   6  26
TORSDOF 8
ENDMDL
MODEL 3
REMARK VINA RESULT:      -9.1      1.821      3.094
REMARK  8 active torsions:
REMARK  status: ('A' for Active; 'I' for Inactive)
REMARK    1  A    between atoms: N_2  and  C_3 
REMARK    2  A    between atoms: C_4  and  C_5 
REMARK       I    between atoms: C_5  and  N_6 
REMARK    3  A    between atoms: N_6  and  C_7 
REMARK    4  A    between atoms: C_7  and  C_8 
REMARK    5  A    between atoms: N_13  and  C_15 
REMARK    6  A    between atoms: C_15  and  C_16 
REMARK    7  A    between atoms: C_16  and  C_17 
REMARK    8  A    between atoms: C_17  and  C_18 
ROOT
HETATM    1  C   UNL     1      22.728  43.825  49.537  1.00  0.00     0.140 C 
HETATM    2  O   UNL     1      23.734  44.205  50.496  1.00  0.00    -0.373 OA
HETATM    3  C   UNL     1      24.936  43.446  50.263  1.00  0.00     0.064 C 
HETATM    4  C   UNL     1      25.270  42.753  51.589  1.00  0.00     0.066 C 
HETATM    5  C   UNL     1      25.595  43.771  52.680  1.00  0.00     0.237 C 
HETATM    6  N   UNL     1      26.713  44.702  52.250  1.00  0.00    -0.071 N 
HETATM    7  H   UNL     1      26.727  45.444  52.961  1.00  0.00     0.279 HD
HETATM    8  C   UNL     1      26.330  45.416  50.963  1.00  0.00     0.237 C 
HETATM    9  C   UNL     1      26.066  44.401  49.866  1.00  0.00     0.066 C 
HETATM   10  C   UNL     1      24.620  42.453  49.141  1.00  0.00     0.041 C 
HETATM   11  C   UNL     1      23.109  42.416  49.119  1.00  0.00     0.036 C 
ENDROOT
BRANCH   1  12
HETATM   12  C   UNL     1      22.700  44.818  48.359  1.00  0.00     0.155 C 
BRANCH  12  13
HETATM   13  N   UNL     1      22.437  46.178  48.798  1.00  0.00    -0.354 N 
HETATM   14  C   UNL     1      22.066  47.189  47.928  1.00  0.00     0.253 C 
HETATM   15  O   UNL     1      21.894  47.024  46.726  1.00  0.00    -0.268 OA
HETATM   16  H   UNL     1      22.652  46.421  49.758  1.00  0.00     0.162 HD
BRANCH  14  17
HETATM   17  C   UNL     1      21.855  48.511  48.586  1.00  0.00     0.053 A 
HETATM   18  C   UNL     1      22.899  49.454  48.734  1.00  0.00     0.025 A 
HETATM   19  C   UNL     1      22.584  50.665  49.384  1.00  0.00     0.025 A 
HETATM   20  C   UNL     1      21.294  50.938  49.850  1.00  0.00     0.002 A 
HETATM   21  C   UNL     1      20.278  50.008  49.676  1.00  0.00     0.001 A 
HETATM   22  C   UNL     1      20.554  48.799  49.043  1.00  0.00     0.019 A 
BRANCH  18  23
HETATM   23  N   UNL     1      24.225  49.172  48.313  1.00  0.00    -0.291 NA
HETATM   24  C   UNL     1      24.963  48.468  49.363  1.00  0.00     0.116 C 
HETATM   25  C   UNL     1      24.932  50.315  47.731  1.00  0.00     0.116 C 
ENDBRANCH  18  23
ENDBRANCH  14  17
ENDBRANCH  12  13
ENDBRANCH   1  12
BRANCH   6  26
HETATM   26  C   UNL     1      28.072  44.039  52.286  1.00  0.00     0.235 C 
BRANCH  26  27
HETATM   27  C   UNL     1      28.359  43.282  53.577  1.00  0.00     0.032 C 
BRANCH  27  28
HETATM   28  C   UNL     1      29.848  43.127  53.894  1.00  0.00     0.040 C 
BRANCH  28  29
HETATM   29  C   UNL     1      30.187  43.808  55.194  1.00  0.00    -0.058 A 
HETATM   30  C   UNL     1      31.099  43.221  56.082  1.00  0.00     0.007 A 
HETATM   31  C   UNL     1      31.381  43.828  57.307  1.00  0.00     0.001 A 
HETATM   32  C   UNL     1      30.753  45.021  57.656  1.00  0.00     0.000 A 
HETATM   33  C   UNL     1      29.843  45.610  56.781  1.00  0.00     0.001 A 
HETATM   34  C   UNL     1      29.558  45.007  55.555  1.00  0.00     0.007 A 
ENDBRANCH  28  29
ENDBRANCH  27  28
ENDBRANCH  26  27
ENDBRANCH   6  26
TORSDOF 8
ENDMDL
MODEL 4
REMARK VINA RESULT:      -9.1      1.402      1.981
REMARK  8 active torsions:
REMARK  status: ('A' for Active; 'I' for Inactive)
REMARK    1  A    between atoms: N_2  and  C_3 
REMARK    2  A    between atoms: C_4  and  C_5 
REMARK       I    between atoms: C_5  and  N_6 
REMARK    3  A    between atoms: N_6  and  C_7 
REMARK    4  A    between atoms: C_7  and  C_8 
REMARK    5  A    between atoms: N_13  and  C_15 
REMARK    6  A    between atoms: C_15  and  C_16 
REMARK    7  A    between atoms: C_16  and  C_17 
REMARK    8  A    between atoms: C_17  and  C_18 
ROOT
HETATM    1  C   UNL     1      22.784  44.767  49.502  1.00  0.00     0.140 C 
HETATM    2  O   UNL     1      23.828  44.829  50.492  1.00  0.00    -0.373 OA
HETATM    3  C   UNL     1      24.929  43.991  50.088  1.00  0.00     0.064 C 
HETATM    4  C   UNL     1      25.176  43.019  51.248  1.00  0.00     0.066 C 
HETATM    5  C   UNL     1      25.623  43.759  52.507  1.00  0.00     0.237 C 
HETATM    6  N   UNL     1      26.846  44.615  52.237  1.00  0.00    -0.071 N 
HETATM    7  H   UNL     1      26.951  45.197  53.077  1.00  0.00     0.279 HD
HETATM    8  C   UNL     1      26.553  45.606  51.121  1.00  0.00     0.237 C 
HETATM    9  C   UNL     1      26.167  44.862  49.855  1.00  0.00     0.066 C 
HETATM   10  C   UNL     1      24.493  43.280  48.805  1.00  0.00     0.041 C 
HETATM   11  C   UNL     1      22.989  43.430  48.812  1.00  0.00     0.036 C 
ENDROOT
BRANCH   1  12
HETATM   12  C   UNL     1      22.877  45.965  48.538  1.00  0.00     0.155 C 
BRANCH  12  13
HETATM   13  N   UNL     1      21.928  47.012  48.875  1.00  0.00    -0.354 N 
HETATM   14  C   UNL     1      22.063  48.317  48.434  1.00  0.00     0.253 C 
HETATM   15  O   UNL     1      22.967  48.699  47.699  1.00  0.00    -0.268 OA
HETATM   16  H   UNL     1      21.208  46.804  49.557  1.00  0.00     0.162 HD
BRANCH  14  17
HETATM   17  C   UNL     1      20.983  49.233  48.904  1.00  0.00     0.053 A 
HETATM   18  C   UNL     1      19.617  48.989  48.631  1.00  0.00     0.025 A 
HETATM   19  C   UNL     1      18.685  49.930  49.116  1.00  0.00     0.025 A 
HETATM   20  C   UNL     1      19.085  51.051  49.851  1.00  0.00     0.002 A 
HETATM   21  C   UNL     1      20.430  51.262  50.127  1.00  0.00     0.001 A 
HETATM   22  C   UNL     1      21.376  50.355  49.660  1.00  0.00     0.019 A 
BRANCH  18  23
HETATM   23  N   UNL     1      19.199  47.884  47.843  1.00  0.00    -0.291 NA
HETATM   24  C   UNL     1      18.936  48.301  46.465  1.00  0.00     0.116 C 
HETATM   25  C   UNL     1      18.139  47.074  48.449  1.00  0.00     0.116 C 
ENDBRANCH  18  23
ENDBRANCH  14  17
ENDBRANCH  12  13
ENDBRANCH   1  12
BRANCH   6  26
HETATM   26  C   UNL     1      28.113  43.799  52.112  1.00  0.00     0.235 C 
BRANCH  26  27
HETATM   27  C   UNL     1      28.859  43.605  53.427  1.00  0.00     0.032 C 
BRANCH  27  28
HETATM   28  C   UNL     1      28.666  44.743  54.430  1.00  0.00     0.040 C 
BRANCH  28  29
HETATM   29  C   UNL     1      29.648  44.622  55.565  1.00  0.00    -0.058 A 
HETATM   30  C   UNL     1      30.513  43.521  55.637  1.00  0.00     0.007 A 
HETATM   31  C   UNL     1      31.393  43.384  56.711  1.00  0.00     0.001 A 
HETATM   32  C   UNL     1      31.415  44.342  57.723  1.00  0.00     0.000 A 
HETATM   33  C   UNL     1      30.558  45.439  57.661  1.00  0.00     0.001 A 
HETATM   34  C   UNL     1      29.676  45.579  56.588  1.00  0.00     0.007 A 
ENDBRANCH  28  29
ENDBRANCH  27  28
ENDBRANCH  26  27
ENDBRANCH   6  26
TORSDOF 8
ENDMDL
MODEL 5
REMARK VINA RESULT:      -9.0      1.557      2.385
REMARK  8 active torsions:
REMARK  status: ('A' for Active; 'I' for Inactive)
REMARK    1  A    between atoms: N_2  and  C_3 
REMARK    2  A    between atoms: C_4  and  C_5 
REMARK       I    between atoms: C_5  and  N_6 
REMARK    3  A    between atoms: N_6  and  C_7 
REMARK    4  A    between atoms: C_7  and  C_8 
REMARK    5  A    between atoms: N_13  and  C_15 
REMARK    6  A    between atoms: C_15  and  C_16 
REMARK    7  A    between atoms: C_16  and  C_17 
REMARK    8  A    between atoms: C_17  and  C_18 
ROOT
HETATM    1  C   UNL     1      24.093  48.264  49.130  1.00  0.00     0.140 C 
HETATM    2  O   UNL     1      24.453  47.021  49.763  1.00  0.00    -0.373 OA
HETATM    3  C   UNL     1      25.835  47.066  50.167  1.00  0.00     0.064 C 
HETATM    4  C   UNL     1      26.511  45.851  49.521  1.00  0.00     0.066 C 
HETATM    5  C   UNL     1      25.936  44.544  50.061  1.00  0.00     0.237 C 
HETATM    6  N   UNL     1      26.029  44.484  51.573  1.00  0.00    -0.071 N 
HETATM    7  H   UNL     1      25.463  43.670  51.841  1.00  0.00     0.279 HD
HETATM    8  C   UNL     1      25.303  45.671  52.188  1.00  0.00     0.237 C 
HETATM    9  C   UNL     1      25.919  46.968  51.693  1.00  0.00     0.066 C 
HETATM   10  C   UNL     1      26.400  48.395  49.658  1.00  0.00     0.041 C 
HETATM   11  C   UNL     1      25.404  48.821  48.604  1.00  0.00     0.036 C 
ENDROOT
BRANCH   1  12
HETATM   12  C   UNL     1      23.398  49.203  50.135  1.00  0.00     0.155 C 
BRANCH  12  13
HETATM   13  N   UNL     1      22.052  49.552  49.715  1.00  0.00    -0.354 N 
HETATM   14  C   UNL     1      21.788  50.555  48.799  1.00  0.00     0.253 C 
HETATM   15  O   UNL     1      22.658  51.212  48.239  1.00  0.00    -0.268 OA
HETATM   16  H   UNL     1      21.272  49.125  50.202  1.00  0.00     0.162 HD
BRANCH  14  17
HETATM   17  C   UNL     1      20.336  50.755  48.516  1.00  0.00     0.053 A 
HETATM   18  C   UNL     1      19.462  49.671  48.265  1.00  0.00     0.025 A 
HETATM   19  C   UNL     1      18.113  49.982  47.998  1.00  0.00     0.025 A 
HETATM   20  C   UNL     1      17.647  51.301  47.996  1.00  0.00     0.002 A 
HETATM   21  C   UNL     1      18.517  52.350  48.264  1.00  0.00     0.001 A 
HETATM   22  C   UNL     1      19.857  52.079  48.528  1.00  0.00     0.019 A 
BRANCH  18  23
HETATM   23  N   UNL     1      19.929  48.332  48.214  1.00  0.00    -0.291 NA
HETATM   24  C   UNL     1      20.119  47.903  46.828  1.00  0.00     0.116 C 
HETATM   25  C   UNL     1      19.171  47.394  49.046  1.00  0.00     0.116 C 
ENDBRANCH  18  23
ENDBRANCH  14  17
ENDBRANCH  12  13
ENDBRANCH   1  12
BRANCH   6  26
HETATM   26  C   UNL     1      27.436  44.216  52.062  1.00  0.00     0.235 C 
BRANCH  26  27
HETATM   27  C   UNL     1      27.500  43.474  53.392  1.00  0.00     0.032 C 
BRANCH  27  28
HETATM   28  C   UNL     1      28.883  42.915  53.730  1.00  0.00     0.040 C 
BRANCH  28  29
HETATM   29  C   UNL     1      29.526  43.721  54.829  1.00  0.00    -0.058 A 
HETATM   30  C   UNL     1      30.655  43.227  55.499  1.00  0.00     0.007 A 
HETATM   31  C   UNL     1      31.226  43.952  56.546  1.00  0.00     0.001 A 
HETATM   32  C   UNL     1      30.673  45.170  56.935  1.00  0.00     0.000 A 
HETATM   33  C   UNL     1      29.550  45.666  56.277  1.00  0.00     0.001 A 
HETATM   34  C   UNL     1      28.977  44.946  55.229  1.00  0.00     0.007 A 
ENDBRANCH  28  29
ENDBRANCH  27  28
ENDBRANCH  26  27
ENDBRANCH   6  26
TORSDOF 8
ENDMDL
MODEL 6
REMARK VINA RESULT:      -8.9      1.893      2.839
REMARK  8 active torsions:
REMARK  status: ('A' for Active; 'I' for Inactive)
REMARK    1  A    between atoms: N_2  and  C_3 
REMARK    2  A    between atoms: C_4  and  C_5 
REMARK       I    between atoms: C_5  and  N_6 
REMARK    3  A    between atoms: N_6  and  C_7 
REMARK    4  A    between atoms: C_7  and  C_8 
REMARK    5  A    between atoms: N_13  and  C_15 
REMARK    6  A    between atoms: C_15  and  C_16 
REMARK    7  A    between atoms: C_16  and  C_17 
REMARK    8  A    between atoms: C_17  and  C_18 
ROOT
HETATM    1  C   UNL     1      24.622  46.449  49.456  1.00  0.00     0.140 C 
HETATM    2  O   UNL     1      25.386  45.233  49.574  1.00  0.00    -0.373 OA
HETATM    3  C   UNL     1      25.608  44.935  50.966  1.00  0.00     0.064 C 
HETATM    4  C   UNL     1      27.125  44.798  51.138  1.00  0.00     0.066 C 
HETATM    5  C   UNL     1      27.670  43.615  50.341  1.00  0.00     0.237 C 
HETATM    6  N   UNL     1      26.957  42.328  50.708  1.00  0.00    -0.071 N 
HETATM    7  H   UNL     1      27.262  41.646  50.002  1.00  0.00     0.279 HD
HETATM    8  C   UNL     1      25.461  42.475  50.474  1.00  0.00     0.237 C 
HETATM    9  C   UNL     1      24.915  43.614  51.316  1.00  0.00     0.066 C 
HETATM   10  C   UNL     1      25.026  46.103  51.766  1.00  0.00     0.041 C 
HETATM   11  C   UNL     1      24.907  47.207  50.740  1.00  0.00     0.036 C 
ENDROOT
BRANCH   1  12
HETATM   12  C   UNL     1      23.127  46.134  49.259  1.00  0.00     0.155 C 
BRANCH  12  13
HETATM   13  N   UNL     1      22.318  47.339  49.196  1.00  0.00    -0.354 N 
HETATM   14  C   UNL     1      21.847  47.865  48.006  1.00  0.00     0.253 C 
HETATM   15  O   UNL     1      22.038  47.351  46.910  1.00  0.00    -0.268 OA
HETATM   16  H   UNL     1      22.198  47.880  50.045  1.00  0.00     0.162 HD
BRANCH  14  17
HETATM   17  C   UNL     1      21.045  49.113  48.168  1.00  0.00     0.053 A 
HETATM   18  C   UNL     1      19.632  49.111  48.120  1.00  0.00     0.025 A 
HETATM   19  C   UNL     1      18.981  50.353  48.274  1.00  0.00     0.025 A 
HETATM   20  C   UNL     1      19.694  51.538  48.481  1.00  0.00     0.002 A 
HETATM   21  C   UNL     1      21.081  51.516  48.545  1.00  0.00     0.001 A 
HETATM   22  C   UNL     1      21.756  50.308  48.394  1.00  0.00     0.019 A 
BRANCH  18  23
HETATM   23  N   UNL     1      18.895  47.926  47.860  1.00  0.00    -0.291 NA
HETATM   24  C   UNL     1      18.295  47.972  46.526  1.00  0.00     0.116 C 
HETATM   25  C   UNL     1      17.974  47.536  48.931  1.00  0.00     0.116 C 
ENDBRANCH  18  23
ENDBRANCH  14  17
ENDBRANCH  12  13
ENDBRANCH   1  12
BRANCH   6  26
HETATM   26  C   UNL     1      27.389  41.784  52.053  1.00  0.00     0.235 C 
BRANCH  26  27
HETATM   27  C   UNL     1      28.806  42.177  52.455  1.00  0.00     0.032 C 
BRANCH  27  28
HETATM   28  C   UNL     1      29.146  41.881  53.916  1.00  0.00     0.040 C 
BRANCH  28  29
HETATM   29  C   UNL     1      29.420  43.159  54.666  1.00  0.00    -0.058 A 
HETATM   30  C   UNL     1      28.533  44.240  54.568  1.00  0.00     0.007 A 
HETATM   31  C   UNL     1      28.808  45.439  55.226  1.00  0.00     0.001 A 
HETATM   32  C   UNL     1      29.970  45.571  55.983  1.00  0.00     0.000 A 
HETATM   33  C   UNL     1      30.858  44.502  56.084  1.00  0.00     0.001 A 
HETATM   34  C   UNL     1      30.587  43.301  55.428  1.00  0.00     0.007 A 
ENDBRANCH  28  29
ENDBRANCH  27  28
ENDBRANCH  26  27
ENDBRANCH   6  26
TORSDOF 8
ENDMDL
MODEL 7
REMARK VINA RESULT:      -8.7      2.504     10.464
REMARK  8 active torsions:
REMARK  status: ('A' for Active; 'I' for Inactive)
REMARK    1  A    between atoms: N_2  and  C_3 
REMARK    2  A    between atoms: C_4  and  C_5 
REMARK       I    between atoms: C_5  and  N_6 
REMARK    3  A    between atoms: N_6  and  C_7 
REMARK    4  A    between atoms: C_7  and  C_8 
REMARK    5  A    between atoms: N_13  and  C_15 
REMARK    6  A    between atoms: C_15  and  C_16 
REMARK    7  A    between atoms: C_16  and  C_17 
REMARK    8  A    between atoms: C_17  and  C_18 
ROOT
HETATM    1  C   UNL     1      28.320  42.202  51.678  1.00  0.00     0.140 C 
HETATM    2  O   UNL     1      27.510  43.376  51.478  1.00  0.00    -0.373 OA
HETATM    3  C   UNL     1      26.348  43.036  50.698  1.00  0.00     0.064 C 
HETATM    4  C   UNL     1      26.351  43.977  49.488  1.00  0.00     0.066 C 
HETATM    5  C   UNL     1      26.184  45.433  49.917  1.00  0.00     0.237 C 
HETATM    6  N   UNL     1      24.933  45.620  50.755  1.00  0.00    -0.071 N 
HETATM    7  H   UNL     1      25.011  46.571  51.136  1.00  0.00     0.279 HD
HETATM    8  C   UNL     1      24.984  44.715  51.976  1.00  0.00     0.237 C 
HETATM    9  C   UNL     1      25.090  43.264  51.542  1.00  0.00     0.066 C 
HETATM   10  C   UNL     1      26.498  41.565  50.302  1.00  0.00     0.041 C 
HETATM   11  C   UNL     1      27.970  41.291  50.514  1.00  0.00     0.036 C 
ENDROOT
BRANCH   1  12
HETATM   12  C   UNL     1      28.026  41.568  53.051  1.00  0.00     0.155 C 
BRANCH  12  13
HETATM   13  N   UNL     1      28.528  42.381  54.146  1.00  0.00    -0.354 N 
HETATM   14  C   UNL     1      29.789  42.950  54.141  1.00  0.00     0.253 C 
HETATM   15  O   UNL     1      30.578  42.851  53.208  1.00  0.00    -0.268 OA
HETATM   16  H   UNL     1      27.978  42.430  54.996  1.00  0.00     0.162 HD
BRANCH  14  17
HETATM   17  C   UNL     1      30.106  43.738  55.368  1.00  0.00     0.053 A 
HETATM   18  C   UNL     1      29.445  44.950  55.676  1.00  0.00     0.025 A 
HETATM   19  C   UNL     1      29.837  45.614  56.857  1.00  0.00     0.025 A 
HETATM   20  C   UNL     1      30.823  45.094  57.702  1.00  0.00     0.002 A 
HETATM   21  C   UNL     1      31.445  43.892  57.392  1.00  0.00     0.001 A 
HETATM   22  C   UNL     1      31.086  43.212  56.232  1.00  0.00     0.019 A 
BRANCH  18  23
HETATM   23  N   UNL     1      28.479  45.516  54.804  1.00  0.00    -0.291 NA
HETATM   24  C   UNL     1      28.604  46.974  54.769  1.00  0.00     0.116 C 
HETATM   25  C   UNL     1      27.114  45.025  55.010  1.00  0.00     0.116 C 
ENDBRANCH  18  23
ENDBRANCH  14  17
ENDBRANCH  12  13
ENDBRANCH   1  12
BRANCH   6  26
HETATM   26  C   UNL     1      23.667  45.584  49.929  1.00  0.00     0.235 C 
BRANCH  26  27
HETATM   27  C   UNL     1      23.538  46.737  48.939  1.00  0.00     0.032 C 
BRANCH  27  28
HETATM   28  C   UNL     1      23.605  48.123  49.582  1.00  0.00     0.040 C 
BRANCH  28  29
HETATM   29  C   UNL     1      22.536  49.021  49.016  1.00  0.00    -0.058 A 
HETATM   30  C   UNL     1      21.526  48.491  48.201  1.00  0.00     0.007 A 
HETATM   31  C   UNL     1      20.560  49.328  47.639  1.00  0.00     0.001 A 
HETATM   32  C   UNL     1      20.597  50.699  47.883  1.00  0.00     0.000 A 
HETATM   33  C   UNL     1      21.599  51.235  48.690  1.00  0.00     0.001 A 
HETATM   34  C   UNL     1      22.566  50.401  49.253  1.00  0.00     0.007 A 
ENDBRANCH  28  29
ENDBRANCH  27  28
ENDBRANCH  26  27
ENDBRANCH   6  26
TORSDOF 8
ENDMDL
MODEL 8
REMARK VINA RESULT:      -8.6      3.209     11.693
REMARK  8 active torsions:
REMARK  status: ('A' for Active; 'I' for Inactive)
REMARK    1  A    between atoms: N_2  and  C_3 
REMARK    2  A    between atoms: C_4  and  C_5 
REMARK       I    between atoms: C_5  and  N_6 
REMARK    3  A    between atoms: N_6  and  C_7 
REMARK    4  A    between atoms: C_7  and  C_8 
REMARK    5  A    between atoms: N_13  and  C_15 
REMARK    6  A    between atoms: C_15  and  C_16 
REMARK    7  A    between atoms: C_16  and  C_17 
REMARK    8  A    between atoms: C_17  and  C_18 
ROOT
HETATM    1  C   UNL     1      22.620  49.718  49.519  1.00  0.00     0.140 C 
HETATM    2  O   UNL     1      21.195  49.511  49.571  1.00  0.00    -0.373 OA
HETATM    3  C   UNL     1      20.582  50.068  48.392  1.00  0.00     0.064 C 
HETATM    4  C   UNL     1      19.514  51.050  48.886  1.00  0.00     0.066 C 
HETATM    5  C   UNL     1      18.411  50.328  49.657  1.00  0.00     0.237 C 
HETATM    6  N   UNL     1      17.795  49.218  48.827  1.00  0.00    -0.071 N 
HETATM    7  H   UNL     1      17.209  48.690  49.486  1.00  0.00     0.279 HD
HETATM    8  C   UNL     1      18.869  48.230  48.398  1.00  0.00     0.237 C 
HETATM    9  C   UNL     1      19.932  48.943  47.581  1.00  0.00     0.066 C 
HETATM   10  C   UNL     1      21.696  50.758  47.600  1.00  0.00     0.041 C 
HETATM   11  C   UNL     1      22.800  50.927  48.619  1.00  0.00     0.036 C 
ENDROOT
BRANCH   1  12
HETATM   12  C   UNL     1      23.332  48.458  48.989  1.00  0.00     0.155 C 
BRANCH  12  13
HETATM   13  N   UNL     1      23.736  47.567  50.063  1.00  0.00    -0.354 N 
HETATM   14  C   UNL     1      25.037  47.499  50.531  1.00  0.00     0.253 C 
HETATM   15  O   UNL     1      25.950  48.199  50.111  1.00  0.00    -0.268 OA
HETATM   16  H   UNL     1      23.065  46.885  50.397  1.00  0.00     0.162 HD
BRANCH  14  17
HETATM   17  C   UNL     1      25.236  46.511  51.631  1.00  0.00     0.053 A 
HETATM   18  C   UNL     1      25.033  45.124  51.444  1.00  0.00     0.025 A 
HETATM   19  C   UNL     1      25.240  44.287  52.560  1.00  0.00     0.025 A 
HETATM   20  C   UNL     1      25.645  44.796  53.798  1.00  0.00     0.002 A 
HETATM   21  C   UNL     1      25.858  46.159  53.956  1.00  0.00     0.001 A 
HETATM   22  C   UNL     1      25.659  47.015  52.877  1.00  0.00     0.019 A 
BRANCH  18  23
HETATM   23  N   UNL     1      24.574  44.597  50.209  1.00  0.00    -0.291 NA
HETATM   24  C   UNL     1      23.355  43.810  50.403  1.00  0.00     0.116 C 
HETATM   25  C   UNL     1      25.609  43.934  49.410  1.00  0.00     0.116 C 
ENDBRANCH  18  23
ENDBRANCH  14  17
ENDBRANCH  12  13
ENDBRANCH   1  12
BRANCH   6  26
HETATM   26  C   UNL     1      16.874  49.739  47.747  1.00  0.00     0.235 C 
BRANCH  26  27
HETATM   27  C   UNL     1      15.727  50.596  48.269  1.00  0.00     0.032 C 
BRANCH  27  28
HETATM   28  C   UNL     1      15.718  52.027  47.728  1.00  0.00     0.040 C 
BRANCH  28  29
HETATM   29  C   UNL     1      15.072  52.962  48.717  1.00  0.00    -0.058 A 
HETATM   30  C   UNL     1      14.287  54.034  48.267  1.00  0.00     0.007 A 
HETATM   31  C   UNL     1      13.725  54.927  49.179  1.00  0.00     0.001 A 
HETATM   32  C   UNL     1      13.945  54.763  50.545  1.00  0.00     0.000 A 
HETATM   33  C   UNL     1      14.726  53.703  51.001  1.00  0.00     0.001 A 
HETATM   34  C   UNL     1      15.289  52.806  50.092  1.00  0.00     0.007 A 
ENDBRANCH  28  29
ENDBRANCH  27  28
ENDBRANCH  26  27
ENDBRANCH   6  26
TORSDOF 8
ENDMDL
MODEL 9
REMARK VINA RESULT:      -8.2      5.031      8.122
REMARK  8 active torsions:
REMARK  status: ('A' for Active; 'I' for Inactive)
REMARK    1  A    between atoms: N_2  and  C_3 
REMARK    2  A    between atoms: C_4  and  C_5 
REMARK       I    between atoms: C_5  and  N_6 
REMARK    3  A    between atoms: N_6  and  C_7 
REMARK    4  A    between atoms: C_7  and  C_8 
REMARK    5  A    between atoms: N_13  and  C_15 
REMARK    6  A    between atoms: C_15  and  C_16 
REMARK    7  A    between atoms: C_16  and  C_17 
REMARK    8  A    between atoms: C_17  and  C_18 
ROOT
HETATM    1  C   UNL     1      24.395  42.601  48.332  1.00  0.00     0.140 C 
HETATM    2  O   UNL     1      25.165  43.578  49.058  1.00  0.00    -0.373 OA
HETATM    3  C   UNL     1      24.467  43.946  50.263  1.00  0.00     0.064 C 
HETATM    4  C   UNL     1      24.316  45.471  50.224  1.00  0.00     0.066 C 
HETATM    5  C   UNL     1      25.675  46.165  50.271  1.00  0.00     0.237 C 
HETATM    6  N   UNL     1      26.476  45.724  51.481  1.00  0.00    -0.071 N 
HETATM    7  H   UNL     1      27.420  46.098  51.323  1.00  0.00     0.279 HD
HETATM    8  C   UNL     1      26.658  44.214  51.464  1.00  0.00     0.237 C 
HETATM    9  C   UNL     1      25.303  43.529  51.477  1.00  0.00     0.066 C 
HETATM   10  C   UNL     1      23.121  43.218  50.233  1.00  0.00     0.041 C 
HETATM   11  C   UNL     1      22.963  42.830  48.780  1.00  0.00     0.036 C 
ENDROOT
BRANCH   1  12
HETATM   12  C   UNL     1      24.902  41.177  48.634  1.00  0.00     0.155 C 
BRANCH  12  13
HETATM   13  N   UNL     1      25.700  40.640  47.545  1.00  0.00    -0.354 N 
HETATM   14  C   UNL     1      27.037  40.949  47.371  1.00  0.00     0.253 C 
HETATM   15  O   UNL     1      27.674  41.670  48.130  1.00  0.00    -0.268 OA
HETATM   16  H   UNL     1      25.227  40.115  46.819  1.00  0.00     0.162 HD
BRANCH  14  17
HETATM   17  C   UNL     1      27.664  40.296  46.185  1.00  0.00     0.053 A 
HETATM   18  C   UNL     1      27.948  38.911  46.151  1.00  0.00     0.025 A 
HETATM   19  C   UNL     1      28.552  38.407  44.980  1.00  0.00     0.025 A 
HETATM   20  C   UNL     1      28.845  39.231  43.888  1.00  0.00     0.002 A 
HETATM   21  C   UNL     1      28.539  40.585  43.934  1.00  0.00     0.001 A 
HETATM   22  C   UNL     1      27.946  41.116  45.075  1.00  0.00     0.019 A 
BRANCH  18  23
HETATM   23  N   UNL     1      27.704  38.071  47.268  1.00  0.00    -0.291 NA
HETATM   24  C   UNL     1      28.933  37.859  48.035  1.00  0.00     0.116 C 
HETATM   25  C   UNL     1      26.960  36.847  46.956  1.00  0.00     0.116 C 
ENDBRANCH  18  23
ENDBRANCH  14  17
ENDBRANCH  12  13
ENDBRANCH   1  12
BRANCH   6  26
HETATM   26  C   UNL     1      25.975  46.338  52.769  1.00  0.00     0.235 C 
BRANCH  26  27
HETATM   27  C   UNL     1      26.471  45.635  54.027  1.00  0.00     0.032 C 
BRANCH  27  28
HETATM   28  C   UNL     1      27.691  46.294  54.672  1.00  0.00     0.040 C 
BRANCH  28  29
HETATM   29  C   UNL     1      28.736  45.262  55.008  1.00  0.00    -0.058 A 
HETATM   30  C   UNL     1      29.766  45.567  55.910  1.00  0.00     0.007 A 
HETATM   31  C   UNL     1      30.760  44.628  56.188  1.00  0.00     0.001 A 
HETATM   32  C   UNL     1      30.736  43.380  55.567  1.00  0.00     0.000 A 
HETATM   33  C   UNL     1      29.717  43.070  54.668  1.00  0.00     0.001 A 
HETATM   34  C   UNL     1      28.722  44.007  54.387  1.00  0.00     0.007 A 
ENDBRANCH  28  29
ENDBRANCH  27  28
ENDBRANCH  26  27
ENDBRANCH   6  26
TORSDOF 8
ENDMDL
MODEL 10
REMARK VINA RESULT:      -8.2      3.084     10.887
REMARK  8 active torsions:
REMARK  status: ('A' for Active; 'I' for Inactive)
REMARK    1  A    between atoms: N_2  and  C_3 
REMARK    2  A    between atoms: C_4  and  C_5 
REMARK       I    between atoms: C_5  and  N_6 
REMARK    3  A    between atoms: N_6  and  C_7 
REMARK    4  A    between atoms: C_7  and  C_8 
REMARK    5  A    between atoms: N_13  and  C_15 
REMARK    6  A    between atoms: C_15  and  C_16 
REMARK    7  A    between atoms: C_16  and  C_17 
REMARK    8  A    between atoms: C_17  and  C_18 
ROOT
HETATM    1  C   UNL     1      24.946  47.902  49.960  1.00  0.00     0.140 C 
HETATM    2  O   UNL     1      23.661  48.551  50.013  1.00  0.00    -0.373 OA
HETATM    3  C   UNL     1      23.523  49.444  48.892  1.00  0.00     0.064 C 
HETATM    4  C   UNL     1      23.198  50.823  49.478  1.00  0.00     0.066 C 
HETATM    5  C   UNL     1      21.853  50.814  50.202  1.00  0.00     0.237 C 
HETATM    6  N   UNL     1      20.741  50.327  49.294  1.00  0.00    -0.071 N 
HETATM    7  H   UNL     1      19.935  50.186  49.915  1.00  0.00     0.279 HD
HETATM    8  C   UNL     1      21.066  48.935  48.772  1.00  0.00     0.237 C 
HETATM    9  C   UNL     1      22.374  48.963  48.002  1.00  0.00     0.066 C 
HETATM   10  C   UNL     1      24.859  49.422  48.144  1.00  0.00     0.041 C 
HETATM   11  C   UNL     1      25.821  48.848  49.159  1.00  0.00     0.036 C 
ENDROOT
BRANCH   1  12
HETATM   12  C   UNL     1      24.822  46.505  49.321  1.00  0.00     0.155 C 
BRANCH  12  13
HETATM   13  N   UNL     1      25.401  45.468  50.157  1.00  0.00    -0.354 N 
HETATM   14  C   UNL     1      26.731  45.095  50.076  1.00  0.00     0.253 C 
HETATM   15  O   UNL     1      27.542  45.622  49.323  1.00  0.00    -0.268 OA
HETATM   16  H   UNL     1      24.779  44.916  50.735  1.00  0.00     0.162 HD
BRANCH  14  17
HETATM   17  C   UNL     1      27.116  44.004  51.019  1.00  0.00     0.053 A 
HETATM   18  C   UNL     1      26.983  42.637  50.683  1.00  0.00     0.025 A 
HETATM   19  C   UNL     1      27.367  41.694  51.659  1.00  0.00     0.025 A 
HETATM   20  C   UNL     1      27.875  42.086  52.902  1.00  0.00     0.002 A 
HETATM   21  C   UNL     1      28.017  43.434  53.205  1.00  0.00     0.001 A 
HETATM   22  C   UNL     1      27.643  44.391  52.266  1.00  0.00     0.019 A 
BRANCH  18  23
HETATM   23  N   UNL     1      26.423  42.223  49.446  1.00  0.00    -0.291 NA
HETATM   24  C   UNL     1      25.100  41.630  49.650  1.00  0.00     0.116 C 
HETATM   25  C   UNL     1      27.325  41.431  48.606  1.00  0.00     0.116 C 
ENDBRANCH  18  23
ENDBRANCH  14  17
ENDBRANCH  12  13
ENDBRANCH   1  12
BRANCH   6  26
HETATM   26  C   UNL     1      20.328  51.362  48.271  1.00  0.00     0.235 C 
BRANCH  26  27
HETATM   27  C   UNL     1      19.124  52.200  48.687  1.00  0.00     0.032 C 
BRANCH  27  28
HETATM   28  C   UNL     1      18.155  51.480  49.625  1.00  0.00     0.040 C 
BRANCH  28  29
HETATM   29  C   UNL     1      17.261  50.546  48.851  1.00  0.00    -0.058 A 
HETATM   30  C   UNL     1      16.274  51.059  47.997  1.00  0.00     0.007 A 
HETATM   31  C   UNL     1      15.417  50.197  47.312  1.00  0.00     0.001 A 
HETATM   32  C   UNL     1      15.535  48.819  47.477  1.00  0.00     0.000 A 
HETATM   33  C   UNL     1      16.511  48.301  48.325  1.00  0.00     0.001 A 
HETATM   34  C   UNL     1      17.371  49.159  49.011  1.00  0.00     0.007 A 
ENDBRANCH  28  29
ENDBRANCH  27  28
ENDBRANCH  26  27
ENDBRANCH   6  26
TORSDOF 8
ENDMDL
