MODEL 1
REMARK VINA RESULT:      -9.4      0.000      0.000
REMARK  4 active torsions:
REMARK  status: ('A' for Active; 'I' for Inactive)
REMARK    1  A    between atoms: C_7  and  C_8 
REMARK    2  A    between atoms: C_11  and  O_12 
REMARK    3  A    between atoms: C_17  and  C_18 
REMARK    4  A    between atoms: C_25  and  C_26 
REMARK       I    between atoms: C_26  and  N_27 
ROOT
HETATM    1  C   UNL     1      23.813  41.907  48.797  1.00  0.00     0.070 C 
HETATM    2  C   UNL     1      24.416  42.909  49.751  1.00  0.00     0.037 A 
HETATM    3  N   UNL     1      25.481  42.445  50.516  1.00  0.00    -0.192 N 
HETATM    4  C   UNL     1      26.115  43.196  51.435  1.00  0.00     0.726 A 
HETATM    5  N   UNL     1      25.720  44.487  51.633  1.00  0.00    -0.083 N 
HETATM    6  N   UNL     1      26.393  45.060  52.649  1.00  0.00    -0.135 NA
HETATM    7  C   UNL     1      27.269  44.088  52.968  1.00  0.00     0.199 A 
HETATM    8  N   UNL     1      27.099  42.915  52.249  1.00  0.00    -0.041 NA
HETATM    9  C   UNL     1      24.627  45.136  50.900  1.00  0.00     0.202 A 
HETATM   10  C   UNL     1      23.971  44.180  49.911  1.00  0.00     0.062 A 
HETATM   11  H   UNL     1      25.788  41.488  50.369  1.00  0.00     0.184 HD
ENDROOT
BRANCH   7  12
HETATM   12  C   UNL     1      28.315  44.236  53.976  1.00  0.00     0.014 A 
HETATM   13  C   UNL     1      29.323  43.273  54.115  1.00  0.00     0.018 A 
HETATM   14  C   UNL     1      30.307  43.414  55.099  1.00  0.00     0.037 A 
HETATM   15  C   UNL     1      30.304  44.515  55.958  1.00  0.00     0.068 A 
HETATM   16  C   UNL     1      29.307  45.480  55.823  1.00  0.00     0.037 A 
HETATM   17  C   UNL     1      28.318  45.339  54.840  1.00  0.00     0.018 A 
BRANCH  15  18
HETATM   18  O   UNL     1      31.319  44.526  56.875  1.00  0.00    -0.356 OA
HETATM   19  C   UNL     1      31.889  43.269  57.217  1.00  0.00     0.210 C 
ENDBRANCH  15  18
ENDBRANCH   7  12
BRANCH   9  20
HETATM   20  C   UNL     1      25.125  46.437  50.273  1.00  0.00    -0.028 A 
HETATM   21  C   UNL     1      24.258  47.518  50.027  1.00  0.00     0.012 A 
HETATM   22  C   UNL     1      24.738  48.691  49.440  1.00  0.00     0.043 A 
HETATM   23  C   UNL     1      26.078  48.784  49.085  1.00  0.00     0.116 A 
HETATM   24  F   UNL     1      26.534  49.908  48.518  1.00  0.00    -0.206 F 
HETATM   25  C   UNL     1      26.950  47.726  49.304  1.00  0.00     0.043 A 
HETATM   26  C   UNL     1      26.477  46.554  49.895  1.00  0.00     0.012 A 
ENDBRANCH   9  20
BRANCH  10  27
HETATM   27  C   UNL     1      22.887  44.717  49.059  1.00  0.00     0.249 C 
HETATM   28  N   UNL     1      21.653  44.757  49.626  1.00  0.00    -0.366 N 
HETATM   29  H   UNL     1      21.415  44.368  50.526  1.00  0.00     0.159 HD
HETATM   30  H   UNL     1      20.900  45.106  49.047  1.00  0.00     0.159 HD
HETATM   31  O   UNL     1      23.075  45.105  47.914  1.00  0.00    -0.268 OA
ENDBRANCH  10  27
TORSDOF 4
ENDMDL
MODEL 2
REMARK VINA RESULT:      -9.3      0.570      1.448
REMARK  4 active torsions:
REMARK  status: ('A' for Active; 'I' for Inactive)
REMARK    1  A    between atoms: C_7  and  C_8 
REMARK    2  A    between atoms: C_11  and  O_12 
REMARK    3  A    between atoms: C_17  and  C_18 
REMARK    4  A    between atoms: C_25  and  C_26 
REMARK       I    between atoms: C_26  and  N_27 
ROOT
HETATM    1  C   UNL     1      24.011  41.785  48.876  1.00  0.00     0.070 C 
HETATM    2  C   UNL     1      24.544  42.833  49.823  1.00  0.00     0.037 A 
HETATM    3  N   UNL     1      25.580  42.423  50.655  1.00  0.00    -0.192 N 
HETATM    4  C   UNL     1      26.151  43.219  51.576  1.00  0.00     0.726 A 
HETATM    5  N   UNL     1      25.718  44.507  51.708  1.00  0.00    -0.083 N 
HETATM    6  N   UNL     1      26.327  45.130  52.735  1.00  0.00    -0.135 NA
HETATM    7  C   UNL     1      27.208  44.191  53.130  1.00  0.00     0.199 A 
HETATM    8  N   UNL     1      27.100  42.990  52.446  1.00  0.00    -0.041 NA
HETATM    9  C   UNL     1      24.648  45.103  50.901  1.00  0.00     0.202 A 
HETATM   10  C   UNL     1      24.063  44.099  49.916  1.00  0.00     0.062 A 
HETATM   11  H   UNL     1      25.915  41.468  50.556  1.00  0.00     0.184 HD
ENDROOT
BRANCH   7  12
HETATM   12  C   UNL     1      28.199  44.399  54.182  1.00  0.00     0.014 A 
HETATM   13  C   UNL     1      28.094  45.479  55.068  1.00  0.00     0.018 A 
HETATM   14  C   UNL     1      29.061  45.681  56.058  1.00  0.00     0.037 A 
HETATM   15  C   UNL     1      30.146  44.812  56.183  1.00  0.00     0.068 A 
HETATM   16  C   UNL     1      30.256  43.732  55.308  1.00  0.00     0.037 A 
HETATM   17  C   UNL     1      29.289  43.528  54.314  1.00  0.00     0.018 A 
BRANCH  15  18
HETATM   18  O   UNL     1      31.018  45.128  57.188  1.00  0.00    -0.356 OA
HETATM   19  C   UNL     1      30.558  46.047  58.171  1.00  0.00     0.210 C 
ENDBRANCH  15  18
ENDBRANCH   7  12
BRANCH   9  20
HETATM   20  C   UNL     1      25.147  46.394  50.254  1.00  0.00    -0.028 A 
HETATM   21  C   UNL     1      26.501  46.577  49.917  1.00  0.00     0.012 A 
HETATM   22  C   UNL     1      26.932  47.773  49.340  1.00  0.00     0.043 A 
HETATM   23  C   UNL     1      26.018  48.794  49.110  1.00  0.00     0.116 A 
HETATM   24  F   UNL     1      26.434  49.942  48.561  1.00  0.00    -0.206 F 
HETATM   25  C   UNL     1      24.679  48.643  49.448  1.00  0.00     0.043 A 
HETATM   26  C   UNL     1      24.243  47.448  50.020  1.00  0.00     0.012 A 
ENDBRANCH   9  20
BRANCH  10  27
HETATM   27  C   UNL     1      23.010  44.580  48.994  1.00  0.00     0.249 C 
HETATM   28  N   UNL     1      21.766  44.697  49.526  1.00  0.00    -0.366 N 
HETATM   29  H   UNL     1      21.499  44.394  50.451  1.00  0.00     0.159 HD
HETATM   30  H   UNL     1      21.033  45.008  48.901  1.00  0.00     0.159 HD
HETATM   31  O   UNL     1      23.232  44.859  47.824  1.00  0.00    -0.268 OA
ENDBRANCH  10  27
TORSDOF 4
ENDMDL
MODEL 3
REMARK VINA RESULT:      -8.8      3.360      4.641
REMARK  4 active torsions:
REMARK  status: ('A' for Active; 'I' for Inactive)
REMARK    1  A    between atoms: C_7  and  C_8 
REMARK    2  A    between atoms: C_11  and  O_12 
REMARK    3  A    between atoms: C_17  and  C_18 
REMARK    4  A    between atoms: C_25  and  C_26 
REMARK       I    between atoms: C_26  and  N_27 
ROOT
HETATM    1  C   UNL     1      22.355  43.758  49.941  1.00  0.00     0.070 C 
HETATM    2  C   UNL     1      23.827  43.547  50.198  1.00  0.00     0.037 A 
HETATM    3  N   UNL     1      24.277  43.918  51.461  1.00  0.00    -0.192 N 
HETATM    4  C   UNL     1      25.563  43.824  51.847  1.00  0.00     0.726 A 
HETATM    5  N   UNL     1      26.488  43.326  50.976  1.00  0.00    -0.083 N 
HETATM    6  N   UNL     1      27.732  43.392  51.487  1.00  0.00    -0.135 NA
HETATM    7  C   UNL     1      27.485  43.849  52.729  1.00  0.00     0.199 A 
HETATM    8  N   UNL     1      26.153  44.150  52.967  1.00  0.00    -0.041 NA
HETATM    9  C   UNL     1      26.179  42.874  49.615  1.00  0.00     0.202 A 
HETATM   10  C   UNL     1      24.703  43.055  49.286  1.00  0.00     0.062 A 
HETATM   11  H   UNL     1      23.593  44.281  52.119  1.00  0.00     0.184 HD
ENDROOT
BRANCH   7  12
HETATM   12  C   UNL     1      28.514  44.018  53.752  1.00  0.00     0.014 A 
HETATM   13  C   UNL     1      29.549  43.086  53.893  1.00  0.00     0.018 A 
HETATM   14  C   UNL     1      30.517  43.246  54.890  1.00  0.00     0.037 A 
HETATM   15  C   UNL     1      30.470  44.336  55.761  1.00  0.00     0.068 A 
HETATM   16  C   UNL     1      29.445  45.271  55.625  1.00  0.00     0.037 A 
HETATM   17  C   UNL     1      28.472  45.111  54.628  1.00  0.00     0.018 A 
BRANCH  15  18
HETATM   18  O   UNL     1      31.473  44.368  56.690  1.00  0.00    -0.356 OA
HETATM   19  C   UNL     1      31.921  43.117  57.194  1.00  0.00     0.210 C 
ENDBRANCH  15  18
ENDBRANCH   7  12
BRANCH   9  20
HETATM   20  C   UNL     1      26.694  41.450  49.414  1.00  0.00    -0.028 A 
HETATM   21  C   UNL     1      26.206  40.373  50.178  1.00  0.00     0.012 A 
HETATM   22  C   UNL     1      26.706  39.084  49.983  1.00  0.00     0.043 A 
HETATM   23  C   UNL     1      27.699  38.867  49.037  1.00  0.00     0.116 A 
HETATM   24  F   UNL     1      28.179  37.630  48.854  1.00  0.00    -0.206 F 
HETATM   25  C   UNL     1      28.206  39.915  48.280  1.00  0.00     0.043 A 
HETATM   26  C   UNL     1      27.708  41.204  48.468  1.00  0.00     0.012 A 
ENDBRANCH   9  20
BRANCH  10  27
HETATM   27  C   UNL     1      24.236  42.588  47.962  1.00  0.00     0.249 C 
HETATM   28  N   UNL     1      24.174  43.533  46.988  1.00  0.00    -0.366 N 
HETATM   29  H   UNL     1      24.327  44.521  47.128  1.00  0.00     0.159 HD
HETATM   30  H   UNL     1      23.839  43.229  46.083  1.00  0.00     0.159 HD
HETATM   31  O   UNL     1      23.922  41.426  47.743  1.00  0.00    -0.268 OA
ENDBRANCH  10  27
TORSDOF 4
ENDMDL
MODEL 4
REMARK VINA RESULT:      -8.3     12.438     13.322
REMARK  4 active torsions:
REMARK  status: ('A' for Active; 'I' for Inactive)
REMARK    1  A    between atoms: C_7  and  C_8 
REMARK    2  A    between atoms: C_11  and  O_12 
REMARK    3  A    between atoms: C_17  and  C_18 
REMARK    4  A    between atoms: C_25  and  C_26 
REMARK       I    between atoms: C_26  and  N_27 
ROOT
HETATM    1  C   UNL     1      29.521  45.689  39.440  1.00  0.00     0.070 C 
HETATM    2  C   UNL     1      29.995  47.007  40.003  1.00  0.00     0.037 A 
HETATM    3  N   UNL     1      31.358  47.096  40.264  1.00  0.00    -0.192 N 
HETATM    4  C   UNL     1      31.942  48.186  40.792  1.00  0.00     0.726 A 
HETATM    5  N   UNL     1      31.180  49.281  41.081  1.00  0.00    -0.083 N 
HETATM    6  N   UNL     1      31.903  50.240  41.688  1.00  0.00    -0.135 NA
HETATM    7  C   UNL     1      33.139  49.706  41.648  1.00  0.00     0.199 A 
HETATM    8  N   UNL     1      33.184  48.425  41.123  1.00  0.00    -0.041 NA
HETATM    9  C   UNL     1      29.733  49.360  40.853  1.00  0.00     0.202 A 
HETATM   10  C   UNL     1      29.183  48.059  40.280  1.00  0.00     0.062 A 
HETATM   11  H   UNL     1      31.935  46.289  40.043  1.00  0.00     0.184 HD
ENDROOT
BRANCH   7  12
HETATM   12  C   UNL     1      34.338  50.400  42.109  1.00  0.00     0.014 A 
HETATM   13  C   UNL     1      34.258  51.420  43.065  1.00  0.00     0.018 A 
HETATM   14  C   UNL     1      35.410  52.093  43.484  1.00  0.00     0.037 A 
HETATM   15  C   UNL     1      36.660  51.760  42.959  1.00  0.00     0.068 A 
HETATM   16  C   UNL     1      36.750  50.742  42.010  1.00  0.00     0.037 A 
HETATM   17  C   UNL     1      35.596  50.069  41.587  1.00  0.00     0.018 A 
BRANCH  15  18
HETATM   18  O   UNL     1      37.701  52.498  43.451  1.00  0.00    -0.356 OA
HETATM   19  C   UNL     1      37.395  53.434  44.477  1.00  0.00     0.210 C 
ENDBRANCH  15  18
ENDBRANCH   7  12
BRANCH   9  20
HETATM   20  C   UNL     1      29.407  50.597  40.017  1.00  0.00    -0.028 A 
HETATM   21  C   UNL     1      29.801  50.703  38.670  1.00  0.00     0.012 A 
HETATM   22  C   UNL     1      29.504  51.852  37.935  1.00  0.00     0.043 A 
HETATM   23  C   UNL     1      28.825  52.901  38.542  1.00  0.00     0.116 A 
HETATM   24  F   UNL     1      28.544  54.003  37.836  1.00  0.00    -0.206 F 
HETATM   25  C   UNL     1      28.438  52.826  39.874  1.00  0.00     0.043 A 
HETATM   26  C   UNL     1      28.730  51.678  40.612  1.00  0.00     0.012 A 
ENDBRANCH   9  20
BRANCH  10  27
HETATM   27  C   UNL     1      27.743  48.014  39.946  1.00  0.00     0.249 C 
HETATM   28  N   UNL     1      26.896  47.874  40.999  1.00  0.00    -0.366 N 
HETATM   29  H   UNL     1      27.177  47.705  41.952  1.00  0.00     0.159 HD
HETATM   30  H   UNL     1      25.908  47.824  40.781  1.00  0.00     0.159 HD
HETATM   31  O   UNL     1      27.326  48.098  38.799  1.00  0.00    -0.268 OA
ENDBRANCH  10  27
TORSDOF 4
ENDMDL
MODEL 5
REMARK VINA RESULT:      -8.2      4.809      9.855
REMARK  4 active torsions:
REMARK  status: ('A' for Active; 'I' for Inactive)
REMARK    1  A    between atoms: C_7  and  C_8 
REMARK    2  A    between atoms: C_11  and  O_12 
REMARK    3  A    between atoms: C_17  and  C_18 
REMARK    4  A    between atoms: C_25  and  C_26 
REMARK       I    between atoms: C_26  and  N_27 
ROOT
HETATM    1  C   UNL     1      27.631  48.840  49.124  1.00  0.00     0.070 C 
HETATM    2  C   UNL     1      26.137  48.632  49.182  1.00  0.00     0.037 A 
HETATM    3  N   UNL     1      25.367  49.636  48.605  1.00  0.00    -0.192 N 
HETATM    4  C   UNL     1      24.022  49.625  48.593  1.00  0.00     0.726 A 
HETATM    5  N   UNL     1      23.357  48.575  49.158  1.00  0.00    -0.083 N 
HETATM    6  N   UNL     1      22.024  48.770  49.145  1.00  0.00    -0.135 NA
HETATM    7  C   UNL     1      21.932  49.924  48.457  1.00  0.00     0.199 A 
HETATM    8  N   UNL     1      23.155  50.486  48.128  1.00  0.00    -0.041 NA
HETATM    9  C   UNL     1      24.015  47.428  49.793  1.00  0.00     0.202 A 
HETATM   10  C   UNL     1      25.532  47.569  49.768  1.00  0.00     0.062 A 
HETATM   11  H   UNL     1      25.854  50.417  48.173  1.00  0.00     0.184 HD
ENDROOT
BRANCH   7  12
HETATM   12  C   UNL     1      20.665  50.544  48.078  1.00  0.00     0.014 A 
HETATM   13  C   UNL     1      19.872  49.998  47.061  1.00  0.00     0.018 A 
HETATM   14  C   UNL     1      18.671  50.612  46.691  1.00  0.00     0.037 A 
HETATM   15  C   UNL     1      18.241  51.778  47.327  1.00  0.00     0.068 A 
HETATM   16  C   UNL     1      19.023  52.325  48.344  1.00  0.00     0.037 A 
HETATM   17  C   UNL     1      20.227  51.713  48.714  1.00  0.00     0.018 A 
BRANCH  15  18
HETATM   18  O   UNL     1      17.054  52.275  46.865  1.00  0.00    -0.356 OA
HETATM   19  C   UNL     1      15.918  52.111  47.705  1.00  0.00     0.210 C 
ENDBRANCH  15  18
ENDBRANCH   7  12
BRANCH   9  20
HETATM   20  C   UNL     1      23.499  46.129  49.178  1.00  0.00    -0.028 A 
HETATM   21  C   UNL     1      23.068  46.065  47.840  1.00  0.00     0.012 A 
HETATM   22  C   UNL     1      22.586  44.867  47.308  1.00  0.00     0.043 A 
HETATM   23  C   UNL     1      22.520  43.735  48.111  1.00  0.00     0.116 A 
HETATM   24  F   UNL     1      22.053  42.589  47.600  1.00  0.00    -0.206 F 
HETATM   25  C   UNL     1      22.925  43.777  49.439  1.00  0.00     0.043 A 
HETATM   26  C   UNL     1      23.411  44.970  49.973  1.00  0.00     0.012 A 
ENDBRANCH   9  20
BRANCH  10  27
HETATM   27  C   UNL     1      26.331  46.454  50.325  1.00  0.00     0.249 C 
HETATM   28  N   UNL     1      26.307  46.328  51.678  1.00  0.00    -0.366 N 
HETATM   29  H   UNL     1      25.875  46.981  52.314  1.00  0.00     0.159 HD
HETATM   30  H   UNL     1      26.864  45.581  52.073  1.00  0.00     0.159 HD
HETATM   31  O   UNL     1      26.976  45.687  49.624  1.00  0.00    -0.268 OA
ENDBRANCH  10  27
TORSDOF 4
ENDMDL
MODEL 6
REMARK VINA RESULT:      -8.2      6.766      9.955
REMARK  4 active torsions:
REMARK  status: ('A' for Active; 'I' for Inactive)
REMARK    1  A    between atoms: C_7  and  C_8 
REMARK    2  A    between atoms: C_11  and  O_12 
REMARK    3  A    between atoms: C_17  and  C_18 
REMARK    4  A    between atoms: C_25  and  C_26 
REMARK       I    between atoms: C_26  and  N_27 
ROOT
HETATM    1  C   UNL     1      16.654  53.030  49.938  1.00  0.00     0.070 C 
HETATM    2  C   UNL     1      17.684  52.253  49.154  1.00  0.00     0.037 A 
HETATM    3  N   UNL     1      18.870  51.977  49.825  1.00  0.00    -0.192 N 
HETATM    4  C   UNL     1      19.903  51.320  49.267  1.00  0.00     0.726 A 
HETATM    5  N   UNL     1      19.796  50.877  47.980  1.00  0.00    -0.083 N 
HETATM    6  N   UNL     1      20.949  50.329  47.550  1.00  0.00    -0.135 NA
HETATM    7  C   UNL     1      21.697  50.374  48.668  1.00  0.00     0.199 A 
HETATM    8  N   UNL     1      21.082  51.007  49.736  1.00  0.00    -0.041 NA
HETATM    9  C   UNL     1      18.611  51.069  47.138  1.00  0.00     0.202 A 
HETATM   10  C   UNL     1      17.524  51.848  47.869  1.00  0.00     0.062 A 
HETATM   11  H   UNL     1      18.954  52.295  50.787  1.00  0.00     0.184 HD
ENDROOT
BRANCH   7  12
HETATM   12  C   UNL     1      23.041  49.810  48.769  1.00  0.00     0.014 A 
HETATM   13  C   UNL     1      24.136  50.445  48.172  1.00  0.00     0.018 A 
HETATM   14  C   UNL     1      25.414  49.885  48.256  1.00  0.00     0.037 A 
HETATM   15  C   UNL     1      25.623  48.683  48.936  1.00  0.00     0.068 A 
HETATM   16  C   UNL     1      24.538  48.046  49.538  1.00  0.00     0.037 A 
HETATM   17  C   UNL     1      23.256  48.605  49.452  1.00  0.00     0.018 A 
BRANCH  15  18
HETATM   18  O   UNL     1      26.918  48.245  48.937  1.00  0.00    -0.356 OA
HETATM   19  C   UNL     1      27.927  49.224  49.155  1.00  0.00     0.210 C 
ENDBRANCH  15  18
ENDBRANCH   7  12
BRANCH   9  20
HETATM   20  C   UNL     1      18.148  49.724  46.582  1.00  0.00    -0.028 A 
HETATM   21  C   UNL     1      17.648  48.710  47.420  1.00  0.00     0.012 A 
HETATM   22  C   UNL     1      17.246  47.484  46.886  1.00  0.00     0.043 A 
HETATM   23  C   UNL     1      17.354  47.261  45.519  1.00  0.00     0.116 A 
HETATM   24  F   UNL     1      16.972  46.083  45.009  1.00  0.00    -0.206 F 
HETATM   25  C   UNL     1      17.858  48.241  44.673  1.00  0.00     0.043 A 
HETATM   26  C   UNL     1      18.256  49.469  45.201  1.00  0.00     0.012 A 
ENDBRANCH   9  20
BRANCH  10  27
HETATM   27  C   UNL     1      16.245  52.067  47.158  1.00  0.00     0.249 C 
HETATM   28  N   UNL     1      16.227  53.100  46.276  1.00  0.00    -0.366 N 
HETATM   29  H   UNL     1      16.973  53.767  46.149  1.00  0.00     0.159 HD
HETATM   30  H   UNL     1      15.352  53.271  45.797  1.00  0.00     0.159 HD
HETATM   31  O   UNL     1      15.257  51.369  47.342  1.00  0.00    -0.268 OA
ENDBRANCH  10  27
TORSDOF 4
ENDMDL
MODEL 7
REMARK VINA RESULT:      -7.9      4.344      7.381
REMARK  4 active torsions:
REMARK  status: ('A' for Active; 'I' for Inactive)
REMARK    1  A    between atoms: C_7  and  C_8 
REMARK    2  A    between atoms: C_11  and  O_12 
REMARK    3  A    between atoms: C_17  and  C_18 
REMARK    4  A    between atoms: C_25  and  C_26 
REMARK       I    between atoms: C_26  and  N_27 
ROOT
HETATM    1  C   UNL     1      25.652  47.148  50.880  1.00  0.00     0.070 C 
HETATM    2  C   UNL     1      26.139  45.734  51.091  1.00  0.00     0.037 A 
HETATM    3  N   UNL     1      26.371  44.998  49.935  1.00  0.00    -0.192 N 
HETATM    4  C   UNL     1      26.779  43.716  49.941  1.00  0.00     0.726 A 
HETATM    5  N   UNL     1      26.998  43.090  51.134  1.00  0.00    -0.083 N 
HETATM    6  N   UNL     1      27.307  41.791  50.960  1.00  0.00    -0.135 NA
HETATM    7  C   UNL     1      27.363  41.709  49.617  1.00  0.00     0.199 A 
HETATM    8  N   UNL     1      27.014  42.880  48.964  1.00  0.00    -0.041 NA
HETATM    9  C   UNL     1      26.817  43.726  52.444  1.00  0.00     0.202 A 
HETATM   10  C   UNL     1      26.328  45.162  52.307  1.00  0.00     0.062 A 
HETATM   11  H   UNL     1      26.219  45.459  49.042  1.00  0.00     0.184 HD
ENDROOT
BRANCH   7  12
HETATM   12  C   UNL     1      27.757  40.503  48.893  1.00  0.00     0.014 A 
HETATM   13  C   UNL     1      27.644  40.431  47.499  1.00  0.00     0.018 A 
HETATM   14  C   UNL     1      28.003  39.264  46.818  1.00  0.00     0.037 A 
HETATM   15  C   UNL     1      28.481  38.151  47.513  1.00  0.00     0.068 A 
HETATM   16  C   UNL     1      28.600  38.216  48.900  1.00  0.00     0.037 A 
HETATM   17  C   UNL     1      28.238  39.384  49.585  1.00  0.00     0.018 A 
BRANCH  15  18
HETATM   18  O   UNL     1      28.790  37.077  46.726  1.00  0.00    -0.356 OA
HETATM   19  C   UNL     1      28.824  37.298  45.321  1.00  0.00     0.210 C 
ENDBRANCH  15  18
ENDBRANCH   7  12
BRANCH   9  20
HETATM   20  C   UNL     1      28.093  43.577  53.272  1.00  0.00    -0.028 A 
HETATM   21  C   UNL     1      29.312  43.186  52.687  1.00  0.00     0.012 A 
HETATM   22  C   UNL     1      30.459  43.043  53.471  1.00  0.00     0.043 A 
HETATM   23  C   UNL     1      30.390  43.276  54.839  1.00  0.00     0.116 A 
HETATM   24  F   UNL     1      31.491  43.134  55.589  1.00  0.00    -0.206 F 
HETATM   25  C   UNL     1      29.196  43.649  55.441  1.00  0.00     0.043 A 
HETATM   26  C   UNL     1      28.048  43.797  54.662  1.00  0.00     0.012 A 
ENDBRANCH   9  20
BRANCH  10  27
HETATM   27  C   UNL     1      26.156  45.947  53.550  1.00  0.00     0.249 C 
HETATM   28  N   UNL     1      27.063  46.937  53.754  1.00  0.00    -0.366 N 
HETATM   29  H   UNL     1      27.877  47.106  53.183  1.00  0.00     0.159 HD
HETATM   30  H   UNL     1      26.966  47.470  54.610  1.00  0.00     0.159 HD
HETATM   31  O   UNL     1      25.259  45.728  54.352  1.00  0.00    -0.268 OA
ENDBRANCH  10  27
TORSDOF 4
ENDMDL
MODEL 8
REMARK VINA RESULT:      -7.9      8.026     12.574
REMARK  4 active torsions:
REMARK  status: ('A' for Active; 'I' for Inactive)
REMARK    1  A    between atoms: C_7  and  C_8 
REMARK    2  A    between atoms: C_11  and  O_12 
REMARK    3  A    between atoms: C_17  and  C_18 
REMARK    4  A    between atoms: C_25  and  C_26 
REMARK       I    between atoms: C_26  and  N_27 
ROOT
HETATM    1  C   UNL     1      23.173  50.675  47.865  1.00  0.00     0.070 C 
HETATM    2  C   UNL     1      21.741  50.468  48.297  1.00  0.00     0.037 A 
HETATM    3  N   UNL     1      20.987  51.626  48.457  1.00  0.00    -0.192 N 
HETATM    4  C   UNL     1      19.705  51.625  48.863  1.00  0.00     0.726 A 
HETATM    5  N   UNL     1      19.086  50.436  49.122  1.00  0.00    -0.083 N 
HETATM    6  N   UNL     1      17.844  50.622  49.608  1.00  0.00    -0.135 NA
HETATM    7  C   UNL     1      17.723  51.961  49.522  1.00  0.00     0.199 A 
HETATM    8  N   UNL     1      18.871  52.606  49.090  1.00  0.00    -0.041 NA
HETATM    9  C   UNL     1      19.731  49.126  48.988  1.00  0.00     0.202 A 
HETATM   10  C   UNL     1      21.184  49.258  48.550  1.00  0.00     0.062 A 
HETATM   11  H   UNL     1      21.437  52.515  48.256  1.00  0.00     0.184 HD
ENDROOT
BRANCH   7  12
HETATM   12  C   UNL     1      16.499  52.688  49.849  1.00  0.00     0.014 A 
HETATM   13  C   UNL     1      16.518  54.073  50.055  1.00  0.00     0.018 A 
HETATM   14  C   UNL     1      15.345  54.757  50.390  1.00  0.00     0.037 A 
HETATM   15  C   UNL     1      14.135  54.073  50.523  1.00  0.00     0.068 A 
HETATM   16  C   UNL     1      14.107  52.694  50.315  1.00  0.00     0.037 A 
HETATM   17  C   UNL     1      15.282  52.007  49.982  1.00  0.00     0.018 A 
BRANCH  15  18
HETATM   18  O   UNL     1      13.068  54.860  50.857  1.00  0.00    -0.356 OA
HETATM   19  C   UNL     1      11.856  54.634  50.149  1.00  0.00     0.210 C 
ENDBRANCH  15  18
ENDBRANCH   7  12
BRANCH   9  20
HETATM   20  C   UNL     1      18.887  48.224  48.089  1.00  0.00    -0.028 A 
HETATM   21  C   UNL     1      18.319  47.027  48.566  1.00  0.00     0.012 A 
HETATM   22  C   UNL     1      17.565  46.215  47.717  1.00  0.00     0.043 A 
HETATM   23  C   UNL     1      17.386  46.585  46.390  1.00  0.00     0.116 A 
HETATM   24  F   UNL     1      16.665  45.802  45.577  1.00  0.00    -0.206 F 
HETATM   25  C   UNL     1      17.948  47.754  45.892  1.00  0.00     0.043 A 
HETATM   26  C   UNL     1      18.698  48.571  46.737  1.00  0.00     0.012 A 
ENDBRANCH   9  20
BRANCH  10  27
HETATM   27  C   UNL     1      21.944  48.009  48.319  1.00  0.00     0.249 C 
HETATM   28  N   UNL     1      22.502  47.444  49.421  1.00  0.00    -0.366 N 
HETATM   29  H   UNL     1      22.516  47.857  50.342  1.00  0.00     0.159 HD
HETATM   30  H   UNL     1      23.040  46.599  49.273  1.00  0.00     0.159 HD
HETATM   31  O   UNL     1      22.070  47.506  47.211  1.00  0.00    -0.268 OA
ENDBRANCH  10  27
TORSDOF 4
ENDMDL
MODEL 9
REMARK VINA RESULT:      -7.9      3.751      8.232
REMARK  4 active torsions:
REMARK  status: ('A' for Active; 'I' for Inactive)
REMARK    1  A    between atoms: C_7  and  C_8 
REMARK    2  A    between atoms: C_11  and  O_12 
REMARK    3  A    between atoms: C_17  and  C_18 
REMARK    4  A    between atoms: C_25  and  C_26 
REMARK       I    between atoms: C_26  and  N_27 
ROOT
HETATM    1  C   UNL     1      23.556  41.938  48.482  1.00  0.00     0.070 C 
HETATM    2  C   UNL     1      23.704  43.407  48.800  1.00  0.00     0.037 A 
HETATM    3  N   UNL     1      22.602  44.201  48.505  1.00  0.00    -0.192 N 
HETATM    4  C   UNL     1      22.574  45.532  48.698  1.00  0.00     0.726 A 
HETATM    5  N   UNL     1      23.668  46.155  49.225  1.00  0.00    -0.083 N 
HETATM    6  N   UNL     1      23.506  47.491  49.260  1.00  0.00    -0.135 NA
HETATM    7  C   UNL     1      22.236  47.616  48.832  1.00  0.00     0.199 A 
HETATM    8  N   UNL     1      21.646  46.420  48.452  1.00  0.00    -0.041 NA
HETATM    9  C   UNL     1      24.905  45.464  49.606  1.00  0.00     0.202 A 
HETATM   10  C   UNL     1      24.826  43.971  49.315  1.00  0.00     0.062 A 
HETATM   11  H   UNL     1      21.779  43.744  48.121  1.00  0.00     0.184 HD
ENDROOT
BRANCH   7  12
HETATM   12  C   UNL     1      21.521  48.888  48.769  1.00  0.00     0.014 A 
HETATM   13  C   UNL     1      20.125  48.935  48.856  1.00  0.00     0.018 A 
HETATM   14  C   UNL     1      19.449  50.157  48.771  1.00  0.00     0.037 A 
HETATM   15  C   UNL     1      20.154  51.351  48.601  1.00  0.00     0.068 A 
HETATM   16  C   UNL     1      21.545  51.313  48.518  1.00  0.00     0.037 A 
HETATM   17  C   UNL     1      22.223  50.089  48.599  1.00  0.00     0.018 A 
BRANCH  15  18
HETATM   18  O   UNL     1      19.371  52.470  48.529  1.00  0.00    -0.356 OA
HETATM   19  C   UNL     1      18.159  52.454  49.272  1.00  0.00     0.210 C 
ENDBRANCH  15  18
ENDBRANCH   7  12
BRANCH   9  20
HETATM   20  C   UNL     1      25.260  45.801  51.053  1.00  0.00    -0.028 A 
HETATM   21  C   UNL     1      26.094  46.887  51.376  1.00  0.00     0.012 A 
HETATM   22  C   UNL     1      26.414  47.163  52.707  1.00  0.00     0.043 A 
HETATM   23  C   UNL     1      25.915  46.349  53.717  1.00  0.00     0.116 A 
HETATM   24  F   UNL     1      26.227  46.613  54.992  1.00  0.00    -0.206 F 
HETATM   25  C   UNL     1      25.102  45.262  53.422  1.00  0.00     0.043 A 
HETATM   26  C   UNL     1      24.776  44.986  52.095  1.00  0.00     0.012 A 
ENDBRANCH   9  20
BRANCH  10  27
HETATM   27  C   UNL     1      25.985  43.137  49.703  1.00  0.00     0.249 C 
HETATM   28  N   UNL     1      25.763  42.246  50.704  1.00  0.00    -0.366 N 
HETATM   29  H   UNL     1      24.917  42.184  51.250  1.00  0.00     0.159 HD
HETATM   30  H   UNL     1      26.554  41.681  50.991  1.00  0.00     0.159 HD
HETATM   31  O   UNL     1      27.079  43.232  49.165  1.00  0.00    -0.268 OA
ENDBRANCH  10  27
TORSDOF 4
ENDMDL
MODEL 10
REMARK VINA RESULT:      -7.7      5.299      8.227
REMARK  4 active torsions:
REMARK  status: ('A' for Active; 'I' for Inactive)
REMARK    1  A    between atoms: C_7  and  C_8 
REMARK    2  A    between atoms: C_11  and  O_12 
REMARK    3  A    between atoms: C_17  and  C_18 
REMARK    4  A    between atoms: C_25  and  C_26 
REMARK       I    between atoms: C_26  and  N_27 
ROOT
HETATM    1  C   UNL     1      18.705  52.330  49.487  1.00  0.00     0.070 C 
HETATM    2  C   UNL     1      19.508  51.179  48.932  1.00  0.00     0.037 A 
HETATM    3  N   UNL     1      20.643  50.832  49.657  1.00  0.00    -0.192 N 
HETATM    4  C   UNL     1      21.486  49.850  49.289  1.00  0.00     0.726 A 
HETATM    5  N   UNL     1      21.225  49.133  48.158  1.00  0.00    -0.083 N 
HETATM    6  N   UNL     1      22.214  48.260  47.887  1.00  0.00    -0.135 NA
HETATM    7  C   UNL     1      23.011  48.421  48.960  1.00  0.00     0.199 A 
HETATM    8  N   UNL     1      22.596  49.418  49.829  1.00  0.00    -0.041 NA
HETATM    9  C   UNL     1      20.064  49.358  47.289  1.00  0.00     0.202 A 
HETATM   10  C   UNL     1      19.202  50.510  47.792  1.00  0.00     0.062 A 
HETATM   11  H   UNL     1      20.840  51.354  50.506  1.00  0.00     0.184 HD
ENDROOT
BRANCH   7  12
HETATM   12  C   UNL     1      24.210  47.625  49.208  1.00  0.00     0.014 A 
HETATM   13  C   UNL     1      24.143  46.228  49.284  1.00  0.00     0.018 A 
HETATM   14  C   UNL     1      25.293  45.476  49.544  1.00  0.00     0.037 A 
HETATM   15  C   UNL     1      26.527  46.102  49.731  1.00  0.00     0.068 A 
HETATM   16  C   UNL     1      26.603  47.492  49.653  1.00  0.00     0.037 A 
HETATM   17  C   UNL     1      25.451  48.248  49.395  1.00  0.00     0.018 A 
BRANCH  15  18
HETATM   18  O   UNL     1      27.567  45.251  49.982  1.00  0.00    -0.356 OA
HETATM   19  C   UNL     1      27.239  43.978  50.525  1.00  0.00     0.210 C 
ENDBRANCH  15  18
ENDBRANCH   7  12
BRANCH   9  20
HETATM   20  C   UNL     1      19.303  48.048  47.092  1.00  0.00    -0.028 A 
HETATM   21  C   UNL     1      19.224  47.421  45.835  1.00  0.00     0.012 A 
HETATM   22  C   UNL     1      18.509  46.232  45.681  1.00  0.00     0.043 A 
HETATM   23  C   UNL     1      17.861  45.673  46.775  1.00  0.00     0.116 A 
HETATM   24  F   UNL     1      17.172  44.534  46.624  1.00  0.00    -0.206 F 
HETATM   25  C   UNL     1      17.912  46.280  48.023  1.00  0.00     0.043 A 
HETATM   26  C   UNL     1      18.629  47.466  48.183  1.00  0.00     0.012 A 
ENDBRANCH   9  20
BRANCH  10  27
HETATM   27  C   UNL     1      17.963  50.813  47.043  1.00  0.00     0.249 C 
HETATM   28  N   UNL     1      18.135  51.380  45.820  1.00  0.00    -0.366 N 
HETATM   29  H   UNL     1      19.018  51.687  45.442  1.00  0.00     0.159 HD
HETATM   30  H   UNL     1      17.294  51.609  45.305  1.00  0.00     0.159 HD
HETATM   31  O   UNL     1      16.847  50.575  47.485  1.00  0.00    -0.268 OA
ENDBRANCH  10  27
TORSDOF 4
ENDMDL
