MODEL 1
REMARK VINA RESULT:      -8.1      0.000      0.000
REMARK  4 active torsions:
REMARK  status: ('A' for Active; 'I' for Inactive)
REMARK    1  A    between atoms: O_2  and  C_3 
REMARK    2  A    between atoms: C_4  and  O_5 
REMARK    3  A    between atoms: C_9  and  N_10 
REMARK    4  A    between atoms: N_10  and  C_11 
ROOT
HETATM    1  C   UNL     1      30.343  44.479  55.933  1.00  0.00     0.102 A 
HETATM    2  C   UNL     1      29.258  45.307  55.624  1.00  0.00     0.118 A 
HETATM    3  C   UNL     1      28.481  44.964  54.522  1.00  0.00     0.085 A 
HETATM    4  C   UNL     1      28.758  43.872  53.718  1.00  0.00     0.005 A 
HETATM    5  C   UNL     1      27.757  43.790  52.635  1.00  0.00     0.245 A 
HETATM    6  O   UNL     1      26.901  44.914  52.882  1.00  0.00    -0.291 OA
HETATM    7  C   UNL     1      27.289  45.618  53.992  1.00  0.00     0.298 A 
HETATM    8  O   UNL     1      26.691  46.588  54.402  1.00  0.00    -0.259 OA
HETATM    9  C   UNL     1      29.854  43.070  53.984  1.00  0.00     0.015 A 
HETATM   10  C   UNL     1      30.644  43.384  55.094  1.00  0.00     0.040 A 
ENDROOT
BRANCH   5  11
HETATM   11  N   UNL     1      26.993  42.556  52.709  1.00  0.00    -0.248 NA
HETATM   12  H   UNL     1      27.025  42.173  53.652  1.00  0.00     0.132 HD
BRANCH  11  13
HETATM   13  C   UNL     1      27.134  41.566  51.742  1.00  0.00     0.082 A 
HETATM   14  N   UNL     1      26.069  41.046  51.103  1.00  0.00    -0.355 N 
HETATM   15  H   UNL     1      25.147  41.424  51.337  1.00  0.00     0.166 HD
HETATM   16  C   UNL     1      26.143  40.035  50.225  1.00  0.00     0.108 A 
HETATM   17  C   UNL     1      27.369  39.450  49.949  1.00  0.00     0.026 A 
HETATM   18 BR   UNL     1      27.487  38.030  48.716  1.00  0.00    -0.050 Br
HETATM   19  C   UNL     1      28.501  39.910  50.607  1.00  0.00     0.024 A 
HETATM   20  C   UNL     1      28.379  40.960  51.521  1.00  0.00     0.043 A 
ENDBRANCH  11  13
ENDBRANCH   5  11
BRANCH   2  21
HETATM   21  O   UNL     1      28.925  46.374  56.402  1.00  0.00    -0.352 OA
HETATM   22  C   UNL     1      28.729  46.010  57.771  1.00  0.00     0.210 C 
ENDBRANCH   2  21
BRANCH   1  23
HETATM   23  O   UNL     1      31.229  44.617  56.967  1.00  0.00    -0.353 OA
HETATM   24  C   UNL     1      31.865  43.438  57.449  1.00  0.00     0.210 C 
ENDBRANCH   1  23
TORSDOF 4
ENDMDL
MODEL 2
REMARK VINA RESULT:      -7.8      1.623      3.155
REMARK  4 active torsions:
REMARK  status: ('A' for Active; 'I' for Inactive)
REMARK    1  A    between atoms: O_2  and  C_3 
REMARK    2  A    between atoms: C_4  and  O_5 
REMARK    3  A    between atoms: C_9  and  N_10 
REMARK    4  A    between atoms: N_10  and  C_11 
ROOT
HETATM    1  C   UNL     1      27.782  46.389  55.143  1.00  0.00     0.102 A 
HETATM    2  C   UNL     1      28.872  45.522  55.276  1.00  0.00     0.118 A 
HETATM    3  C   UNL     1      28.781  44.275  54.665  1.00  0.00     0.085 A 
HETATM    4  C   UNL     1      27.658  43.860  53.971  1.00  0.00     0.005 A 
HETATM    5  C   UNL     1      27.874  42.492  53.455  1.00  0.00     0.245 A 
HETATM    6  O   UNL     1      29.194  42.166  53.912  1.00  0.00    -0.291 OA
HETATM    7  C   UNL     1      29.762  43.197  54.615  1.00  0.00     0.298 A 
HETATM    8  O   UNL     1      30.884  43.149  55.067  1.00  0.00    -0.259 OA
HETATM    9  C   UNL     1      26.555  44.689  53.869  1.00  0.00     0.015 A 
HETATM   10  C   UNL     1      26.625  45.952  54.462  1.00  0.00     0.040 A 
ENDROOT
BRANCH   5  11
HETATM   11  N   UNL     1      27.826  42.457  52.004  1.00  0.00    -0.248 NA
HETATM   12  H   UNL     1      27.195  43.176  51.651  1.00  0.00     0.132 HD
BRANCH  11  13
HETATM   13  C   UNL     1      27.678  41.255  51.319  1.00  0.00     0.082 A 
HETATM   14  N   UNL     1      28.731  40.457  51.059  1.00  0.00    -0.355 N 
HETATM   15  H   UNL     1      29.646  40.755  51.405  1.00  0.00     0.166 HD
HETATM   16  C   UNL     1      28.654  39.331  50.333  1.00  0.00     0.108 A 
HETATM   17  C   UNL     1      27.441  38.946  49.783  1.00  0.00     0.026 A 
HETATM   18 BR   UNL     1      27.321  37.367  48.764  1.00  0.00    -0.050 Br
HETATM   19  C   UNL     1      26.326  39.749  49.978  1.00  0.00     0.024 A 
HETATM   20  C   UNL     1      26.451  40.917  50.733  1.00  0.00     0.043 A 
ENDBRANCH  11  13
ENDBRANCH   5  11
BRANCH   2  21
HETATM   21  O   UNL     1      30.012  45.896  55.921  1.00  0.00    -0.352 OA
HETATM   22  C   UNL     1      29.924  45.706  57.336  1.00  0.00     0.210 C 
ENDBRANCH   2  21
BRANCH   1  23
HETATM   23  O   UNL     1      27.658  47.655  55.647  1.00  0.00    -0.353 OA
HETATM   24  C   UNL     1      26.411  48.317  55.461  1.00  0.00     0.210 C 
ENDBRANCH   1  23
TORSDOF 4
ENDMDL
MODEL 3
REMARK VINA RESULT:      -7.6      4.611      6.039
REMARK  4 active torsions:
REMARK  status: ('A' for Active; 'I' for Inactive)
REMARK    1  A    between atoms: O_2  and  C_3 
REMARK    2  A    between atoms: C_4  and  O_5 
REMARK    3  A    between atoms: C_9  and  N_10 
REMARK    4  A    between atoms: N_10  and  C_11 
ROOT
HETATM    1  C   UNL     1      28.174  45.397  55.169  1.00  0.00     0.102 A 
HETATM    2  C   UNL     1      27.947  44.270  54.371  1.00  0.00     0.118 A 
HETATM    3  C   UNL     1      27.176  44.439  53.224  1.00  0.00     0.085 A 
HETATM    4  C   UNL     1      26.612  45.653  52.870  1.00  0.00     0.005 A 
HETATM    5  C   UNL     1      25.851  45.495  51.614  1.00  0.00     0.245 A 
HETATM    6  O   UNL     1      26.022  44.108  51.288  1.00  0.00    -0.291 OA
HETATM    7  C   UNL     1      26.807  43.461  52.207  1.00  0.00     0.298 A 
HETATM    8  O   UNL     1      27.106  42.292  52.112  1.00  0.00    -0.259 OA
HETATM    9  C   UNL     1      26.791  46.765  53.673  1.00  0.00     0.015 A 
HETATM   10  C   UNL     1      27.572  46.627  54.824  1.00  0.00     0.040 A 
ENDROOT
BRANCH   5  11
HETATM   11  N   UNL     1      26.396  46.326  50.555  1.00  0.00    -0.248 NA
HETATM   12  H   UNL     1      27.356  46.593  50.769  1.00  0.00     0.132 HD
BRANCH  11  13
HETATM   13  C   UNL     1      25.667  47.389  50.028  1.00  0.00     0.082 A 
HETATM   14  N   UNL     1      24.321  47.376  49.999  1.00  0.00    -0.355 N 
HETATM   15  H   UNL     1      23.848  46.563  50.401  1.00  0.00     0.166 HD
HETATM   16  C   UNL     1      23.576  48.336  49.430  1.00  0.00     0.108 A 
HETATM   17  C   UNL     1      24.193  49.409  48.807  1.00  0.00     0.026 A 
HETATM   18 BR   UNL     1      23.159  50.764  48.006  1.00  0.00    -0.050 Br
HETATM   19  C   UNL     1      25.580  49.460  48.763  1.00  0.00     0.024 A 
HETATM   20  C   UNL     1      26.318  48.436  49.361  1.00  0.00     0.043 A 
ENDBRANCH  11  13
ENDBRANCH   5  11
BRANCH   2  21
HETATM   21  O   UNL     1      28.506  43.062  54.658  1.00  0.00    -0.352 OA
HETATM   22  C   UNL     1      29.843  42.950  54.164  1.00  0.00     0.210 C 
ENDBRANCH   2  21
BRANCH   1  23
HETATM   23  O   UNL     1      28.903  45.466  56.324  1.00  0.00    -0.353 OA
HETATM   24  C   UNL     1      30.260  45.884  56.222  1.00  0.00     0.210 C 
ENDBRANCH   1  23
TORSDOF 4
ENDMDL
MODEL 4
REMARK VINA RESULT:      -7.6      8.577     10.993
REMARK  4 active torsions:
REMARK  status: ('A' for Active; 'I' for Inactive)
REMARK    1  A    between atoms: O_2  and  C_3 
REMARK    2  A    between atoms: C_4  and  O_5 
REMARK    3  A    between atoms: C_9  and  N_10 
REMARK    4  A    between atoms: N_10  and  C_11 
ROOT
HETATM    1  C   UNL     1      18.703  50.602  49.922  1.00  0.00     0.102 A 
HETATM    2  C   UNL     1      18.830  49.278  49.488  1.00  0.00     0.118 A 
HETATM    3  C   UNL     1      20.103  48.832  49.144  1.00  0.00     0.085 A 
HETATM    4  C   UNL     1      21.221  49.649  49.187  1.00  0.00     0.005 A 
HETATM    5  C   UNL     1      22.408  48.882  48.756  1.00  0.00     0.245 A 
HETATM    6  O   UNL     1      21.880  47.580  48.463  1.00  0.00    -0.291 OA
HETATM    7  C   UNL     1      20.530  47.513  48.694  1.00  0.00     0.298 A 
HETATM    8  O   UNL     1      19.885  46.500  48.541  1.00  0.00    -0.259 OA
HETATM    9  C   UNL     1      21.103  50.972  49.571  1.00  0.00     0.015 A 
HETATM   10  C   UNL     1      19.838  51.442  49.934  1.00  0.00     0.040 A 
ENDROOT
BRANCH   5  11
HETATM   11  N   UNL     1      23.396  48.792  49.816  1.00  0.00    -0.248 NA
HETATM   12  H   UNL     1      23.873  49.685  49.935  1.00  0.00     0.132 HD
BRANCH  11  13
HETATM   13  C   UNL     1      24.279  47.719  49.885  1.00  0.00     0.082 A 
HETATM   14  N   UNL     1      23.870  46.490  50.253  1.00  0.00    -0.355 N 
HETATM   15  H   UNL     1      22.876  46.366  50.459  1.00  0.00     0.166 HD
HETATM   16  C   UNL     1      24.694  45.444  50.415  1.00  0.00     0.108 A 
HETATM   17  C   UNL     1      26.057  45.604  50.222  1.00  0.00     0.026 A 
HETATM   18 BR   UNL     1      27.225  44.142  50.444  1.00  0.00    -0.050 Br
HETATM   19  C   UNL     1      26.550  46.857  49.884  1.00  0.00     0.024 A 
HETATM   20  C   UNL     1      25.658  47.921  49.733  1.00  0.00     0.043 A 
ENDBRANCH  11  13
ENDBRANCH   5  11
BRANCH   2  21
HETATM   21  O   UNL     1      17.768  48.426  49.459  1.00  0.00    -0.352 OA
HETATM   22  C   UNL     1      17.004  48.549  48.256  1.00  0.00     0.210 C 
ENDBRANCH   2  21
BRANCH   1  23
HETATM   23  O   UNL     1      17.561  51.244  50.316  1.00  0.00    -0.353 OA
HETATM   24  C   UNL     1      17.000  52.197  49.419  1.00  0.00     0.210 C 
ENDBRANCH   1  23
TORSDOF 4
ENDMDL
MODEL 5
REMARK VINA RESULT:      -7.6     14.059     15.209
REMARK  4 active torsions:
REMARK  status: ('A' for Active; 'I' for Inactive)
REMARK    1  A    between atoms: O_2  and  C_3 
REMARK    2  A    between atoms: C_4  and  O_5 
REMARK    3  A    between atoms: C_9  and  N_10 
REMARK    4  A    between atoms: N_10  and  C_11 
ROOT
HETATM    1  C   UNL     1      31.393  52.569  40.783  1.00  0.00     0.102 A 
HETATM    2  C   UNL     1      31.086  51.321  41.337  1.00  0.00     0.118 A 
HETATM    3  C   UNL     1      29.742  50.984  41.457  1.00  0.00     0.085 A 
HETATM    4  C   UNL     1      28.717  51.837  41.084  1.00  0.00     0.005 A 
HETATM    5  C   UNL     1      27.416  51.189  41.346  1.00  0.00     0.245 A 
HETATM    6  O   UNL     1      27.779  49.916  41.898  1.00  0.00    -0.291 OA
HETATM    7  C   UNL     1      29.138  49.756  41.964  1.00  0.00     0.298 A 
HETATM    8  O   UNL     1      29.665  48.744  42.369  1.00  0.00    -0.259 OA
HETATM    9  C   UNL     1      29.005  53.092  40.576  1.00  0.00     0.015 A 
HETATM   10  C   UNL     1      30.348  53.450  40.432  1.00  0.00     0.040 A 
ENDROOT
BRANCH   5  11
HETATM   11  N   UNL     1      26.657  51.005  40.121  1.00  0.00    -0.248 NA
HETATM   12  H   UNL     1      25.800  51.555  40.147  1.00  0.00     0.132 HD
BRANCH  11  13
HETATM   13  C   UNL     1      26.444  49.735  39.593  1.00  0.00     0.082 A 
HETATM   14  N   UNL     1      25.665  48.832  40.217  1.00  0.00    -0.355 N 
HETATM   15  H   UNL     1      25.213  49.121  41.088  1.00  0.00     0.166 HD
HETATM   16  C   UNL     1      25.493  47.571  39.792  1.00  0.00     0.108 A 
HETATM   17  C   UNL     1      26.158  47.129  38.660  1.00  0.00     0.026 A 
HETATM   18 BR   UNL     1      25.924  45.361  38.052  1.00  0.00    -0.050 Br
HETATM   19  C   UNL     1      27.011  47.998  37.994  1.00  0.00     0.024 A 
HETATM   20  C   UNL     1      27.168  49.300  38.474  1.00  0.00     0.043 A 
ENDBRANCH  11  13
ENDBRANCH   5  11
BRANCH   2  21
HETATM   21  O   UNL     1      32.057  50.433  41.690  1.00  0.00    -0.352 OA
HETATM   22  C   UNL     1      32.542  50.656  43.017  1.00  0.00     0.210 C 
ENDBRANCH   2  21
BRANCH   1  23
HETATM   23  O   UNL     1      32.635  53.100  40.562  1.00  0.00    -0.353 OA
HETATM   24  C   UNL     1      33.342  52.662  39.407  1.00  0.00     0.210 C 
ENDBRANCH   1  23
TORSDOF 4
ENDMDL
MODEL 6
REMARK VINA RESULT:      -7.5      5.603      7.295
REMARK  4 active torsions:
REMARK  status: ('A' for Active; 'I' for Inactive)
REMARK    1  A    between atoms: O_2  and  C_3 
REMARK    2  A    between atoms: C_4  and  O_5 
REMARK    3  A    between atoms: C_9  and  N_10 
REMARK    4  A    between atoms: N_10  and  C_11 
ROOT
HETATM    1  C   UNL     1      27.255  44.748  53.439  1.00  0.00     0.102 A 
HETATM    2  C   UNL     1      27.344  44.130  52.187  1.00  0.00     0.118 A 
HETATM    3  C   UNL     1      26.557  44.641  51.159  1.00  0.00     0.085 A 
HETATM    4  C   UNL     1      25.682  45.700  51.339  1.00  0.00     0.005 A 
HETATM    5  C   UNL     1      24.994  45.992  50.065  1.00  0.00     0.245 A 
HETATM    6  O   UNL     1      25.537  45.022  49.158  1.00  0.00    -0.291 OA
HETATM    7  C   UNL     1      26.469  44.221  49.765  1.00  0.00     0.298 A 
HETATM    8  O   UNL     1      27.076  43.353  49.178  1.00  0.00    -0.259 OA
HETATM    9  C   UNL     1      25.550  46.292  52.582  1.00  0.00     0.015 A 
HETATM   10  C   UNL     1      26.340  45.807  53.628  1.00  0.00     0.040 A 
ENDROOT
BRANCH   5  11
HETATM   11  N   UNL     1      25.291  47.334  49.595  1.00  0.00    -0.248 NA
HETATM   12  H   UNL     1      26.058  47.737  50.131  1.00  0.00     0.132 HD
BRANCH  11  13
HETATM   13  C   UNL     1      24.274  48.257  49.369  1.00  0.00     0.082 A 
HETATM   14  N   UNL     1      22.984  47.960  49.609  1.00  0.00    -0.355 N 
HETATM   15  H   UNL     1      22.775  47.033  49.988  1.00  0.00     0.166 HD
HETATM   16  C   UNL     1      21.962  48.784  49.331  1.00  0.00     0.108 A 
HETATM   17  C   UNL     1      22.209  50.014  48.741  1.00  0.00     0.026 A 
HETATM   18 BR   UNL     1      20.783  51.180  48.348  1.00  0.00    -0.050 Br
HETATM   19  C   UNL     1      23.515  50.363  48.427  1.00  0.00     0.024 A 
HETATM   20  C   UNL     1      24.549  49.473  48.726  1.00  0.00     0.043 A 
ENDBRANCH  11  13
ENDBRANCH   5  11
BRANCH   2  21
HETATM   21  O   UNL     1      28.212  43.107  51.950  1.00  0.00    -0.352 OA
HETATM   22  C   UNL     1      27.672  41.838  52.329  1.00  0.00     0.210 C 
ENDBRANCH   2  21
BRANCH   1  23
HETATM   23  O   UNL     1      27.937  44.423  54.579  1.00  0.00    -0.353 OA
HETATM   24  C   UNL     1      28.885  45.365  55.069  1.00  0.00     0.210 C 
ENDBRANCH   1  23
TORSDOF 4
ENDMDL
MODEL 7
REMARK VINA RESULT:      -7.5      2.544      3.813
REMARK  4 active torsions:
REMARK  status: ('A' for Active; 'I' for Inactive)
REMARK    1  A    between atoms: O_2  and  C_3 
REMARK    2  A    between atoms: C_4  and  O_5 
REMARK    3  A    between atoms: C_9  and  N_10 
REMARK    4  A    between atoms: N_10  and  C_11 
ROOT
HETATM    1  C   UNL     1      27.807  46.512  55.136  1.00  0.00     0.102 A 
HETATM    2  C   UNL     1      28.872  45.637  55.371  1.00  0.00     0.118 A 
HETATM    3  C   UNL     1      28.810  44.376  54.786  1.00  0.00     0.085 A 
HETATM    4  C   UNL     1      27.736  43.956  54.020  1.00  0.00     0.005 A 
HETATM    5  C   UNL     1      27.972  42.573  53.556  1.00  0.00     0.245 A 
HETATM    6  O   UNL     1      29.250  42.243  54.118  1.00  0.00    -0.291 OA
HETATM    7  C   UNL     1      29.778  43.285  54.835  1.00  0.00     0.298 A 
HETATM    8  O   UNL     1      30.862  43.236  55.370  1.00  0.00    -0.259 OA
HETATM    9  C   UNL     1      26.654  44.794  53.816  1.00  0.00     0.015 A 
HETATM   10  C   UNL     1      26.697  46.072  54.382  1.00  0.00     0.040 A 
ENDROOT
BRANCH   5  11
HETATM   11  N   UNL     1      28.030  42.502  52.107  1.00  0.00    -0.248 NA
HETATM   12  H   UNL     1      28.908  42.893  51.766  1.00  0.00     0.132 HD
BRANCH  11  13
HETATM   13  C   UNL     1      26.949  42.893  51.323  1.00  0.00     0.082 A 
HETATM   14  N   UNL     1      25.771  42.242  51.369  1.00  0.00    -0.355 N 
HETATM   15  H   UNL     1      25.691  41.457  52.020  1.00  0.00     0.166 HD
HETATM   16  C   UNL     1      24.727  42.528  50.576  1.00  0.00     0.108 A 
HETATM   17  C   UNL     1      24.836  43.533  49.628  1.00  0.00     0.026 A 
HETATM   18 BR   UNL     1      23.376  43.945  48.511  1.00  0.00    -0.050 Br
HETATM   19  C   UNL     1      26.039  44.214  49.500  1.00  0.00     0.024 A 
HETATM   20  C   UNL     1      27.104  43.879  50.339  1.00  0.00     0.043 A 
ENDBRANCH  11  13
ENDBRANCH   5  11
BRANCH   2  21
HETATM   21  O   UNL     1      29.966  46.013  56.090  1.00  0.00    -0.352 OA
HETATM   22  C   UNL     1      29.764  45.878  57.499  1.00  0.00     0.210 C 
ENDBRANCH   2  21
BRANCH   1  23
HETATM   23  O   UNL     1      27.662  47.792  55.598  1.00  0.00    -0.353 OA
HETATM   24  C   UNL     1      26.381  48.399  55.463  1.00  0.00     0.210 C 
ENDBRANCH   1  23
TORSDOF 4
ENDMDL
MODEL 8
REMARK VINA RESULT:      -7.4      4.843      7.418
REMARK  4 active torsions:
REMARK  status: ('A' for Active; 'I' for Inactive)
REMARK    1  A    between atoms: O_2  and  C_3 
REMARK    2  A    between atoms: C_4  and  O_5 
REMARK    3  A    between atoms: C_9  and  N_10 
REMARK    4  A    between atoms: N_10  and  C_11 
ROOT
HETATM    1  C   UNL     1      24.368  47.657  49.538  1.00  0.00     0.102 A 
HETATM    2  C   UNL     1      23.445  46.608  49.454  1.00  0.00     0.118 A 
HETATM    3  C   UNL     1      23.798  45.393  50.033  1.00  0.00     0.085 A 
HETATM    4  C   UNL     1      25.019  45.181  50.650  1.00  0.00     0.005 A 
HETATM    5  C   UNL     1      25.085  43.793  51.150  1.00  0.00     0.245 A 
HETATM    6  O   UNL     1      23.819  43.237  50.768  1.00  0.00    -0.291 OA
HETATM    7  C   UNL     1      23.032  44.155  50.122  1.00  0.00     0.298 A 
HETATM    8  O   UNL     1      21.911  43.909  49.738  1.00  0.00    -0.259 OA
HETATM    9  C   UNL     1      25.960  46.195  50.701  1.00  0.00     0.015 A 
HETATM   10  C   UNL     1      25.626  47.430  50.138  1.00  0.00     0.040 A 
ENDROOT
BRANCH   5  11
HETATM   11  N   UNL     1      25.231  43.755  52.595  1.00  0.00    -0.248 NA
HETATM   12  H   UNL     1      24.632  44.454  53.032  1.00  0.00     0.132 HD
BRANCH  11  13
HETATM   13  C   UNL     1      26.488  43.704  53.189  1.00  0.00     0.082 A 
HETATM   14  N   UNL     1      27.190  42.557  53.258  1.00  0.00    -0.355 N 
HETATM   15  H   UNL     1      26.776  41.723  52.836  1.00  0.00     0.166 HD
HETATM   16  C   UNL     1      28.367  42.438  53.891  1.00  0.00     0.108 A 
HETATM   17  C   UNL     1      28.914  43.533  54.543  1.00  0.00     0.026 A 
HETATM   18 BR   UNL     1      30.567  43.379  55.433  1.00  0.00    -0.050 Br
HETATM   19  C   UNL     1      28.219  44.734  54.546  1.00  0.00     0.024 A 
HETATM   20  C   UNL     1      26.993  44.813  53.882  1.00  0.00     0.043 A 
ENDBRANCH  11  13
ENDBRANCH   5  11
BRANCH   2  21
HETATM   21  O   UNL     1      22.218  46.775  48.887  1.00  0.00    -0.352 OA
HETATM   22  C   UNL     1      22.241  46.573  47.471  1.00  0.00     0.210 C 
ENDBRANCH   2  21
BRANCH   1  23
HETATM   23  O   UNL     1      24.231  48.928  49.052  1.00  0.00    -0.353 OA
HETATM   24  C   UNL     1      25.392  49.558  48.520  1.00  0.00     0.210 C 
ENDBRANCH   1  23
TORSDOF 4
ENDMDL
MODEL 9
REMARK VINA RESULT:      -7.4      4.432      7.477
REMARK  4 active torsions:
REMARK  status: ('A' for Active; 'I' for Inactive)
REMARK    1  A    between atoms: O_2  and  C_3 
REMARK    2  A    between atoms: C_4  and  O_5 
REMARK    3  A    between atoms: C_9  and  N_10 
REMARK    4  A    between atoms: N_10  and  C_11 
ROOT
HETATM    1  C   UNL     1      24.409  47.055  49.548  1.00  0.00     0.102 A 
HETATM    2  C   UNL     1      24.115  45.742  49.934  1.00  0.00     0.118 A 
HETATM    3  C   UNL     1      25.017  45.103  50.779  1.00  0.00     0.085 A 
HETATM    4  C   UNL     1      26.188  45.699  51.217  1.00  0.00     0.005 A 
HETATM    5  C   UNL     1      26.924  44.760  52.088  1.00  0.00     0.245 A 
HETATM    6  O   UNL     1      26.090  43.592  52.105  1.00  0.00    -0.291 OA
HETATM    7  C   UNL     1      24.954  43.765  51.357  1.00  0.00     0.298 A 
HETATM    8  O   UNL     1      24.095  42.918  51.257  1.00  0.00    -0.259 OA
HETATM    9  C   UNL     1      26.513  46.980  50.808  1.00  0.00     0.015 A 
HETATM   10  C   UNL     1      25.618  47.650  49.969  1.00  0.00     0.040 A 
ENDROOT
BRANCH   5  11
HETATM   11  N   UNL     1      27.072  45.286  53.433  1.00  0.00    -0.248 NA
HETATM   12  H   UNL     1      26.993  46.302  53.429  1.00  0.00     0.132 HD
BRANCH  11  13
HETATM   13  C   UNL     1      28.097  44.849  54.267  1.00  0.00     0.082 A 
HETATM   14  N   UNL     1      28.587  45.627  55.250  1.00  0.00    -0.355 N 
HETATM   15  H   UNL     1      28.163  46.548  55.380  1.00  0.00     0.166 HD
HETATM   16  C   UNL     1      29.627  45.285  56.026  1.00  0.00     0.108 A 
HETATM   17  C   UNL     1      30.274  44.076  55.819  1.00  0.00     0.026 A 
HETATM   18 BR   UNL     1      31.733  43.584  56.904  1.00  0.00    -0.050 Br
HETATM   19  C   UNL     1      29.845  43.247  54.792  1.00  0.00     0.024 A 
HETATM   20  C   UNL     1      28.764  43.645  54.002  1.00  0.00     0.043 A 
ENDBRANCH  11  13
ENDBRANCH   5  11
BRANCH   2  21
HETATM   21  O   UNL     1      22.962  45.123  49.557  1.00  0.00    -0.352 OA
HETATM   22  C   UNL     1      23.061  44.534  48.258  1.00  0.00     0.210 C 
ENDBRANCH   2  21
BRANCH   1  23
HETATM   23  O   UNL     1      23.667  47.871  48.738  1.00  0.00    -0.353 OA
HETATM   24  C   UNL     1      22.778  48.789  49.366  1.00  0.00     0.210 C 
ENDBRANCH   1  23
TORSDOF 4
ENDMDL
MODEL 10
REMARK VINA RESULT:      -7.4     14.714     16.068
REMARK  4 active torsions:
REMARK  status: ('A' for Active; 'I' for Inactive)
REMARK    1  A    between atoms: O_2  and  C_3 
REMARK    2  A    between atoms: C_4  and  O_5 
REMARK    3  A    between atoms: C_9  and  N_10 
REMARK    4  A    between atoms: N_10  and  C_11 
ROOT
HETATM    1  C   UNL     1      28.603  49.964  41.531  1.00  0.00     0.102 A 
HETATM    2  C   UNL     1      29.273  51.185  41.398  1.00  0.00     0.118 A 
HETATM    3  C   UNL     1      30.599  51.241  41.817  1.00  0.00     0.085 A 
HETATM    4  C   UNL     1      31.255  50.158  42.378  1.00  0.00     0.005 A 
HETATM    5  C   UNL     1      32.639  50.545  42.721  1.00  0.00     0.245 A 
HETATM    6  O   UNL     1      32.714  51.920  42.319  1.00  0.00    -0.291 OA
HETATM    7  C   UNL     1      31.537  52.357  41.771  1.00  0.00     0.298 A 
HETATM    8  O   UNL     1      31.387  53.477  41.337  1.00  0.00    -0.259 OA
HETATM    9  C   UNL     1      30.592  48.957  42.557  1.00  0.00     0.015 A 
HETATM   10  C   UNL     1      29.263  48.870  42.133  1.00  0.00     0.040 A 
ENDROOT
BRANCH   5  11
HETATM   11  N   UNL     1      33.610  49.756  41.983  1.00  0.00    -0.248 NA
HETATM   12  H   UNL     1      33.918  48.959  42.539  1.00  0.00     0.132 HD
BRANCH  11  13
HETATM   13  C   UNL     1      34.668  50.362  41.313  1.00  0.00     0.082 A 
HETATM   14  N   UNL     1      34.531  50.840  40.062  1.00  0.00    -0.355 N 
HETATM   15  H   UNL     1      33.610  50.763  39.626  1.00  0.00     0.166 HD
HETATM   16  C   UNL     1      35.540  51.358  39.345  1.00  0.00     0.108 A 
HETATM   17  C   UNL     1      36.817  51.400  39.882  1.00  0.00     0.026 A 
HETATM   18 BR   UNL     1      38.241  52.127  38.885  1.00  0.00    -0.050 Br
HETATM   19  C   UNL     1      37.035  50.883  41.151  1.00  0.00     0.024 A 
HETATM   20  C   UNL     1      35.959  50.346  41.861  1.00  0.00     0.043 A 
ENDBRANCH  11  13
ENDBRANCH   5  11
BRANCH   2  21
HETATM   21  O   UNL     1      28.682  52.270  40.823  1.00  0.00    -0.352 OA
HETATM   22  C   UNL     1      28.710  52.211  39.395  1.00  0.00     0.210 C 
ENDBRANCH   2  21
BRANCH   1  23
HETATM   23  O   UNL     1      27.312  49.679  41.180  1.00  0.00    -0.353 OA
HETATM   24  C   UNL     1      27.108  48.837  40.050  1.00  0.00     0.210 C 
ENDBRANCH   1  23
TORSDOF 4
ENDMDL
