MODEL 1
REMARK VINA RESULT:      -9.6      0.000      0.000
REMARK  5 active torsions:
REMARK  status: ('A' for Active; 'I' for Inactive)
REMARK    1  A    between atoms: C_6  and  N_7 
REMARK       I    between atoms: N_7  and  C_8 
REMARK       I    between atoms: C_8  and  N_9 
REMARK    2  A    between atoms: N_9  and  C_10 
REMARK    3  A    between atoms: C_10  and  C_11 
REMARK    4  A    between atoms: C_13  and  N_14 
REMARK       I    between atoms: N_14  and  C_15 
REMARK    5  A    between atoms: C_15  and  C_16 
ROOT
HETATM    1  C   UNL     1      25.642  46.266  49.655  1.00  0.00    -0.038 A 
HETATM    2  C   UNL     1      24.397  46.923  49.654  1.00  0.00     0.038 A 
HETATM    3  C   UNL     1      24.312  48.308  49.482  1.00  0.00     0.035 A 
HETATM    4  C   UNL     1      25.488  49.039  49.282  1.00  0.00     0.029 A 
HETATM    5  C   UNL     1      26.729  48.399  49.273  1.00  0.00     0.003 A 
HETATM    6  C   UNL     1      26.806  47.021  49.462  1.00  0.00     0.009 A 
ENDROOT
BRANCH   1   7
HETATM    7  C   UNL     1      25.723  44.768  49.796  1.00  0.00     0.163 C 
BRANCH   7   8
HETATM    8  N   UNL     1      26.211  44.352  51.092  1.00  0.00    -0.339 N 
HETATM    9  C   UNL     1      25.376  43.669  51.921  1.00  0.00     0.320 C 
HETATM   10  N   UNL     1      25.796  43.435  53.194  1.00  0.00    -0.309 N 
HETATM   11  O   UNL     1      24.245  43.317  51.590  1.00  0.00    -0.247 OA
HETATM   12  H   UNL     1      25.024  43.126  53.771  1.00  0.00     0.170 HD
HETATM   13  H   UNL     1      26.808  45.009  51.574  1.00  0.00     0.164 HD
BRANCH  10  14
HETATM   14  C   UNL     1      27.056  43.494  53.815  1.00  0.00     0.037 A 
HETATM   15  C   UNL     1      27.524  44.579  54.554  1.00  0.00     0.049 A 
HETATM   16  C   UNL     1      28.808  44.555  55.118  1.00  0.00     0.019 A 
HETATM   17  C   UNL     1      29.651  43.446  54.947  1.00  0.00    -0.044 A 
HETATM   18 BR   UNL     1      29.363  46.089  56.094  1.00  0.00    -0.051 Br
HETATM   19  C   UNL     1      31.038  43.384  55.523  1.00  0.00     0.049 C 
HETATM   20  C   UNL     1      29.185  42.373  54.178  1.00  0.00     0.010 A 
HETATM   21  C   UNL     1      27.906  42.401  53.614  1.00  0.00     0.030 A 
ENDBRANCH  10  14
ENDBRANCH   7   8
ENDBRANCH   1   7
BRANCH   3  22
HETATM   22  N   UNL     1      23.104  49.027  49.491  1.00  0.00    -0.321 N 
HETATM   23  C   UNL     1      22.538  49.771  48.470  1.00  0.00     0.279 C 
HETATM   24  O   UNL     1      23.015  49.921  47.349  1.00  0.00    -0.265 OA
HETATM   25  H   UNL     1      22.544  48.978  50.335  1.00  0.00     0.169 HD
BRANCH  23  26
HETATM   26  C   UNL     1      21.271  50.368  48.855  1.00  0.00     0.142 A 
HETATM   27  O   UNL     1      20.433  49.688  49.702  1.00  0.00    -0.317 OA
HETATM   28  C   UNL     1      19.339  50.470  49.895  1.00  0.00     0.143 A 
HETATM   29  C   UNL     1      19.451  51.641  49.185  1.00  0.00     0.027 A 
HETATM   30  C   UNL     1      20.696  51.578  48.514  1.00  0.00     0.045 A 
ENDBRANCH  23  26
ENDBRANCH   3  22
TORSDOF 5
ENDMDL
MODEL 2
REMARK VINA RESULT:      -9.1      1.994      3.045
REMARK  5 active torsions:
REMARK  status: ('A' for Active; 'I' for Inactive)
REMARK    1  A    between atoms: C_6  and  N_7 
REMARK       I    between atoms: N_7  and  C_8 
REMARK       I    between atoms: C_8  and  N_9 
REMARK    2  A    between atoms: N_9  and  C_10 
REMARK    3  A    between atoms: C_10  and  C_11 
REMARK    4  A    between atoms: C_13  and  N_14 
REMARK       I    between atoms: N_14  and  C_15 
REMARK    5  A    between atoms: C_15  and  C_16 
ROOT
HETATM    1  C   UNL     1      25.376  43.514  49.659  1.00  0.00    -0.038 A 
HETATM    2  C   UNL     1      25.155  44.880  49.401  1.00  0.00     0.038 A 
HETATM    3  C   UNL     1      23.860  45.401  49.337  1.00  0.00     0.035 A 
HETATM    4  C   UNL     1      22.774  44.549  49.564  1.00  0.00     0.029 A 
HETATM    5  C   UNL     1      22.979  43.193  49.829  1.00  0.00     0.003 A 
HETATM    6  C   UNL     1      24.272  42.678  49.873  1.00  0.00     0.009 A 
ENDROOT
BRANCH   1   7
HETATM    7  C   UNL     1      26.776  42.966  49.770  1.00  0.00     0.163 C 
BRANCH   7   8
HETATM    8  N   UNL     1      27.285  42.995  51.124  1.00  0.00    -0.339 N 
HETATM    9  C   UNL     1      27.279  41.846  51.852  1.00  0.00     0.320 C 
HETATM   10  N   UNL     1      27.603  41.930  53.171  1.00  0.00    -0.309 N 
HETATM   11  O   UNL     1      26.934  40.761  51.389  1.00  0.00    -0.247 OA
HETATM   12  H   UNL     1      27.353  41.074  53.653  1.00  0.00     0.170 HD
HETATM   13  H   UNL     1      27.058  43.817  51.665  1.00  0.00     0.164 HD
BRANCH  10  14
HETATM   14  C   UNL     1      28.234  42.920  53.944  1.00  0.00     0.037 A 
HETATM   15  C   UNL     1      27.713  44.191  54.183  1.00  0.00     0.049 A 
HETATM   16  C   UNL     1      28.430  45.121  54.950  1.00  0.00     0.019 A 
HETATM   17  C   UNL     1      29.686  44.800  55.486  1.00  0.00    -0.044 A 
HETATM   18 BR   UNL     1      27.643  46.833  55.207  1.00  0.00    -0.051 Br
HETATM   19  C   UNL     1      30.493  45.771  56.301  1.00  0.00     0.049 C 
HETATM   20  C   UNL     1      30.217  43.533  55.216  1.00  0.00     0.010 A 
HETATM   21  C   UNL     1      29.502  42.608  54.449  1.00  0.00     0.030 A 
ENDBRANCH  10  14
ENDBRANCH   7   8
ENDBRANCH   1   7
BRANCH   3  22
HETATM   22  N   UNL     1      23.570  46.750  49.064  1.00  0.00    -0.321 N 
HETATM   23  C   UNL     1      23.982  47.876  49.755  1.00  0.00     0.279 C 
HETATM   24  O   UNL     1      24.700  47.878  50.750  1.00  0.00    -0.265 OA
HETATM   25  H   UNL     1      23.016  46.944  48.237  1.00  0.00     0.169 HD
BRANCH  23  26
HETATM   26  C   UNL     1      23.481  49.105  49.164  1.00  0.00     0.142 A 
HETATM   27  O   UNL     1      22.187  49.493  49.407  1.00  0.00    -0.317 OA
HETATM   28  C   UNL     1      21.990  50.663  48.745  1.00  0.00     0.143 A 
HETATM   29  C   UNL     1      23.130  51.037  48.074  1.00  0.00     0.027 A 
HETATM   30  C   UNL     1      24.092  50.034  48.343  1.00  0.00     0.045 A 
ENDBRANCH  23  26
ENDBRANCH   3  22
TORSDOF 5
ENDMDL
MODEL 3
REMARK VINA RESULT:      -9.0      3.804      9.282
REMARK  5 active torsions:
REMARK  status: ('A' for Active; 'I' for Inactive)
REMARK    1  A    between atoms: C_6  and  N_7 
REMARK       I    between atoms: N_7  and  C_8 
REMARK       I    between atoms: C_8  and  N_9 
REMARK    2  A    between atoms: N_9  and  C_10 
REMARK    3  A    between atoms: C_10  and  C_11 
REMARK    4  A    between atoms: C_13  and  N_14 
REMARK       I    between atoms: N_14  and  C_15 
REMARK    5  A    between atoms: C_15  and  C_16 
ROOT
HETATM    1  C   UNL     1      28.012  44.335  54.033  1.00  0.00    -0.038 A 
HETATM    2  C   UNL     1      27.992  43.344  53.034  1.00  0.00     0.038 A 
HETATM    3  C   UNL     1      29.088  42.500  52.833  1.00  0.00     0.035 A 
HETATM    4  C   UNL     1      30.206  42.634  53.663  1.00  0.00     0.029 A 
HETATM    5  C   UNL     1      30.237  43.607  54.663  1.00  0.00     0.003 A 
HETATM    6  C   UNL     1      29.147  44.456  54.844  1.00  0.00     0.009 A 
ENDROOT
BRANCH   1   7
HETATM    7  C   UNL     1      26.810  45.213  54.273  1.00  0.00     0.163 C 
BRANCH   7   8
HETATM    8  N   UNL     1      26.267  45.768  53.052  1.00  0.00    -0.339 N 
HETATM    9  C   UNL     1      25.158  45.199  52.508  1.00  0.00     0.320 C 
HETATM   10  N   UNL     1      24.764  45.627  51.278  1.00  0.00    -0.309 N 
HETATM   11  O   UNL     1      24.545  44.279  53.047  1.00  0.00    -0.247 OA
HETATM   12  H   UNL     1      24.079  44.993  50.885  1.00  0.00     0.170 HD
HETATM   13  H   UNL     1      26.942  46.074  52.366  1.00  0.00     0.164 HD
BRANCH  10  14
HETATM   14  C   UNL     1      25.082  46.759  50.508  1.00  0.00     0.037 A 
HETATM   15  C   UNL     1      24.144  47.626  49.949  1.00  0.00     0.049 A 
HETATM   16  C   UNL     1      24.559  48.719  49.175  1.00  0.00     0.019 A 
HETATM   17  C   UNL     1      25.920  48.962  48.939  1.00  0.00    -0.044 A 
HETATM   18 BR   UNL     1      23.204  49.834  48.441  1.00  0.00    -0.051 Br
HETATM   19  C   UNL     1      26.407  50.114  48.104  1.00  0.00     0.049 C 
HETATM   20  C   UNL     1      26.855  48.070  49.478  1.00  0.00     0.010 A 
HETATM   21  C   UNL     1      26.439  46.979  50.247  1.00  0.00     0.030 A 
ENDBRANCH  10  14
ENDBRANCH   7   8
ENDBRANCH   1   7
BRANCH   3  22
HETATM   22  N   UNL     1      29.140  41.504  51.842  1.00  0.00    -0.321 N 
HETATM   23  C   UNL     1      28.099  40.761  51.313  1.00  0.00     0.279 C 
HETATM   24  O   UNL     1      26.919  40.861  51.632  1.00  0.00    -0.265 OA
HETATM   25  H   UNL     1      30.045  41.316  51.424  1.00  0.00     0.169 HD
BRANCH  23  26
HETATM   26  C   UNL     1      28.546  39.825  50.296  1.00  0.00     0.142 A 
HETATM   27  O   UNL     1      29.282  38.726  50.665  1.00  0.00    -0.317 OA
HETATM   28  C   UNL     1      29.556  38.030  49.532  1.00  0.00     0.143 A 
HETATM   29  C   UNL     1      29.017  38.659  48.435  1.00  0.00     0.027 A 
HETATM   30  C   UNL     1      28.365  39.815  48.926  1.00  0.00     0.045 A 
ENDBRANCH  23  26
ENDBRANCH   3  22
TORSDOF 5
ENDMDL
MODEL 4
REMARK VINA RESULT:      -9.0      1.608      2.000
REMARK  5 active torsions:
REMARK  status: ('A' for Active; 'I' for Inactive)
REMARK    1  A    between atoms: C_6  and  N_7 
REMARK       I    between atoms: N_7  and  C_8 
REMARK       I    between atoms: C_8  and  N_9 
REMARK    2  A    between atoms: N_9  and  C_10 
REMARK    3  A    between atoms: C_10  and  C_11 
REMARK    4  A    between atoms: C_13  and  N_14 
REMARK       I    between atoms: N_14  and  C_15 
REMARK    5  A    between atoms: C_15  and  C_16 
ROOT
HETATM    1  C   UNL     1      25.573  46.126  50.712  1.00  0.00    -0.038 A 
HETATM    2  C   UNL     1      24.406  46.896  50.555  1.00  0.00     0.038 A 
HETATM    3  C   UNL     1      24.433  48.115  49.871  1.00  0.00     0.035 A 
HETATM    4  C   UNL     1      25.640  48.552  49.314  1.00  0.00     0.029 A 
HETATM    5  C   UNL     1      26.803  47.794  49.455  1.00  0.00     0.003 A 
HETATM    6  C   UNL     1      26.772  46.590  50.154  1.00  0.00     0.009 A 
ENDROOT
BRANCH   1   7
HETATM    7  C   UNL     1      25.528  44.791  51.412  1.00  0.00     0.163 C 
BRANCH   7   8
HETATM    8  N   UNL     1      26.672  44.568  52.269  1.00  0.00    -0.339 N 
HETATM    9  C   UNL     1      27.611  43.660  51.888  1.00  0.00     0.320 C 
HETATM   10  N   UNL     1      28.587  43.344  52.782  1.00  0.00    -0.309 N 
HETATM   11  O   UNL     1      27.574  43.073  50.809  1.00  0.00    -0.247 OA
HETATM   12  H   UNL     1      29.085  42.514  52.483  1.00  0.00     0.170 HD
HETATM   13  H   UNL     1      26.489  44.567  53.262  1.00  0.00     0.164 HD
BRANCH  10  14
HETATM   14  C   UNL     1      29.042  43.955  53.963  1.00  0.00     0.037 A 
HETATM   15  C   UNL     1      30.035  43.435  54.792  1.00  0.00     0.049 A 
HETATM   16  C   UNL     1      30.406  44.109  55.965  1.00  0.00     0.019 A 
HETATM   17  C   UNL     1      29.785  45.311  56.335  1.00  0.00    -0.044 A 
HETATM   18 BR   UNL     1      31.758  43.312  57.039  1.00  0.00    -0.051 Br
HETATM   19  C   UNL     1      30.143  46.057  57.590  1.00  0.00     0.049 C 
HETATM   20  C   UNL     1      28.767  45.811  55.513  1.00  0.00     0.010 A 
HETATM   21  C   UNL     1      28.397  45.137  54.346  1.00  0.00     0.030 A 
ENDBRANCH  10  14
ENDBRANCH   7   8
ENDBRANCH   1   7
BRANCH   3  22
HETATM   22  N   UNL     1      23.309  48.941  49.695  1.00  0.00    -0.321 N 
HETATM   23  C   UNL     1      22.487  49.052  48.587  1.00  0.00     0.279 C 
HETATM   24  O   UNL     1      22.608  48.418  47.544  1.00  0.00    -0.265 OA
HETATM   25  H   UNL     1      23.029  49.513  50.485  1.00  0.00     0.169 HD
BRANCH  23  26
HETATM   26  C   UNL     1      21.417  50.014  48.784  1.00  0.00     0.142 A 
HETATM   27  O   UNL     1      20.927  50.232  50.048  1.00  0.00    -0.317 OA
HETATM   28  C   UNL     1      19.952  51.171  49.943  1.00  0.00     0.143 A 
HETATM   29  C   UNL     1      19.796  51.562  48.634  1.00  0.00     0.027 A 
HETATM   30  C   UNL     1      20.740  50.818  47.886  1.00  0.00     0.045 A 
ENDBRANCH  23  26
ENDBRANCH   3  22
TORSDOF 5
ENDMDL
MODEL 5
REMARK VINA RESULT:      -8.9      1.695      2.183
REMARK  5 active torsions:
REMARK  status: ('A' for Active; 'I' for Inactive)
REMARK    1  A    between atoms: C_6  and  N_7 
REMARK       I    between atoms: N_7  and  C_8 
REMARK       I    between atoms: C_8  and  N_9 
REMARK    2  A    between atoms: N_9  and  C_10 
REMARK    3  A    between atoms: C_10  and  C_11 
REMARK    4  A    between atoms: C_13  and  N_14 
REMARK       I    between atoms: N_14  and  C_15 
REMARK    5  A    between atoms: C_15  and  C_16 
ROOT
HETATM    1  C   UNL     1      24.221  47.109  49.473  1.00  0.00    -0.038 A 
HETATM    2  C   UNL     1      22.998  47.800  49.382  1.00  0.00     0.038 A 
HETATM    3  C   UNL     1      22.965  49.178  49.149  1.00  0.00     0.035 A 
HETATM    4  C   UNL     1      24.171  49.866  48.977  1.00  0.00     0.029 A 
HETATM    5  C   UNL     1      25.391  49.191  49.056  1.00  0.00     0.003 A 
HETATM    6  C   UNL     1      25.416  47.821  49.307  1.00  0.00     0.009 A 
ENDROOT
BRANCH   1   7
HETATM    7  C   UNL     1      24.249  45.616  49.680  1.00  0.00     0.163 C 
BRANCH   7   8
HETATM    8  N   UNL     1      24.937  45.231  50.893  1.00  0.00    -0.339 N 
HETATM    9  C   UNL     1      24.548  44.098  51.537  1.00  0.00     0.320 C 
HETATM   10  N   UNL     1      25.092  43.844  52.759  1.00  0.00    -0.309 N 
HETATM   11  O   UNL     1      23.687  43.339  51.097  1.00  0.00    -0.247 OA
HETATM   12  H   UNL     1      24.575  43.113  53.232  1.00  0.00     0.170 HD
HETATM   13  H   UNL     1      25.192  45.983  51.516  1.00  0.00     0.164 HD
BRANCH  10  14
HETATM   14  C   UNL     1      26.215  44.353  53.434  1.00  0.00     0.037 A 
HETATM   15  C   UNL     1      27.442  43.699  53.533  1.00  0.00     0.049 A 
HETATM   16  C   UNL     1      28.500  44.278  54.250  1.00  0.00     0.019 A 
HETATM   17  C   UNL     1      28.348  45.519  54.886  1.00  0.00    -0.044 A 
HETATM   18 BR   UNL     1      30.129  43.302  54.343  1.00  0.00    -0.051 Br
HETATM   19  C   UNL     1      29.451  46.168  55.675  1.00  0.00     0.049 C 
HETATM   20  C   UNL     1      27.103  46.155  54.807  1.00  0.00     0.010 A 
HETATM   21  C   UNL     1      26.049  45.575  54.095  1.00  0.00     0.030 A 
ENDBRANCH  10  14
ENDBRANCH   7   8
ENDBRANCH   1   7
BRANCH   3  22
HETATM   22  N   UNL     1      21.780  49.931  49.067  1.00  0.00    -0.321 N 
HETATM   23  C   UNL     1      21.287  50.861  49.966  1.00  0.00     0.279 C 
HETATM   24  O   UNL     1      21.830  51.195  51.015  1.00  0.00    -0.265 OA
HETATM   25  H   UNL     1      21.217  49.816  48.232  1.00  0.00     0.169 HD
BRANCH  23  26
HETATM   26  C   UNL     1      20.028  51.440  49.532  1.00  0.00     0.142 A 
HETATM   27  O   UNL     1      18.884  51.182  50.246  1.00  0.00    -0.317 OA
HETATM   28  C   UNL     1      17.871  51.844  49.630  1.00  0.00     0.143 A 
HETATM   29  C   UNL     1      18.335  52.520  48.527  1.00  0.00     0.027 A 
HETATM   30  C   UNL     1      19.725  52.262  48.463  1.00  0.00     0.045 A 
ENDBRANCH  23  26
ENDBRANCH   3  22
TORSDOF 5
ENDMDL
MODEL 6
REMARK VINA RESULT:      -8.4      3.672      8.798
REMARK  5 active torsions:
REMARK  status: ('A' for Active; 'I' for Inactive)
REMARK    1  A    between atoms: C_6  and  N_7 
REMARK       I    between atoms: N_7  and  C_8 
REMARK       I    between atoms: C_8  and  N_9 
REMARK    2  A    between atoms: N_9  and  C_10 
REMARK    3  A    between atoms: C_10  and  C_11 
REMARK    4  A    between atoms: C_13  and  N_14 
REMARK       I    between atoms: N_14  and  C_15 
REMARK    5  A    between atoms: C_15  and  C_16 
ROOT
HETATM    1  C   UNL     1      26.185  41.878  50.501  1.00  0.00    -0.038 A 
HETATM    2  C   UNL     1      26.688  42.670  51.550  1.00  0.00     0.038 A 
HETATM    3  C   UNL     1      27.798  42.261  52.294  1.00  0.00     0.035 A 
HETATM    4  C   UNL     1      28.428  41.056  51.964  1.00  0.00     0.029 A 
HETATM    5  C   UNL     1      27.945  40.264  50.920  1.00  0.00     0.003 A 
HETATM    6  C   UNL     1      26.827  40.670  50.195  1.00  0.00     0.009 A 
ENDROOT
BRANCH   1   7
HETATM    7  C   UNL     1      25.014  42.346  49.674  1.00  0.00     0.163 C 
BRANCH   7   8
HETATM    8  N   UNL     1      24.825  43.778  49.730  1.00  0.00    -0.339 N 
HETATM    9  C   UNL     1      23.705  44.270  50.325  1.00  0.00     0.320 C 
HETATM   10  N   UNL     1      23.464  45.605  50.219  1.00  0.00    -0.309 N 
HETATM   11  O   UNL     1      22.878  43.556  50.889  1.00  0.00    -0.247 OA
HETATM   12  H   UNL     1      22.514  45.817  50.498  1.00  0.00     0.170 HD
HETATM   13  H   UNL     1      25.106  44.295  48.909  1.00  0.00     0.164 HD
BRANCH  10  14
HETATM   14  C   UNL     1      24.268  46.700  49.856  1.00  0.00     0.037 A 
HETATM   15  C   UNL     1      23.804  47.843  49.207  1.00  0.00     0.049 A 
HETATM   16  C   UNL     1      24.690  48.875  48.864  1.00  0.00     0.019 A 
HETATM   17  C   UNL     1      26.058  48.780  49.160  1.00  0.00    -0.044 A 
HETATM   18 BR   UNL     1      23.965  50.385  47.965  1.00  0.00    -0.051 Br
HETATM   19  C   UNL     1      27.043  49.857  48.799  1.00  0.00     0.049 C 
HETATM   20  C   UNL     1      26.521  47.616  49.785  1.00  0.00     0.010 A 
HETATM   21  C   UNL     1      25.637  46.587  50.122  1.00  0.00     0.030 A 
ENDBRANCH  10  14
ENDBRANCH   7   8
ENDBRANCH   1   7
BRANCH   3  22
HETATM   22  N   UNL     1      28.338  42.994  53.365  1.00  0.00    -0.321 N 
HETATM   23  C   UNL     1      29.669  43.195  53.686  1.00  0.00     0.279 C 
HETATM   24  O   UNL     1      30.627  42.756  53.059  1.00  0.00    -0.265 OA
HETATM   25  H   UNL     1      27.682  43.473  53.973  1.00  0.00     0.169 HD
BRANCH  23  26
HETATM   26  C   UNL     1      29.836  44.019  54.871  1.00  0.00     0.142 A 
HETATM   27  O   UNL     1      28.945  45.033  55.120  1.00  0.00    -0.317 OA
HETATM   28  C   UNL     1      29.330  45.628  56.278  1.00  0.00     0.143 A 
HETATM   29  C   UNL     1      30.457  45.024  56.781  1.00  0.00     0.027 A 
HETATM   30  C   UNL     1      30.785  43.986  55.876  1.00  0.00     0.045 A 
ENDBRANCH  23  26
ENDBRANCH   3  22
TORSDOF 5
ENDMDL
MODEL 7
REMARK VINA RESULT:      -8.3      2.104      2.374
REMARK  5 active torsions:
REMARK  status: ('A' for Active; 'I' for Inactive)
REMARK    1  A    between atoms: C_6  and  N_7 
REMARK       I    between atoms: N_7  and  C_8 
REMARK       I    between atoms: C_8  and  N_9 
REMARK    2  A    between atoms: N_9  and  C_10 
REMARK    3  A    between atoms: C_10  and  C_11 
REMARK    4  A    between atoms: C_13  and  N_14 
REMARK       I    between atoms: N_14  and  C_15 
REMARK    5  A    between atoms: C_15  and  C_16 
ROOT
HETATM    1  C   UNL     1      25.860  45.409  49.715  1.00  0.00    -0.038 A 
HETATM    2  C   UNL     1      24.484  45.506  49.435  1.00  0.00     0.038 A 
HETATM    3  C   UNL     1      23.839  46.745  49.404  1.00  0.00     0.035 A 
HETATM    4  C   UNL     1      24.589  47.905  49.630  1.00  0.00     0.029 A 
HETATM    5  C   UNL     1      25.956  47.825  49.902  1.00  0.00     0.003 A 
HETATM    6  C   UNL     1      26.588  46.584  49.948  1.00  0.00     0.009 A 
ENDROOT
BRANCH   1   7
HETATM    7  C   UNL     1      26.558  44.073  49.703  1.00  0.00     0.163 C 
BRANCH   7   8
HETATM    8  N   UNL     1      27.271  43.802  50.932  1.00  0.00    -0.339 N 
HETATM    9  C   UNL     1      27.680  42.529  51.186  1.00  0.00     0.320 C 
HETATM   10  N   UNL     1      28.197  42.263  52.417  1.00  0.00    -0.309 N 
HETATM   11  O   UNL     1      27.541  41.609  50.384  1.00  0.00    -0.247 OA
HETATM   12  H   UNL     1      28.257  41.263  52.567  1.00  0.00     0.170 HD
HETATM   13  H   UNL     1      26.944  44.292  51.752  1.00  0.00     0.164 HD
BRANCH  10  14
HETATM   14  C   UNL     1      28.686  43.081  53.450  1.00  0.00     0.037 A 
HETATM   15  C   UNL     1      28.153  44.322  53.797  1.00  0.00     0.049 A 
HETATM   16  C   UNL     1      28.725  45.078  54.831  1.00  0.00     0.019 A 
HETATM   17  C   UNL     1      29.846  44.609  55.533  1.00  0.00    -0.044 A 
HETATM   18 BR   UNL     1      27.937  46.764  55.219  1.00  0.00    -0.051 Br
HETATM   19  C   UNL     1      30.498  45.392  56.638  1.00  0.00     0.049 C 
HETATM   20  C   UNL     1      30.394  43.376  55.158  1.00  0.00     0.010 A 
HETATM   21  C   UNL     1      29.824  42.626  54.125  1.00  0.00     0.030 A 
ENDBRANCH  10  14
ENDBRANCH   7   8
ENDBRANCH   1   7
BRANCH   3  22
HETATM   22  N   UNL     1      22.466  46.910  49.150  1.00  0.00    -0.321 N 
HETATM   23  C   UNL     1      21.858  47.648  48.150  1.00  0.00     0.279 C 
HETATM   24  O   UNL     1      22.443  48.297  47.288  1.00  0.00    -0.265 OA
HETATM   25  H   UNL     1      21.822  46.401  49.747  1.00  0.00     0.169 HD
BRANCH  23  26
HETATM   26  C   UNL     1      20.409  47.572  48.206  1.00  0.00     0.142 A 
HETATM   27  O   UNL     1      19.656  48.502  47.533  1.00  0.00    -0.317 OA
HETATM   28  C   UNL     1      18.352  48.193  47.750  1.00  0.00     0.143 A 
HETATM   29  C   UNL     1      18.244  47.084  48.554  1.00  0.00     0.027 A 
HETATM   30  C   UNL     1      19.569  46.681  48.848  1.00  0.00     0.045 A 
ENDBRANCH  23  26
ENDBRANCH   3  22
TORSDOF 5
ENDMDL
MODEL 8
REMARK VINA RESULT:      -8.1      2.835      4.756
REMARK  5 active torsions:
REMARK  status: ('A' for Active; 'I' for Inactive)
REMARK    1  A    between atoms: C_6  and  N_7 
REMARK       I    between atoms: N_7  and  C_8 
REMARK       I    between atoms: C_8  and  N_9 
REMARK    2  A    between atoms: N_9  and  C_10 
REMARK    3  A    between atoms: C_10  and  C_11 
REMARK    4  A    between atoms: C_13  and  N_14 
REMARK       I    between atoms: N_14  and  C_15 
REMARK    5  A    between atoms: C_15  and  C_16 
ROOT
HETATM    1  C   UNL     1      26.733  41.258  49.320  1.00  0.00    -0.038 A 
HETATM    2  C   UNL     1      26.337  42.605  49.407  1.00  0.00     0.038 A 
HETATM    3  C   UNL     1      25.144  43.046  48.826  1.00  0.00     0.035 A 
HETATM    4  C   UNL     1      24.325  42.117  48.175  1.00  0.00     0.029 A 
HETATM    5  C   UNL     1      24.701  40.776  48.088  1.00  0.00     0.003 A 
HETATM    6  C   UNL     1      25.900  40.349  48.653  1.00  0.00     0.009 A 
ENDROOT
BRANCH   1   7
HETATM    7  C   UNL     1      27.998  40.781  49.986  1.00  0.00     0.163 C 
BRANCH   7   8
HETATM    8  N   UNL     1      28.221  41.397  51.275  1.00  0.00    -0.339 N 
HETATM    9  C   UNL     1      28.827  40.673  52.254  1.00  0.00     0.320 C 
HETATM   10  N   UNL     1      28.875  41.210  53.503  1.00  0.00    -0.309 N 
HETATM   11  O   UNL     1      29.267  39.540  52.072  1.00  0.00    -0.247 OA
HETATM   12  H   UNL     1      29.140  40.506  54.182  1.00  0.00     0.170 HD
HETATM   13  H   UNL     1      27.481  41.995  51.615  1.00  0.00     0.164 HD
BRANCH  10  14
HETATM   14  C   UNL     1      28.680  42.511  53.997  1.00  0.00     0.037 A 
HETATM   15  C   UNL     1      27.507  43.249  53.844  1.00  0.00     0.049 A 
HETATM   16  C   UNL     1      27.416  44.553  54.353  1.00  0.00     0.019 A 
HETATM   17  C   UNL     1      28.499  45.146  55.019  1.00  0.00    -0.044 A 
HETATM   18 BR   UNL     1      25.781  45.485  54.080  1.00  0.00    -0.051 Br
HETATM   19  C   UNL     1      28.448  46.545  55.567  1.00  0.00     0.049 C 
HETATM   20  C   UNL     1      29.684  44.410  55.141  1.00  0.00     0.010 A 
HETATM   21  C   UNL     1      29.774  43.112  54.630  1.00  0.00     0.030 A 
ENDBRANCH  10  14
ENDBRANCH   7   8
ENDBRANCH   1   7
BRANCH   3  22
HETATM   22  N   UNL     1      24.701  44.380  48.860  1.00  0.00    -0.321 N 
HETATM   23  C   UNL     1      24.037  45.040  49.879  1.00  0.00     0.279 C 
HETATM   24  O   UNL     1      23.725  44.552  50.960  1.00  0.00    -0.265 OA
HETATM   25  H   UNL     1      24.916  44.958  48.055  1.00  0.00     0.169 HD
BRANCH  23  26
HETATM   26  C   UNL     1      23.746  46.424  49.546  1.00  0.00     0.142 A 
HETATM   27  O   UNL     1      22.681  46.713  48.731  1.00  0.00    -0.317 OA
HETATM   28  C   UNL     1      22.638  48.064  48.593  1.00  0.00     0.143 A 
HETATM   29  C   UNL     1      23.659  48.655  49.298  1.00  0.00     0.027 A 
HETATM   30  C   UNL     1      24.374  47.600  49.914  1.00  0.00     0.045 A 
ENDBRANCH  23  26
ENDBRANCH   3  22
TORSDOF 5
ENDMDL
MODEL 9
REMARK VINA RESULT:      -8.0      4.103      9.542
REMARK  5 active torsions:
REMARK  status: ('A' for Active; 'I' for Inactive)
REMARK    1  A    between atoms: C_6  and  N_7 
REMARK       I    between atoms: N_7  and  C_8 
REMARK       I    between atoms: C_8  and  N_9 
REMARK    2  A    between atoms: N_9  and  C_10 
REMARK    3  A    between atoms: C_10  and  C_11 
REMARK    4  A    between atoms: C_13  and  N_14 
REMARK       I    between atoms: N_14  and  C_15 
REMARK    5  A    between atoms: C_15  and  C_16 
ROOT
HETATM    1  C   UNL     1      23.739  46.614  49.311  1.00  0.00    -0.038 A 
HETATM    2  C   UNL     1      24.474  46.173  50.427  1.00  0.00     0.038 A 
HETATM    3  C   UNL     1      25.564  46.903  50.907  1.00  0.00     0.035 A 
HETATM    4  C   UNL     1      25.905  48.105  50.277  1.00  0.00     0.029 A 
HETATM    5  C   UNL     1      25.181  48.558  49.173  1.00  0.00     0.003 A 
HETATM    6  C   UNL     1      24.106  47.815  48.690  1.00  0.00     0.009 A 
ENDROOT
BRANCH   1   7
HETATM    7  C   UNL     1      22.537  45.845  48.825  1.00  0.00     0.163 C 
BRANCH   7   8
HETATM    8  N   UNL     1      21.317  46.620  48.876  1.00  0.00    -0.339 N 
HETATM    9  C   UNL     1      20.123  45.969  48.841  1.00  0.00     0.320 C 
HETATM   10  N   UNL     1      18.994  46.719  48.721  1.00  0.00    -0.309 N 
HETATM   11  O   UNL     1      20.029  44.743  48.846  1.00  0.00    -0.247 OA
HETATM   12  H   UNL     1      18.203  46.133  48.483  1.00  0.00     0.170 HD
HETATM   13  H   UNL     1      21.319  47.486  48.357  1.00  0.00     0.164 HD
BRANCH  10  14
HETATM   14  C   UNL     1      18.727  48.087  48.903  1.00  0.00     0.037 A 
HETATM   15  C   UNL     1      18.457  48.986  47.872  1.00  0.00     0.049 A 
HETATM   16  C   UNL     1      18.224  50.341  48.153  1.00  0.00     0.019 A 
HETATM   17  C   UNL     1      18.265  50.823  49.469  1.00  0.00    -0.044 A 
HETATM   18 BR   UNL     1      17.881  51.491  46.678  1.00  0.00    -0.051 Br
HETATM   19  C   UNL     1      18.036  52.269  49.812  1.00  0.00     0.049 C 
HETATM   20  C   UNL     1      18.567  49.920  50.496  1.00  0.00     0.010 A 
HETATM   21  C   UNL     1      18.802  48.571  50.214  1.00  0.00     0.030 A 
ENDBRANCH  10  14
ENDBRANCH   7   8
ENDBRANCH   1   7
BRANCH   3  22
HETATM   22  N   UNL     1      26.351  46.508  52.004  1.00  0.00    -0.321 N 
HETATM   23  C   UNL     1      26.300  46.967  53.309  1.00  0.00     0.279 C 
HETATM   24  O   UNL     1      25.526  47.818  53.735  1.00  0.00    -0.265 OA
HETATM   25  H   UNL     1      27.026  45.768  51.845  1.00  0.00     0.169 HD
BRANCH  23  26
HETATM   26  C   UNL     1      27.274  46.313  54.166  1.00  0.00     0.142 A 
HETATM   27  O   UNL     1      27.874  47.026  55.173  1.00  0.00    -0.317 OA
HETATM   28  C   UNL     1      28.723  46.179  55.811  1.00  0.00     0.143 A 
HETATM   29  C   UNL     1      28.689  44.933  55.233  1.00  0.00     0.027 A 
HETATM   30  C   UNL     1      27.754  45.017  54.173  1.00  0.00     0.045 A 
ENDBRANCH  23  26
ENDBRANCH   3  22
TORSDOF 5
ENDMDL
MODEL 10
REMARK VINA RESULT:      -8.0      3.919      8.572
REMARK  5 active torsions:
REMARK  status: ('A' for Active; 'I' for Inactive)
REMARK    1  A    between atoms: C_6  and  N_7 
REMARK       I    between atoms: N_7  and  C_8 
REMARK       I    between atoms: C_8  and  N_9 
REMARK    2  A    between atoms: N_9  and  C_10 
REMARK    3  A    between atoms: C_10  and  C_11 
REMARK    4  A    between atoms: C_13  and  N_14 
REMARK       I    between atoms: N_14  and  C_15 
REMARK    5  A    between atoms: C_15  and  C_16 
ROOT
HETATM    1  C   UNL     1      24.757  49.295  48.539  1.00  0.00    -0.038 A 
HETATM    2  C   UNL     1      24.883  48.259  49.483  1.00  0.00     0.038 A 
HETATM    3  C   UNL     1      26.132  47.898  49.995  1.00  0.00     0.035 A 
HETATM    4  C   UNL     1      27.266  48.604  49.576  1.00  0.00     0.029 A 
HETATM    5  C   UNL     1      27.154  49.639  48.647  1.00  0.00     0.003 A 
HETATM    6  C   UNL     1      25.907  49.981  48.128  1.00  0.00     0.009 A 
ENDROOT
BRANCH   1   7
HETATM    7  C   UNL     1      23.402  49.709  48.025  1.00  0.00     0.163 C 
BRANCH   7   8
HETATM    8  N   UNL     1      22.440  48.628  48.043  1.00  0.00    -0.339 N 
HETATM    9  C   UNL     1      21.402  48.687  48.920  1.00  0.00     0.320 C 
HETATM   10  N   UNL     1      20.608  47.588  49.038  1.00  0.00    -0.309 N 
HETATM   11  O   UNL     1      21.195  49.656  49.648  1.00  0.00    -0.247 OA
HETATM   12  H   UNL     1      20.021  47.662  49.860  1.00  0.00     0.170 HD
HETATM   13  H   UNL     1      22.816  47.699  47.924  1.00  0.00     0.164 HD
BRANCH  10  14
HETATM   14  C   UNL     1      20.427  46.445  48.240  1.00  0.00     0.037 A 
HETATM   15  C   UNL     1      21.338  45.394  48.143  1.00  0.00     0.049 A 
HETATM   16  C   UNL     1      21.078  44.304  47.300  1.00  0.00     0.019 A 
HETATM   17  C   UNL     1      19.905  44.247  46.533  1.00  0.00    -0.044 A 
HETATM   18 BR   UNL     1      22.388  42.928  47.224  1.00  0.00    -0.051 Br
HETATM   19  C   UNL     1      19.594  43.104  45.608  1.00  0.00     0.049 C 
HETATM   20  C   UNL     1      19.009  45.321  46.613  1.00  0.00     0.010 A 
HETATM   21  C   UNL     1      19.272  46.408  47.451  1.00  0.00     0.030 A 
ENDBRANCH  10  14
ENDBRANCH   7   8
ENDBRANCH   1   7
BRANCH   3  22
HETATM   22  N   UNL     1      26.330  46.860  50.923  1.00  0.00    -0.321 N 
HETATM   23  C   UNL     1      25.935  46.805  52.248  1.00  0.00     0.279 C 
HETATM   24  O   UNL     1      25.320  47.682  52.846  1.00  0.00    -0.265 OA
HETATM   25  H   UNL     1      26.790  46.021  50.586  1.00  0.00     0.169 HD
BRANCH  23  26
HETATM   26  C   UNL     1      26.317  45.559  52.890  1.00  0.00     0.142 A 
HETATM   27  O   UNL     1      26.960  44.591  52.159  1.00  0.00    -0.317 OA
HETATM   28  C   UNL     1      27.200  43.550  52.997  1.00  0.00     0.143 A 
HETATM   29  C   UNL     1      26.720  43.822  54.256  1.00  0.00     0.027 A 
HETATM   30  C   UNL     1      26.151  45.116  54.189  1.00  0.00     0.045 A 
ENDBRANCH  23  26
ENDBRANCH   3  22
TORSDOF 5
ENDMDL
