MODEL 1
REMARK VINA RESULT:      -9.6      0.000      0.000
REMARK  7 active torsions:
REMARK  status: ('A' for Active; 'I' for Inactive)
REMARK    1  A    between atoms: O_2  and  C_3 
REMARK    2  A    between atoms: C_4  and  O_5 
REMARK    3  A    between atoms: C_7  and  C_8 
REMARK       I    between atoms: C_8  and  N_9 
REMARK    4  A    between atoms: N_9  and  C_10 
REMARK    5  A    between atoms: C_10  and  C_11 
REMARK    6  A    between atoms: C_11  and  N_12 
REMARK    7  A    between atoms: C_11  and  C_18 
ROOT
HETATM    1  C   UNL     1      25.062  46.847  51.115  1.00  0.00     0.239 C 
ENDROOT
BRANCH   1   2
HETATM    2  C   UNL     1      25.756  47.117  52.490  1.00  0.00     0.161 C 
BRANCH   2   3
HETATM    3  N   UNL     1      26.723  46.105  52.898  1.00  0.00    -0.354 N 
HETATM    4  C   UNL     1      27.034  45.842  54.210  1.00  0.00     0.254 C 
HETATM    5  O   UNL     1      26.401  46.367  55.120  1.00  0.00    -0.268 OA
HETATM    6  H   UNL     1      27.271  45.633  52.181  1.00  0.00     0.162 HD
BRANCH   4   7
HETATM    7  C   UNL     1      28.131  44.870  54.503  1.00  0.00     0.068 A 
HETATM    8  C   UNL     1      29.167  45.092  55.435  1.00  0.00     0.117 A 
HETATM    9  C   UNL     1      30.215  44.149  55.549  1.00  0.00     0.102 A 
HETATM   10  C   UNL     1      30.161  42.964  54.805  1.00  0.00     0.040 A 
HETATM   11  C   UNL     1      29.110  42.725  53.922  1.00  0.00     0.004 A 
HETATM   12  C   UNL     1      28.110  43.680  53.759  1.00  0.00     0.020 A 
BRANCH   8  13
HETATM   13  O   UNL     1      29.147  46.281  56.133  1.00  0.00    -0.352 OA
HETATM   14  C   UNL     1      28.828  46.159  57.523  1.00  0.00     0.210 C 
ENDBRANCH   8  13
BRANCH   9  15
HETATM   15  O   UNL     1      31.260  44.472  56.376  1.00  0.00    -0.353 OA
HETATM   16  C   UNL     1      31.855  43.430  57.141  1.00  0.00     0.210 C 
ENDBRANCH   9  15
ENDBRANCH   4   7
ENDBRANCH   2   3
ENDBRANCH   1   2
BRANCH   1  17
HETATM   17  N   UNL     1      25.279  45.393  50.654  1.00  0.00    -0.061 N 
HETATM   18  H   UNL     1      26.210  45.130  51.003  1.00  0.00     0.280 HD
HETATM   19  C   UNL     1      25.202  45.173  49.159  1.00  0.00     0.236 C 
HETATM   20  C   UNL     1      23.763  44.769  48.934  1.00  0.00     0.029 C 
HETATM   21  C   UNL     1      23.503  43.826  50.088  1.00  0.00     0.029 C 
HETATM   22  C   UNL     1      24.286  44.402  51.259  1.00  0.00     0.236 C 
ENDBRANCH   1  17
BRANCH   1  23
HETATM   23  C   UNL     1      25.516  47.903  50.103  1.00  0.00    -0.015 A 
HETATM   24  C   UNL     1      24.576  48.677  49.347  1.00  0.00    -0.018 A 
HETATM   25  C   UNL     1      25.077  49.625  48.416  1.00  0.00    -0.025 A 
HETATM   26  C   UNL     1      23.164  48.574  49.453  1.00  0.00     0.013 A 
HETATM   27  C   UNL     1      24.199  50.398  47.639  1.00  0.00     0.012 A 
HETATM   28  C   UNL     1      26.457  49.808  48.264  1.00  0.00     0.012 A 
HETATM   29  C   UNL     1      22.819  50.261  47.762  1.00  0.00     0.001 A 
HETATM   30  C   UNL     1      22.302  49.353  48.672  1.00  0.00     0.001 A 
HETATM   31  C   UNL     1      27.364  49.072  49.016  1.00  0.00     0.002 A 
HETATM   32  C   UNL     1      26.899  48.130  49.926  1.00  0.00     0.010 A 
ENDBRANCH   1  23
TORSDOF 7
ENDMDL
MODEL 2
REMARK VINA RESULT:      -8.9      3.408      8.842
REMARK  7 active torsions:
REMARK  status: ('A' for Active; 'I' for Inactive)
REMARK    1  A    between atoms: O_2  and  C_3 
REMARK    2  A    between atoms: C_4  and  O_5 
REMARK    3  A    between atoms: C_7  and  C_8 
REMARK       I    between atoms: C_8  and  N_9 
REMARK    4  A    between atoms: N_9  and  C_10 
REMARK    5  A    between atoms: C_10  and  C_11 
REMARK    6  A    between atoms: C_11  and  N_12 
REMARK    7  A    between atoms: C_11  and  C_18 
ROOT
HETATM    1  C   UNL     1      25.993  45.985  50.564  1.00  0.00     0.239 C 
ENDROOT
BRANCH   1   2
HETATM    2  C   UNL     1      25.970  47.449  50.014  1.00  0.00     0.161 C 
BRANCH   2   3
HETATM    3  N   UNL     1      24.656  47.933  49.610  1.00  0.00    -0.354 N 
HETATM    4  C   UNL     1      24.467  49.038  48.817  1.00  0.00     0.254 C 
HETATM    5  O   UNL     1      25.422  49.602  48.292  1.00  0.00    -0.268 OA
HETATM    6  H   UNL     1      23.828  47.494  50.010  1.00  0.00     0.162 HD
BRANCH   4   7
HETATM    7  C   UNL     1      23.071  49.511  48.572  1.00  0.00     0.068 A 
HETATM    8  C   UNL     1      22.071  48.752  47.928  1.00  0.00     0.117 A 
HETATM    9  C   UNL     1      20.817  49.343  47.650  1.00  0.00     0.102 A 
HETATM   10  C   UNL     1      20.551  50.642  48.103  1.00  0.00     0.040 A 
HETATM   11  C   UNL     1      21.524  51.372  48.783  1.00  0.00     0.004 A 
HETATM   12  C   UNL     1      22.781  50.816  49.001  1.00  0.00     0.020 A 
BRANCH   8  13
HETATM   13  O   UNL     1      22.409  47.479  47.517  1.00  0.00    -0.352 OA
HETATM   14  C   UNL     1      21.816  46.422  48.279  1.00  0.00     0.210 C 
ENDBRANCH   8  13
BRANCH   9  15
HETATM   15  O   UNL     1      19.927  48.607  46.912  1.00  0.00    -0.353 OA
HETATM   16  C   UNL     1      18.647  48.343  47.475  1.00  0.00     0.210 C 
ENDBRANCH   9  15
ENDBRANCH   4   7
ENDBRANCH   2   3
ENDBRANCH   1   2
BRANCH   1  17
HETATM   17  N   UNL     1      24.681  45.245  50.239  1.00  0.00    -0.061 N 
HETATM   18  H   UNL     1      23.979  45.981  50.092  1.00  0.00     0.280 HD
HETATM   19  C   UNL     1      24.208  44.277  51.301  1.00  0.00     0.236 C 
HETATM   20  C   UNL     1      24.779  42.951  50.853  1.00  0.00     0.029 C 
HETATM   21  C   UNL     1      24.537  42.978  49.360  1.00  0.00     0.029 C 
HETATM   22  C   UNL     1      24.741  44.429  48.948  1.00  0.00     0.236 C 
ENDBRANCH   1  17
BRANCH   1  23
HETATM   23  C   UNL     1      26.349  46.010  52.053  1.00  0.00    -0.015 A 
HETATM   24  C   UNL     1      27.287  45.086  52.620  1.00  0.00    -0.018 A 
HETATM   25  C   UNL     1      27.551  45.164  54.014  1.00  0.00    -0.025 A 
HETATM   26  C   UNL     1      27.985  44.085  51.894  1.00  0.00     0.013 A 
HETATM   27  C   UNL     1      28.450  44.271  54.621  1.00  0.00     0.012 A 
HETATM   28  C   UNL     1      26.924  46.137  54.801  1.00  0.00     0.012 A 
HETATM   29  C   UNL     1      29.107  43.294  53.879  1.00  0.00     0.001 A 
HETATM   30  C   UNL     1      28.877  43.204  52.515  1.00  0.00     0.001 A 
HETATM   31  C   UNL     1      26.035  47.045  54.242  1.00  0.00     0.002 A 
HETATM   32  C   UNL     1      25.750  46.984  52.883  1.00  0.00     0.010 A 
ENDBRANCH   1  23
TORSDOF 7
ENDMDL
MODEL 3
REMARK VINA RESULT:      -8.6      3.057      8.429
REMARK  7 active torsions:
REMARK  status: ('A' for Active; 'I' for Inactive)
REMARK    1  A    between atoms: O_2  and  C_3 
REMARK    2  A    between atoms: C_4  and  O_5 
REMARK    3  A    between atoms: C_7  and  C_8 
REMARK       I    between atoms: C_8  and  N_9 
REMARK    4  A    between atoms: N_9  and  C_10 
REMARK    5  A    between atoms: C_10  and  C_11 
REMARK    6  A    between atoms: C_11  and  N_12 
REMARK    7  A    between atoms: C_11  and  C_18 
ROOT
HETATM    1  C   UNL     1      27.183  44.222  50.683  1.00  0.00     0.239 C 
ENDROOT
BRANCH   1   2
HETATM    2  C   UNL     1      27.092  45.588  49.926  1.00  0.00     0.161 C 
BRANCH   2   3
HETATM    3  N   UNL     1      25.778  45.898  49.375  1.00  0.00    -0.354 N 
HETATM    4  C   UNL     1      24.978  46.908  49.850  1.00  0.00     0.254 C 
HETATM    5  O   UNL     1      25.399  47.697  50.690  1.00  0.00    -0.268 OA
HETATM    6  H   UNL     1      25.385  45.279  48.668  1.00  0.00     0.162 HD
BRANCH   4   7
HETATM    7  C   UNL     1      23.600  47.051  49.288  1.00  0.00     0.068 A 
HETATM    8  C   UNL     1      22.786  45.972  48.884  1.00  0.00     0.117 A 
HETATM    9  C   UNL     1      21.543  46.232  48.262  1.00  0.00     0.102 A 
HETATM   10  C   UNL     1      21.093  47.553  48.143  1.00  0.00     0.040 A 
HETATM   11  C   UNL     1      21.878  48.615  48.589  1.00  0.00     0.004 A 
HETATM   12  C   UNL     1      23.131  48.366  49.143  1.00  0.00     0.020 A 
BRANCH   8  13
HETATM   13  O   UNL     1      23.297  44.701  49.039  1.00  0.00    -0.352 OA
HETATM   14  C   UNL     1      22.622  43.893  50.008  1.00  0.00     0.210 C 
ENDBRANCH   8  13
BRANCH   9  15
HETATM   15  O   UNL     1      20.850  45.154  47.775  1.00  0.00    -0.353 OA
HETATM   16  C   UNL     1      19.440  45.120  47.972  1.00  0.00     0.210 C 
ENDBRANCH   9  15
ENDBRANCH   4   7
ENDBRANCH   2   3
ENDBRANCH   1   2
BRANCH   1  17
HETATM   17  N   UNL     1      26.038  43.278  50.272  1.00  0.00    -0.061 N 
HETATM   18  H   UNL     1      25.221  43.884  50.124  1.00  0.00     0.280 HD
HETATM   19  C   UNL     1      25.708  42.193  51.274  1.00  0.00     0.236 C 
HETATM   20  C   UNL     1      26.523  41.012  50.800  1.00  0.00     0.029 C 
HETATM   21  C   UNL     1      26.334  41.064  49.300  1.00  0.00     0.029 C 
HETATM   22  C   UNL     1      26.289  42.545  48.954  1.00  0.00     0.236 C 
ENDBRANCH   1  17
BRANCH   1  23
HETATM   23  C   UNL     1      27.274  44.485  52.189  1.00  0.00    -0.015 A 
HETATM   24  C   UNL     1      28.366  43.991  52.976  1.00  0.00    -0.018 A 
HETATM   25  C   UNL     1      28.368  44.263  54.370  1.00  0.00    -0.025 A 
HETATM   26  C   UNL     1      29.462  43.243  52.471  1.00  0.00     0.013 A 
HETATM   27  C   UNL     1      29.407  43.789  55.189  1.00  0.00     0.012 A 
HETATM   28  C   UNL     1      27.337  45.014  54.948  1.00  0.00     0.012 A 
HETATM   29  C   UNL     1      30.459  43.048  54.659  1.00  0.00     0.001 A 
HETATM   30  C   UNL     1      30.489  42.780  53.300  1.00  0.00     0.001 A 
HETATM   31  C   UNL     1      26.294  45.510  54.176  1.00  0.00     0.002 A 
HETATM   32  C   UNL     1      26.262  45.249  52.813  1.00  0.00     0.010 A 
ENDBRANCH   1  23
TORSDOF 7
ENDMDL
MODEL 4
REMARK VINA RESULT:      -8.6      3.452      4.821
REMARK  7 active torsions:
REMARK  status: ('A' for Active; 'I' for Inactive)
REMARK    1  A    between atoms: O_2  and  C_3 
REMARK    2  A    between atoms: C_4  and  O_5 
REMARK    3  A    between atoms: C_7  and  C_8 
REMARK       I    between atoms: C_8  and  N_9 
REMARK    4  A    between atoms: N_9  and  C_10 
REMARK    5  A    between atoms: C_10  and  C_11 
REMARK    6  A    between atoms: C_11  and  N_12 
REMARK    7  A    between atoms: C_11  and  C_18 
ROOT
HETATM    1  C   UNL     1      26.040  46.276  50.484  1.00  0.00     0.239 C 
ENDROOT
BRANCH   1   2
HETATM    2  C   UNL     1      25.441  45.208  49.511  1.00  0.00     0.161 C 
BRANCH   2   3
HETATM    3  N   UNL     1      26.301  44.057  49.259  1.00  0.00    -0.354 N 
HETATM    4  C   UNL     1      25.863  42.758  49.324  1.00  0.00     0.254 C 
HETATM    5  O   UNL     1      24.671  42.505  49.471  1.00  0.00    -0.268 OA
HETATM    6  H   UNL     1      27.298  44.211  49.123  1.00  0.00     0.162 HD
BRANCH   4   7
HETATM    7  C   UNL     1      26.863  41.658  49.169  1.00  0.00     0.068 A 
HETATM    8  C   UNL     1      27.421  40.929  50.240  1.00  0.00     0.117 A 
HETATM    9  C   UNL     1      28.443  39.985  49.984  1.00  0.00     0.102 A 
HETATM   10  C   UNL     1      28.821  39.720  48.662  1.00  0.00     0.040 A 
HETATM   11  C   UNL     1      28.232  40.406  47.602  1.00  0.00     0.004 A 
HETATM   12  C   UNL     1      27.272  41.381  47.855  1.00  0.00     0.020 A 
BRANCH   8  13
HETATM   13  O   UNL     1      26.993  41.245  51.513  1.00  0.00    -0.352 OA
HETATM   14  C   UNL     1      27.769  42.246  52.179  1.00  0.00     0.210 C 
ENDBRANCH   8  13
BRANCH   9  15
HETATM   15  O   UNL     1      29.038  39.397  51.070  1.00  0.00    -0.353 OA
HETATM   16  C   UNL     1      29.762  38.189  50.863  1.00  0.00     0.210 C 
ENDBRANCH   9  15
ENDBRANCH   4   7
ENDBRANCH   2   3
ENDBRANCH   1   2
BRANCH   1  17
HETATM   17  N   UNL     1      25.242  46.343  51.800  1.00  0.00    -0.061 N 
HETATM   18  H   UNL     1      24.342  46.777  51.554  1.00  0.00     0.280 HD
HETATM   19  C   UNL     1      25.906  47.119  52.917  1.00  0.00     0.236 C 
HETATM   20  C   UNL     1      26.637  46.054  53.702  1.00  0.00     0.029 C 
HETATM   21  C   UNL     1      25.629  44.927  53.743  1.00  0.00     0.029 C 
HETATM   22  C   UNL     1      24.923  44.973  52.396  1.00  0.00     0.236 C 
ENDBRANCH   1  17
BRANCH   1  23
HETATM   23  C   UNL     1      26.161  47.615  49.751  1.00  0.00    -0.015 A 
HETATM   24  C   UNL     1      25.008  48.332  49.293  1.00  0.00    -0.018 A 
HETATM   25  C   UNL     1      25.206  49.560  48.607  1.00  0.00    -0.025 A 
HETATM   26  C   UNL     1      23.663  47.912  49.473  1.00  0.00     0.013 A 
HETATM   27  C   UNL     1      24.109  50.293  48.124  1.00  0.00     0.012 A 
HETATM   28  C   UNL     1      26.498  50.060  48.407  1.00  0.00     0.012 A 
HETATM   29  C   UNL     1      22.805  49.844  48.309  1.00  0.00     0.001 A 
HETATM   30  C   UNL     1      22.582  48.656  48.986  1.00  0.00     0.001 A 
HETATM   31  C   UNL     1      27.611  49.372  48.874  1.00  0.00     0.002 A 
HETATM   32  C   UNL     1      27.446  48.164  49.538  1.00  0.00     0.010 A 
ENDBRANCH   1  23
TORSDOF 7
ENDMDL
MODEL 5
REMARK VINA RESULT:      -8.5      2.966      8.495
REMARK  7 active torsions:
REMARK  status: ('A' for Active; 'I' for Inactive)
REMARK    1  A    between atoms: O_2  and  C_3 
REMARK    2  A    between atoms: C_4  and  O_5 
REMARK    3  A    between atoms: C_7  and  C_8 
REMARK       I    between atoms: C_8  and  N_9 
REMARK    4  A    between atoms: N_9  and  C_10 
REMARK    5  A    between atoms: C_10  and  C_11 
REMARK    6  A    between atoms: C_11  and  N_12 
REMARK    7  A    between atoms: C_11  and  C_18 
ROOT
HETATM    1  C   UNL     1      27.210  44.307  50.672  1.00  0.00     0.239 C 
ENDROOT
BRANCH   1   2
HETATM    2  C   UNL     1      27.080  45.681  49.936  1.00  0.00     0.161 C 
BRANCH   2   3
HETATM    3  N   UNL     1      25.757  45.962  49.391  1.00  0.00    -0.354 N 
HETATM    4  C   UNL     1      24.948  46.972  49.852  1.00  0.00     0.254 C 
HETATM    5  O   UNL     1      25.366  47.783  50.672  1.00  0.00    -0.268 OA
HETATM    6  H   UNL     1      25.365  45.323  48.701  1.00  0.00     0.162 HD
BRANCH   4   7
HETATM    7  C   UNL     1      23.564  47.085  49.300  1.00  0.00     0.068 A 
HETATM    8  C   UNL     1      22.873  48.302  49.122  1.00  0.00     0.117 A 
HETATM    9  C   UNL     1      21.524  48.282  48.697  1.00  0.00     0.102 A 
HETATM   10  C   UNL     1      20.923  47.061  48.367  1.00  0.00     0.040 A 
HETATM   11  C   UNL     1      21.625  45.864  48.497  1.00  0.00     0.004 A 
HETATM   12  C   UNL     1      22.931  45.875  48.976  1.00  0.00     0.020 A 
BRANCH   8  13
HETATM   13  O   UNL     1      23.535  49.463  49.464  1.00  0.00    -0.352 OA
HETATM   14  C   UNL     1      24.141  50.157  48.369  1.00  0.00     0.210 C 
ENDBRANCH   8  13
BRANCH   9  15
HETATM   15  O   UNL     1      20.861  49.481  48.662  1.00  0.00    -0.353 OA
HETATM   16  C   UNL     1      20.103  49.793  47.498  1.00  0.00     0.210 C 
ENDBRANCH   9  15
ENDBRANCH   4   7
ENDBRANCH   2   3
ENDBRANCH   1   2
BRANCH   1  17
HETATM   17  N   UNL     1      26.091  43.337  50.249  1.00  0.00    -0.061 N 
HETATM   18  H   UNL     1      25.282  43.931  50.024  1.00  0.00     0.280 HD
HETATM   19  C   UNL     1      25.707  42.305  51.287  1.00  0.00     0.236 C 
HETATM   20  C   UNL     1      26.548  41.104  50.922  1.00  0.00     0.029 C 
HETATM   21  C   UNL     1      26.443  41.077  49.413  1.00  0.00     0.029 C 
HETATM   22  C   UNL     1      26.415  42.538  48.988  1.00  0.00     0.236 C 
ENDBRANCH   1  17
BRANCH   1  23
HETATM   23  C   UNL     1      27.297  44.549  52.182  1.00  0.00    -0.015 A 
HETATM   24  C   UNL     1      28.369  44.016  52.971  1.00  0.00    -0.018 A 
HETATM   25  C   UNL     1      28.369  44.272  54.368  1.00  0.00    -0.025 A 
HETATM   26  C   UNL     1      29.448  43.245  52.465  1.00  0.00     0.013 A 
HETATM   27  C   UNL     1      29.387  43.760  55.189  1.00  0.00     0.012 A 
HETATM   28  C   UNL     1      27.354  45.044  54.948  1.00  0.00     0.012 A 
HETATM   29  C   UNL     1      30.423  42.996  54.658  1.00  0.00     0.001 A 
HETATM   30  C   UNL     1      30.455  42.743  53.296  1.00  0.00     0.001 A 
HETATM   31  C   UNL     1      26.331  45.578  54.174  1.00  0.00     0.002 A 
HETATM   32  C   UNL     1      26.302  45.334  52.807  1.00  0.00     0.010 A 
ENDBRANCH   1  23
TORSDOF 7
ENDMDL
MODEL 6
REMARK VINA RESULT:      -8.4      2.719      4.702
REMARK  7 active torsions:
REMARK  status: ('A' for Active; 'I' for Inactive)
REMARK    1  A    between atoms: O_2  and  C_3 
REMARK    2  A    between atoms: C_4  and  O_5 
REMARK    3  A    between atoms: C_7  and  C_8 
REMARK       I    between atoms: C_8  and  N_9 
REMARK    4  A    between atoms: N_9  and  C_10 
REMARK    5  A    between atoms: C_10  and  C_11 
REMARK    6  A    between atoms: C_11  and  N_12 
REMARK    7  A    between atoms: C_11  and  C_18 
ROOT
HETATM    1  C   UNL     1      21.936  47.050  49.026  1.00  0.00     0.239 C 
ENDROOT
BRANCH   1   2
HETATM    2  C   UNL     1      23.411  46.536  48.941  1.00  0.00     0.161 C 
BRANCH   2   3
HETATM    3  N   UNL     1      24.009  46.173  50.220  1.00  0.00    -0.354 N 
HETATM    4  C   UNL     1      24.994  46.909  50.830  1.00  0.00     0.254 C 
HETATM    5  O   UNL     1      25.329  48.001  50.381  1.00  0.00    -0.268 OA
HETATM    6  H   UNL     1      23.759  45.280  50.642  1.00  0.00     0.162 HD
BRANCH   4   7
HETATM    7  C   UNL     1      25.618  46.372  52.078  1.00  0.00     0.068 A 
HETATM    8  C   UNL     1      26.078  45.048  52.235  1.00  0.00     0.117 A 
HETATM    9  C   UNL     1      26.548  44.618  53.498  1.00  0.00     0.102 A 
HETATM   10  C   UNL     1      26.641  45.538  54.549  1.00  0.00     0.040 A 
HETATM   11  C   UNL     1      26.232  46.859  54.377  1.00  0.00     0.004 A 
HETATM   12  C   UNL     1      25.708  47.269  53.154  1.00  0.00     0.020 A 
BRANCH   8  13
HETATM   13  O   UNL     1      25.959  44.203  51.151  1.00  0.00    -0.352 OA
HETATM   14  C   UNL     1      27.121  44.120  50.320  1.00  0.00     0.210 C 
ENDBRANCH   8  13
BRANCH   9  15
HETATM   15  O   UNL     1      26.865  43.291  53.629  1.00  0.00    -0.353 OA
HETATM   16  C   UNL     1      28.206  42.952  53.965  1.00  0.00     0.210 C 
ENDBRANCH   9  15
ENDBRANCH   4   7
ENDBRANCH   2   3
ENDBRANCH   1   2
BRANCH   1  17
HETATM   17  N   UNL     1      21.009  46.243  48.098  1.00  0.00    -0.061 N 
HETATM   18  H   UNL     1      20.119  46.155  48.606  1.00  0.00     0.280 HD
HETATM   19  C   UNL     1      21.523  44.875  47.706  1.00  0.00     0.236 C 
HETATM   20  C   UNL     1      22.219  45.122  46.387  1.00  0.00     0.029 C 
HETATM   21  C   UNL     1      21.264  46.059  45.682  1.00  0.00     0.029 C 
HETATM   22  C   UNL     1      20.694  46.948  46.779  1.00  0.00     0.236 C 
ENDBRANCH   1  17
BRANCH   1  23
HETATM   23  C   UNL     1      21.913  48.561  48.781  1.00  0.00    -0.015 A 
HETATM   24  C   UNL     1      20.817  49.379  49.212  1.00  0.00    -0.018 A 
HETATM   25  C   UNL     1      20.863  50.771  48.932  1.00  0.00    -0.025 A 
HETATM   26  C   UNL     1      19.673  48.907  49.907  1.00  0.00     0.013 A 
HETATM   27  C   UNL     1      19.808  51.613  49.319  1.00  0.00     0.012 A 
HETATM   28  C   UNL     1      21.966  51.325  48.270  1.00  0.00     0.012 A 
HETATM   29  C   UNL     1      18.696  51.112  49.989  1.00  0.00     0.001 A 
HETATM   30  C   UNL     1      18.631  49.760  50.287  1.00  0.00     0.001 A 
HETATM   31  C   UNL     1      23.036  50.532  47.876  1.00  0.00     0.002 A 
HETATM   32  C   UNL     1      23.011  49.166  48.128  1.00  0.00     0.010 A 
ENDBRANCH   1  23
TORSDOF 7
ENDMDL
MODEL 7
REMARK VINA RESULT:      -8.1      3.175      5.383
REMARK  7 active torsions:
REMARK  status: ('A' for Active; 'I' for Inactive)
REMARK    1  A    between atoms: O_2  and  C_3 
REMARK    2  A    between atoms: C_4  and  O_5 
REMARK    3  A    between atoms: C_7  and  C_8 
REMARK       I    between atoms: C_8  and  N_9 
REMARK    4  A    between atoms: N_9  and  C_10 
REMARK    5  A    between atoms: C_10  and  C_11 
REMARK    6  A    between atoms: C_11  and  N_12 
REMARK    7  A    between atoms: C_11  and  C_18 
ROOT
HETATM    1  C   UNL     1      21.098  47.037  48.192  1.00  0.00     0.239 C 
ENDROOT
BRANCH   1   2
HETATM    2  C   UNL     1      22.453  46.256  48.200  1.00  0.00     0.161 C 
BRANCH   2   3
HETATM    3  N   UNL     1      23.160  46.266  49.475  1.00  0.00    -0.354 N 
HETATM    4  C   UNL     1      24.231  45.453  49.753  1.00  0.00     0.254 C 
HETATM    5  O   UNL     1      24.735  44.760  48.875  1.00  0.00    -0.268 OA
HETATM    6  H   UNL     1      22.788  46.831  50.237  1.00  0.00     0.162 HD
BRANCH   4   7
HETATM    7  C   UNL     1      24.796  45.464  51.137  1.00  0.00     0.068 A 
HETATM    8  C   UNL     1      25.329  46.604  51.774  1.00  0.00     0.117 A 
HETATM    9  C   UNL     1      25.939  46.474  53.043  1.00  0.00     0.102 A 
HETATM   10  C   UNL     1      25.920  45.232  53.692  1.00  0.00     0.040 A 
HETATM   11  C   UNL     1      25.349  44.118  53.081  1.00  0.00     0.004 A 
HETATM   12  C   UNL     1      24.805  44.229  51.805  1.00  0.00     0.020 A 
BRANCH   8  13
HETATM   13  O   UNL     1      25.304  47.791  51.071  1.00  0.00    -0.352 OA
HETATM   14  C   UNL     1      26.393  47.977  50.162  1.00  0.00     0.210 C 
ENDBRANCH   8  13
BRANCH   9  15
HETATM   15  O   UNL     1      26.551  47.585  53.561  1.00  0.00    -0.353 OA
HETATM   16  C   UNL     1      26.867  47.590  54.949  1.00  0.00     0.210 C 
ENDBRANCH   9  15
ENDBRANCH   4   7
ENDBRANCH   2   3
ENDBRANCH   1   2
BRANCH   1  17
HETATM   17  N   UNL     1      20.234  46.644  46.979  1.00  0.00    -0.061 N 
HETATM   18  H   UNL     1      20.069  47.518  46.463  1.00  0.00     0.280 HD
HETATM   19  C   UNL     1      18.915  45.982  47.317  1.00  0.00     0.236 C 
HETATM   20  C   UNL     1      19.234  44.506  47.256  1.00  0.00     0.029 C 
HETATM   21  C   UNL     1      20.102  44.407  46.022  1.00  0.00     0.029 C 
HETATM   22  C   UNL     1      20.929  45.685  46.013  1.00  0.00     0.236 C 
ENDBRANCH   1  17
BRANCH   1  23
HETATM   23  C   UNL     1      21.379  48.537  48.306  1.00  0.00    -0.015 A 
HETATM   24  C   UNL     1      20.428  49.442  48.883  1.00  0.00    -0.018 A 
HETATM   25  C   UNL     1      20.757  50.823  48.937  1.00  0.00    -0.025 A 
HETATM   26  C   UNL     1      19.166  49.067  49.415  1.00  0.00     0.013 A 
HETATM   27  C   UNL     1      19.854  51.752  49.478  1.00  0.00     0.012 A 
HETATM   28  C   UNL     1      21.991  51.276  48.456  1.00  0.00     0.012 A 
HETATM   29  C   UNL     1      18.620  51.348  49.980  1.00  0.00     0.001 A 
HETATM   30  C   UNL     1      18.278  50.005  49.952  1.00  0.00     0.001 A 
HETATM   31  C   UNL     1      22.919  50.393  47.919  1.00  0.00     0.002 A 
HETATM   32  C   UNL     1      22.617  49.039  47.845  1.00  0.00     0.010 A 
ENDBRANCH   1  23
TORSDOF 7
ENDMDL
MODEL 8
REMARK VINA RESULT:      -8.1      4.601      7.209
REMARK  7 active torsions:
REMARK  status: ('A' for Active; 'I' for Inactive)
REMARK    1  A    between atoms: O_2  and  C_3 
REMARK    2  A    between atoms: C_4  and  O_5 
REMARK    3  A    between atoms: C_7  and  C_8 
REMARK       I    between atoms: C_8  and  N_9 
REMARK    4  A    between atoms: N_9  and  C_10 
REMARK    5  A    between atoms: C_10  and  C_11 
REMARK    6  A    between atoms: C_11  and  N_12 
REMARK    7  A    between atoms: C_11  and  C_18 
ROOT
HETATM    1  C   UNL     1      28.128  40.793  50.195  1.00  0.00     0.239 C 
ENDROOT
BRANCH   1   2
HETATM    2  C   UNL     1      28.973  40.328  51.426  1.00  0.00     0.161 C 
BRANCH   2   3
HETATM    3  N   UNL     1      29.359  41.393  52.344  1.00  0.00    -0.354 N 
HETATM    4  C   UNL     1      28.614  41.755  53.439  1.00  0.00     0.254 C 
HETATM    5  O   UNL     1      27.635  41.095  53.776  1.00  0.00    -0.268 OA
HETATM    6  H   UNL     1      30.169  41.967  52.116  1.00  0.00     0.162 HD
BRANCH   4   7
HETATM    7  C   UNL     1      29.045  42.944  54.236  1.00  0.00     0.068 A 
HETATM    8  C   UNL     1      28.412  44.203  54.198  1.00  0.00     0.117 A 
HETATM    9  C   UNL     1      28.974  45.289  54.909  1.00  0.00     0.102 A 
HETATM   10  C   UNL     1      30.098  45.074  55.718  1.00  0.00     0.040 A 
HETATM   11  C   UNL     1      30.693  43.816  55.792  1.00  0.00     0.004 A 
HETATM   12  C   UNL     1      30.180  42.762  55.043  1.00  0.00     0.020 A 
BRANCH   8  13
HETATM   13  O   UNL     1      27.307  44.333  53.382  1.00  0.00    -0.352 OA
HETATM   14  C   UNL     1      26.047  44.196  54.047  1.00  0.00     0.210 C 
ENDBRANCH   8  13
BRANCH   9  15
HETATM   15  O   UNL     1      28.393  46.518  54.738  1.00  0.00    -0.353 OA
HETATM   16  C   UNL     1      27.637  47.057  55.817  1.00  0.00     0.210 C 
ENDBRANCH   9  15
ENDBRANCH   4   7
ENDBRANCH   2   3
ENDBRANCH   1   2
BRANCH   1  17
HETATM   17  N   UNL     1      26.847  41.524  50.640  1.00  0.00    -0.061 N 
HETATM   18  H   UNL     1      26.841  41.468  51.667  1.00  0.00     0.280 HD
HETATM   19  C   UNL     1      25.558  40.963  50.080  1.00  0.00     0.236 C 
HETATM   20  C   UNL     1      25.314  41.802  48.846  1.00  0.00     0.029 C 
HETATM   21  C   UNL     1      25.662  43.195  49.322  1.00  0.00     0.029 C 
HETATM   22  C   UNL     1      26.831  43.009  50.279  1.00  0.00     0.236 C 
ENDBRANCH   1  17
BRANCH   1  23
HETATM   23  C   UNL     1      27.882  39.598  49.271  1.00  0.00    -0.015 A 
HETATM   24  C   UNL     1      27.946  39.722  47.844  1.00  0.00    -0.018 A 
HETATM   25  C   UNL     1      27.689  38.569  47.054  1.00  0.00    -0.025 A 
HETATM   26  C   UNL     1      28.251  40.918  47.143  1.00  0.00     0.013 A 
HETATM   27  C   UNL     1      27.724  38.641  45.652  1.00  0.00     0.012 A 
HETATM   28  C   UNL     1      27.403  37.342  47.664  1.00  0.00     0.012 A 
HETATM   29  C   UNL     1      28.016  39.835  45.000  1.00  0.00     0.001 A 
HETATM   30  C   UNL     1      28.283  40.972  45.745  1.00  0.00     0.001 A 
HETATM   31  C   UNL     1      27.365  37.222  49.048  1.00  0.00     0.002 A 
HETATM   32  C   UNL     1      27.602  38.336  49.842  1.00  0.00     0.010 A 
ENDBRANCH   1  23
TORSDOF 7
ENDMDL
MODEL 9
REMARK VINA RESULT:      -8.0     11.774     14.130
REMARK  7 active torsions:
REMARK  status: ('A' for Active; 'I' for Inactive)
REMARK    1  A    between atoms: O_2  and  C_3 
REMARK    2  A    between atoms: C_4  and  O_5 
REMARK    3  A    between atoms: C_7  and  C_8 
REMARK       I    between atoms: C_8  and  N_9 
REMARK    4  A    between atoms: N_9  and  C_10 
REMARK    5  A    between atoms: C_10  and  C_11 
REMARK    6  A    between atoms: C_11  and  N_12 
REMARK    7  A    between atoms: C_11  and  C_18 
ROOT
HETATM    1  C   UNL     1      33.256  51.184  40.630  1.00  0.00     0.239 C 
ENDROOT
BRANCH   1   2
HETATM    2  C   UNL     1      33.140  49.651  40.917  1.00  0.00     0.161 C 
BRANCH   2   3
HETATM    3  N   UNL     1      31.844  49.064  40.598  1.00  0.00    -0.354 N 
HETATM    4  C   UNL     1      31.633  47.712  40.487  1.00  0.00     0.254 C 
HETATM    5  O   UNL     1      32.515  46.914  40.789  1.00  0.00    -0.268 OA
HETATM    6  H   UNL     1      31.074  49.682  40.348  1.00  0.00     0.162 HD
BRANCH   4   7
HETATM    7  C   UNL     1      30.292  47.233  40.034  1.00  0.00     0.068 A 
HETATM    8  C   UNL     1      29.088  47.441  40.740  1.00  0.00     0.117 A 
HETATM    9  C   UNL     1      27.893  46.846  40.273  1.00  0.00     0.102 A 
HETATM   10  C   UNL     1      27.903  46.138  39.064  1.00  0.00     0.040 A 
HETATM   11  C   UNL     1      29.084  45.976  38.343  1.00  0.00     0.004 A 
HETATM   12  C   UNL     1      30.274  46.505  38.833  1.00  0.00     0.020 A 
BRANCH   8  13
HETATM   13  O   UNL     1      29.161  48.154  41.918  1.00  0.00    -0.352 OA
HETATM   14  C   UNL     1      28.675  49.498  41.842  1.00  0.00     0.210 C 
ENDBRANCH   8  13
BRANCH   9  15
HETATM   15  O   UNL     1      26.780  46.974  41.062  1.00  0.00    -0.353 OA
HETATM   16  C   UNL     1      25.681  47.723  40.553  1.00  0.00     0.210 C 
ENDBRANCH   9  15
ENDBRANCH   4   7
ENDBRANCH   2   3
ENDBRANCH   1   2
BRANCH   1  17
HETATM   17  N   UNL     1      34.449  51.805  41.381  1.00  0.00    -0.061 N 
HETATM   18  H   UNL     1      34.067  52.616  41.884  1.00  0.00     0.280 HD
HETATM   19  C   UNL     1      35.608  52.232  40.506  1.00  0.00     0.236 C 
HETATM   20  C   UNL     1      36.531  51.036  40.531  1.00  0.00     0.029 C 
HETATM   21  C   UNL     1      36.490  50.619  41.984  1.00  0.00     0.029 C 
HETATM   22  C   UNL     1      35.060  50.881  42.434  1.00  0.00     0.236 C 
ENDBRANCH   1  17
BRANCH   1  23
HETATM   23  C   UNL     1      31.911  51.856  40.920  1.00  0.00    -0.015 A 
HETATM   24  C   UNL     1      30.939  52.075  39.889  1.00  0.00    -0.018 A 
HETATM   25  C   UNL     1      29.722  52.720  40.235  1.00  0.00    -0.025 A 
HETATM   26  C   UNL     1      31.093  51.694  38.530  1.00  0.00     0.013 A 
HETATM   27  C   UNL     1      28.744  52.972  39.260  1.00  0.00     0.012 A 
HETATM   28  C   UNL     1      29.478  53.109  41.558  1.00  0.00     0.012 A 
HETATM   29  C   UNL     1      28.936  52.595  37.934  1.00  0.00     0.001 A 
HETATM   30  C   UNL     1      30.108  51.952  37.570  1.00  0.00     0.001 A 
HETATM   31  C   UNL     1      30.413  52.873  42.558  1.00  0.00     0.002 A 
HETATM   32  C   UNL     1      31.616  52.254  42.243  1.00  0.00     0.010 A 
ENDBRANCH   1  23
TORSDOF 7
ENDMDL
MODEL 10
REMARK VINA RESULT:      -8.0      4.293      7.753
REMARK  7 active torsions:
REMARK  status: ('A' for Active; 'I' for Inactive)
REMARK    1  A    between atoms: O_2  and  C_3 
REMARK    2  A    between atoms: C_4  and  O_5 
REMARK    3  A    between atoms: C_7  and  C_8 
REMARK       I    between atoms: C_8  and  N_9 
REMARK    4  A    between atoms: N_9  and  C_10 
REMARK    5  A    between atoms: C_10  and  C_11 
REMARK    6  A    between atoms: C_11  and  N_12 
REMARK    7  A    between atoms: C_11  and  C_18 
ROOT
HETATM    1  C   UNL     1      27.339  43.914  52.592  1.00  0.00     0.239 C 
ENDROOT
BRANCH   1   2
HETATM    2  C   UNL     1      28.599  43.683  51.696  1.00  0.00     0.161 C 
BRANCH   2   3
HETATM    3  N   UNL     1      28.683  42.363  51.084  1.00  0.00    -0.354 N 
HETATM    4  C   UNL     1      28.406  41.198  51.758  1.00  0.00     0.254 C 
HETATM    5  O   UNL     1      27.937  41.228  52.891  1.00  0.00    -0.268 OA
HETATM    6  H   UNL     1      29.059  42.282  50.141  1.00  0.00     0.162 HD
BRANCH   4   7
HETATM    7  C   UNL     1      28.647  39.897  51.064  1.00  0.00     0.068 A 
HETATM    8  C   UNL     1      28.023  39.506  49.860  1.00  0.00     0.117 A 
HETATM    9  C   UNL     1      28.242  38.204  49.352  1.00  0.00     0.102 A 
HETATM   10  C   UNL     1      29.149  37.355  49.999  1.00  0.00     0.040 A 
HETATM   11  C   UNL     1      29.802  37.763  51.161  1.00  0.00     0.004 A 
HETATM   12  C   UNL     1      29.540  39.019  51.699  1.00  0.00     0.020 A 
BRANCH   8  13
HETATM   13  O   UNL     1      27.148  40.400  49.281  1.00  0.00    -0.352 OA
HETATM   14  C   UNL     1      27.608  40.992  48.062  1.00  0.00     0.210 C 
ENDBRANCH   8  13
BRANCH   9  15
HETATM   15  O   UNL     1      27.516  37.832  48.251  1.00  0.00    -0.353 OA
HETATM   16  C   UNL     1      26.483  36.868  48.425  1.00  0.00     0.210 C 
ENDBRANCH   9  15
ENDBRANCH   4   7
ENDBRANCH   2   3
ENDBRANCH   1   2
BRANCH   1  17
HETATM   17  N   UNL     1      26.140  44.403  51.757  1.00  0.00    -0.061 N 
HETATM   18  H   UNL     1      25.881  45.315  52.156  1.00  0.00     0.280 HD
HETATM   19  C   UNL     1      24.943  43.478  51.748  1.00  0.00     0.236 C 
HETATM   20  C   UNL     1      25.151  42.641  50.507  1.00  0.00     0.029 C 
HETATM   21  C   UNL     1      25.618  43.664  49.496  1.00  0.00     0.029 C 
HETATM   22  C   UNL     1      26.474  44.644  50.286  1.00  0.00     0.236 C 
ENDBRANCH   1  17
BRANCH   1  23
HETATM   23  C   UNL     1      27.711  44.834  53.759  1.00  0.00    -0.015 A 
HETATM   24  C   UNL     1      28.827  44.553  54.615  1.00  0.00    -0.018 A 
HETATM   25  C   UNL     1      29.096  45.446  55.686  1.00  0.00    -0.025 A 
HETATM   26  C   UNL     1      29.699  43.441  54.478  1.00  0.00     0.013 A 
HETATM   27  C   UNL     1      30.168  45.208  56.562  1.00  0.00     0.012 A 
HETATM   28  C   UNL     1      28.300  46.581  55.880  1.00  0.00     0.012 A 
HETATM   29  C   UNL     1      30.995  44.100  56.404  1.00  0.00     0.001 A 
HETATM   30  C   UNL     1      30.763  43.219  55.359  1.00  0.00     0.001 A 
HETATM   31  C   UNL     1      27.234  46.861  55.034  1.00  0.00     0.002 A 
HETATM   32  C   UNL     1      26.943  45.998  53.985  1.00  0.00     0.010 A 
ENDBRANCH   1  23
TORSDOF 7
ENDMDL
