MODEL 1
REMARK VINA RESULT:      -8.7      0.000      0.000
REMARK  8 active torsions:
REMARK  status: ('A' for Active; 'I' for Inactive)
REMARK    1  A    between atoms: O_2  and  C_3 
REMARK    2  A    between atoms: C_3  and  C_4 
REMARK    3  A    between atoms: N_7  and  C_8 
REMARK    4  A    between atoms: N_10  and  C_12 
REMARK    5  A    between atoms: C_22  and  C_23 
REMARK       I    between atoms: C_23  and  N_24 
REMARK    6  A    between atoms: N_24  and  C_25 
REMARK    7  A    between atoms: C_25  and  C_26 
REMARK    8  A    between atoms: C_26  and  C_27 
ROOT
HETATM    1  C   UNL     1      31.447  48.242  41.499  1.00  0.00     0.134 C 
HETATM    2  C   UNL     1      31.029  48.161  40.039  1.00  0.00     0.263 C 
HETATM    3  N   UNL     1      29.585  47.677  40.097  1.00  0.00    -0.051 N 
HETATM    4  H   UNL     1      29.076  48.164  39.331  1.00  0.00     0.281 HD
HETATM    5  C   UNL     1      29.021  48.333  41.397  1.00  0.00     0.281 C 
HETATM    6  C   UNL     1      30.231  48.862  42.166  1.00  0.00     0.072 C 
ENDROOT
BRANCH   5   7
HETATM    7  C   UNL     1      28.071  49.475  40.997  1.00  0.00     0.248 C 
HETATM    8  N   UNL     1      27.854  49.663  39.656  1.00  0.00    -0.359 N 
HETATM    9  H   UNL     1      28.435  49.211  38.959  1.00  0.00     0.162 HD
HETATM   10  O   UNL     1      27.543  50.139  41.889  1.00  0.00    -0.271 OA
BRANCH   8  11
HETATM   11  C   UNL     1      26.955  50.717  39.196  1.00  0.00     0.127 C 
BRANCH  11  12
HETATM   12  C   UNL     1      27.690  51.815  38.426  1.00  0.00     0.060 C 
BRANCH  12  13
HETATM   13  C   UNL     1      28.861  52.348  39.182  1.00  0.00    -0.029 A 
HETATM   14  C   UNL     1      30.243  52.057  38.940  1.00  0.00    -0.002 A 
HETATM   15  C   UNL     1      30.989  52.760  39.885  1.00  0.00     0.042 A 
HETATM   16  C   UNL     1      30.930  51.256  38.004  1.00  0.00     0.014 A 
HETATM   17  C   UNL     1      32.386  52.702  39.945  1.00  0.00     0.030 A 
HETATM   18  N   UNL     1      30.100  53.459  40.667  1.00  0.00    -0.365 N 
HETATM   19  C   UNL     1      33.042  51.900  39.008  1.00  0.00     0.002 A 
HETATM   20  C   UNL     1      32.328  51.187  38.049  1.00  0.00     0.001 A 
HETATM   21  H   UNL     1      30.365  54.064  41.433  1.00  0.00     0.165 HD
HETATM   22  C   UNL     1      28.816  53.217  40.255  1.00  0.00     0.096 A 
ENDBRANCH  12  13
ENDBRANCH  11  12
ENDBRANCH   8  11
ENDBRANCH   5   7
BRANCH   3  23
HETATM   23  C   UNL     1      29.358  46.177  39.947  1.00  0.00     0.197 C 
HETATM   24  C   UNL     1      27.915  45.760  40.352  1.00  0.00     0.017 C 
HETATM   25  C   UNL     1      26.862  46.326  39.380  1.00  0.00     0.011 C 
HETATM   26  C   UNL     1      27.831  44.218  40.310  1.00  0.00     0.011 C 
HETATM   27  C   UNL     1      27.138  45.835  37.951  1.00  0.00    -0.013 C 
HETATM   28  C   UNL     1      28.545  46.281  37.524  1.00  0.00     0.011 C 
HETATM   29  C   UNL     1      27.063  44.298  37.925  1.00  0.00     0.009 C 
HETATM   30  C   UNL     1      29.602  45.703  38.486  1.00  0.00     0.017 C 
HETATM   31  C   UNL     1      29.506  44.163  38.451  1.00  0.00     0.011 C 
HETATM   32  C   UNL     1      28.105  43.706  38.887  1.00  0.00    -0.013 C 
ENDBRANCH   3  23
BRANCH   1  33
HETATM   33  N   UNL     1      32.655  48.992  41.720  1.00  0.00    -0.276 N 
HETATM   34  N   UNL     1      33.808  48.585  41.174  1.00  0.00     0.005 NA
HETATM   35  N   UNL     1      34.730  49.489  41.476  1.00  0.00    -0.152 NA
HETATM   36  C   UNL     1      34.137  50.485  42.216  1.00  0.00     0.166 A 
HETATM   37  C   UNL     1      32.801  50.167  42.383  1.00  0.00     0.147 A 
BRANCH  36  38
HETATM   38  C   UNL     1      34.822  51.670  42.710  1.00  0.00     0.314 C 
HETATM   39  O   UNL     1      34.685  52.081  43.857  1.00  0.00    -0.257 OA
BRANCH  38  40
HETATM   40  O   UNL     1      35.604  52.258  41.762  1.00  0.00    -0.321 OA
HETATM   41  C   UNL     1      36.973  52.403  42.140  1.00  0.00     0.213 C 
ENDBRANCH  38  40
ENDBRANCH  36  38
ENDBRANCH   1  33
TORSDOF 8
ENDMDL
MODEL 2
REMARK VINA RESULT:      -8.7     11.676     14.606
REMARK  8 active torsions:
REMARK  status: ('A' for Active; 'I' for Inactive)
REMARK    1  A    between atoms: O_2  and  C_3 
REMARK    2  A    between atoms: C_3  and  C_4 
REMARK    3  A    between atoms: N_7  and  C_8 
REMARK    4  A    between atoms: N_10  and  C_12 
REMARK    5  A    between atoms: C_22  and  C_23 
REMARK       I    between atoms: C_23  and  N_24 
REMARK    6  A    between atoms: N_24  and  C_25 
REMARK    7  A    between atoms: C_25  and  C_26 
REMARK    8  A    between atoms: C_26  and  C_27 
ROOT
HETATM    1  C   UNL     1      24.224  47.324  48.897  1.00  0.00     0.134 C 
HETATM    2  C   UNL     1      23.631  46.111  49.595  1.00  0.00     0.263 C 
HETATM    3  N   UNL     1      24.847  45.360  50.124  1.00  0.00    -0.051 N 
HETATM    4  H   UNL     1      24.573  44.959  51.046  1.00  0.00     0.281 HD
HETATM    5  C   UNL     1      25.856  46.493  50.495  1.00  0.00     0.281 C 
HETATM    6  C   UNL     1      25.311  47.772  49.860  1.00  0.00     0.072 C 
ENDROOT
BRANCH   5   7
HETATM    7  C   UNL     1      25.917  46.612  52.027  1.00  0.00     0.248 C 
HETATM    8  N   UNL     1      26.464  45.558  52.713  1.00  0.00    -0.359 N 
HETATM    9  H   UNL     1      26.638  44.668  52.261  1.00  0.00     0.162 HD
HETATM   10  O   UNL     1      25.497  47.643  52.553  1.00  0.00    -0.271 OA
BRANCH   8  11
HETATM   11  C   UNL     1      26.571  45.600  54.168  1.00  0.00     0.127 C 
BRANCH  11  12
HETATM   12  C   UNL     1      27.913  46.164  54.637  1.00  0.00     0.060 C 
BRANCH  12  13
HETATM   13  C   UNL     1      28.913  45.089  54.907  1.00  0.00    -0.029 A 
HETATM   14  C   UNL     1      29.762  44.977  56.056  1.00  0.00    -0.002 A 
HETATM   15  C   UNL     1      30.540  43.832  55.889  1.00  0.00     0.042 A 
HETATM   16  C   UNL     1      29.944  45.748  57.224  1.00  0.00     0.014 A 
HETATM   17  C   UNL     1      31.492  43.418  56.828  1.00  0.00     0.030 A 
HETATM   18  N   UNL     1      30.175  43.262  54.692  1.00  0.00    -0.365 N 
HETATM   19  C   UNL     1      31.654  44.199  57.975  1.00  0.00     0.002 A 
HETATM   20  C   UNL     1      30.892  45.347  58.173  1.00  0.00     0.001 A 
HETATM   21  H   UNL     1      30.573  42.412  54.318  1.00  0.00     0.165 HD
HETATM   22  C   UNL     1      29.198  44.012  54.091  1.00  0.00     0.096 A 
ENDBRANCH  12  13
ENDBRANCH  11  12
ENDBRANCH   8  11
ENDBRANCH   5   7
BRANCH   3  23
HETATM   23  C   UNL     1      25.390  44.234  49.253  1.00  0.00     0.197 C 
HETATM   24  C   UNL     1      26.578  43.491  49.929  1.00  0.00     0.017 C 
HETATM   25  C   UNL     1      26.130  42.716  51.183  1.00  0.00     0.011 C 
HETATM   26  C   UNL     1      27.152  42.477  48.914  1.00  0.00     0.011 C 
HETATM   27  C   UNL     1      25.048  41.690  50.815  1.00  0.00    -0.013 C 
HETATM   28  C   UNL     1      23.850  42.419  50.188  1.00  0.00     0.011 C 
HETATM   29  C   UNL     1      25.626  40.693  49.796  1.00  0.00     0.009 C 
HETATM   30  C   UNL     1      24.293  43.182  48.924  1.00  0.00     0.017 C 
HETATM   31  C   UNL     1      24.876  42.167  47.918  1.00  0.00     0.011 C 
HETATM   32  C   UNL     1      26.082  41.441  48.533  1.00  0.00    -0.013 C 
ENDBRANCH   3  23
BRANCH   1  33
HETATM   33  N   UNL     1      23.267  48.358  48.607  1.00  0.00    -0.276 N 
HETATM   34  N   UNL     1      23.614  49.398  47.837  1.00  0.00     0.005 NA
HETATM   35  N   UNL     1      22.534  50.149  47.676  1.00  0.00    -0.152 NA
HETATM   36  C   UNL     1      21.490  49.562  48.351  1.00  0.00     0.166 A 
HETATM   37  C   UNL     1      21.958  48.410  48.960  1.00  0.00     0.147 A 
BRANCH  36  38
HETATM   38  C   UNL     1      20.130  50.078  48.386  1.00  0.00     0.314 C 
HETATM   39  O   UNL     1      19.154  49.384  48.122  1.00  0.00    -0.257 OA
BRANCH  38  40
HETATM   40  O   UNL     1      20.077  51.396  48.727  1.00  0.00    -0.321 OA
HETATM   41  C   UNL     1      19.165  51.691  49.785  1.00  0.00     0.213 C 
ENDBRANCH  38  40
ENDBRANCH  36  38
ENDBRANCH   1  33
TORSDOF 8
ENDMDL
MODEL 3
REMARK VINA RESULT:      -8.7     11.326     12.990
REMARK  8 active torsions:
REMARK  status: ('A' for Active; 'I' for Inactive)
REMARK    1  A    between atoms: O_2  and  C_3 
REMARK    2  A    between atoms: C_3  and  C_4 
REMARK    3  A    between atoms: N_7  and  C_8 
REMARK    4  A    between atoms: N_10  and  C_12 
REMARK    5  A    between atoms: C_22  and  C_23 
REMARK       I    between atoms: C_23  and  N_24 
REMARK    6  A    between atoms: N_24  and  C_25 
REMARK    7  A    between atoms: C_25  and  C_26 
REMARK    8  A    between atoms: C_26  and  C_27 
ROOT
HETATM    1  C   UNL     1      28.023  42.326  53.048  1.00  0.00     0.134 C 
HETATM    2  C   UNL     1      28.753  42.242  51.717  1.00  0.00     0.263 C 
HETATM    3  N   UNL     1      27.692  41.741  50.746  1.00  0.00    -0.051 N 
HETATM    4  H   UNL     1      27.864  42.224  49.840  1.00  0.00     0.281 HD
HETATM    5  C   UNL     1      26.369  42.388  51.268  1.00  0.00     0.281 C 
HETATM    6  C   UNL     1      26.683  42.930  52.663  1.00  0.00     0.072 C 
ENDROOT
BRANCH   5   7
HETATM    7  C   UNL     1      25.965  43.519  50.307  1.00  0.00     0.248 C 
HETATM    8  N   UNL     1      26.567  44.738  50.490  1.00  0.00    -0.359 N 
HETATM    9  H   UNL     1      27.098  44.943  51.328  1.00  0.00     0.162 HD
HETATM   10  O   UNL     1      25.148  43.271  49.420  1.00  0.00    -0.271 OA
BRANCH   8  11
HETATM   11  C   UNL     1      26.248  45.857  49.610  1.00  0.00     0.127 C 
BRANCH  11  12
HETATM   12  C   UNL     1      26.316  47.204  50.333  1.00  0.00     0.060 C 
BRANCH  12  13
HETATM   13  C   UNL     1      25.974  48.345  49.434  1.00  0.00    -0.029 A 
HETATM   14  C   UNL     1      24.661  48.787  49.070  1.00  0.00    -0.002 A 
HETATM   15  C   UNL     1      24.810  49.873  48.208  1.00  0.00     0.042 A 
HETATM   16  C   UNL     1      23.355  48.361  49.392  1.00  0.00     0.014 A 
HETATM   17  C   UNL     1      23.722  50.554  47.650  1.00  0.00     0.030 A 
HETATM   18  N   UNL     1      26.159  50.092  48.059  1.00  0.00    -0.365 N 
HETATM   19  C   UNL     1      22.440  50.111  47.983  1.00  0.00     0.002 A 
HETATM   20  C   UNL     1      22.255  49.031  48.842  1.00  0.00     0.001 A 
HETATM   21  H   UNL     1      26.560  50.826  47.491  1.00  0.00     0.165 HD
HETATM   22  C   UNL     1      26.870  49.176  48.790  1.00  0.00     0.096 A 
ENDBRANCH  12  13
ENDBRANCH  11  12
ENDBRANCH   8  11
ENDBRANCH   5   7
BRANCH   3  23
HETATM   23  C   UNL     1      27.650  40.240  50.490  1.00  0.00     0.197 C 
HETATM   24  C   UNL     1      26.415  39.824  49.640  1.00  0.00     0.017 C 
HETATM   25  C   UNL     1      26.498  40.375  48.203  1.00  0.00     0.011 C 
HETATM   26  C   UNL     1      26.381  38.281  49.564  1.00  0.00     0.011 C 
HETATM   27  C   UNL     1      27.771  39.866  47.511  1.00  0.00    -0.013 C 
HETATM   28  C   UNL     1      29.000  40.311  48.319  1.00  0.00     0.011 C 
HETATM   29  C   UNL     1      27.731  38.329  47.452  1.00  0.00     0.009 C 
HETATM   30  C   UNL     1      28.927  39.747  49.753  1.00  0.00     0.017 C 
HETATM   31  C   UNL     1      28.881  38.206  49.671  1.00  0.00     0.011 C 
HETATM   32  C   UNL     1      27.649  37.752  48.874  1.00  0.00    -0.013 C 
ENDBRANCH   3  23
BRANCH   1  33
HETATM   33  N   UNL     1      28.718  43.090  54.050  1.00  0.00    -0.276 N 
HETATM   34  N   UNL     1      29.965  42.754  54.406  1.00  0.00     0.005 NA
HETATM   35  N   UNL     1      30.384  43.658  55.280  1.00  0.00    -0.152 NA
HETATM   36  C   UNL     1      29.383  44.582  55.465  1.00  0.00     0.166 A 
HETATM   37  C   UNL     1      28.303  44.218  54.681  1.00  0.00     0.147 A 
BRANCH  36  38
HETATM   38  C   UNL     1      29.479  45.746  56.333  1.00  0.00     0.314 C 
HETATM   39  O   UNL     1      28.584  46.579  56.421  1.00  0.00    -0.257 OA
BRANCH  38  40
HETATM   40  O   UNL     1      30.660  45.801  57.009  1.00  0.00    -0.321 OA
HETATM   41  C   UNL     1      30.540  45.597  58.417  1.00  0.00     0.213 C 
ENDBRANCH  38  40
ENDBRANCH  36  38
ENDBRANCH   1  33
TORSDOF 8
ENDMDL
MODEL 4
REMARK VINA RESULT:      -8.6     11.833     14.628
REMARK  8 active torsions:
REMARK  status: ('A' for Active; 'I' for Inactive)
REMARK    1  A    between atoms: O_2  and  C_3 
REMARK    2  A    between atoms: C_3  and  C_4 
REMARK    3  A    between atoms: N_7  and  C_8 
REMARK    4  A    between atoms: N_10  and  C_12 
REMARK    5  A    between atoms: C_22  and  C_23 
REMARK       I    between atoms: C_23  and  N_24 
REMARK    6  A    between atoms: N_24  and  C_25 
REMARK    7  A    between atoms: C_25  and  C_26 
REMARK    8  A    between atoms: C_26  and  C_27 
ROOT
HETATM    1  C   UNL     1      24.244  43.676  48.470  1.00  0.00     0.134 C 
HETATM    2  C   UNL     1      24.163  42.243  48.971  1.00  0.00     0.263 C 
HETATM    3  N   UNL     1      25.618  41.850  49.198  1.00  0.00    -0.051 N 
HETATM    4  H   UNL     1      25.635  41.244  50.045  1.00  0.00     0.281 HD
HETATM    5  C   UNL     1      26.294  43.176  49.674  1.00  0.00     0.281 C 
HETATM    6  C   UNL     1      25.296  44.294  49.375  1.00  0.00     0.072 C 
ENDROOT
BRANCH   5   7
HETATM    7  C   UNL     1      26.576  43.067  51.183  1.00  0.00     0.248 C 
HETATM    8  N   UNL     1      27.769  42.501  51.555  1.00  0.00    -0.359 N 
HETATM    9  H   UNL     1      28.347  42.003  50.888  1.00  0.00     0.162 HD
HETATM   10  O   UNL     1      25.737  43.506  51.970  1.00  0.00    -0.271 OA
BRANCH   8  11
HETATM   11  C   UNL     1      28.116  42.375  52.967  1.00  0.00     0.127 C 
BRANCH  11  12
HETATM   12  C   UNL     1      29.467  43.014  53.293  1.00  0.00     0.060 C 
BRANCH  12  13
HETATM   13  C   UNL     1      29.359  44.044  54.368  1.00  0.00    -0.029 A 
HETATM   14  C   UNL     1      30.120  44.100  55.581  1.00  0.00    -0.002 A 
HETATM   15  C   UNL     1      29.687  45.218  56.294  1.00  0.00     0.042 A 
HETATM   16  C   UNL     1      31.137  43.299  56.143  1.00  0.00     0.014 A 
HETATM   17  C   UNL     1      30.216  45.576  57.539  1.00  0.00     0.030 A 
HETATM   18  N   UNL     1      28.709  45.826  55.542  1.00  0.00    -0.365 N 
HETATM   19  C   UNL     1      31.221  44.766  58.074  1.00  0.00     0.002 A 
HETATM   20  C   UNL     1      31.677  43.644  57.388  1.00  0.00     0.001 A 
HETATM   21  H   UNL     1      28.220  46.668  55.813  1.00  0.00     0.165 HD
HETATM   22  C   UNL     1      28.501  45.126  54.382  1.00  0.00     0.096 A 
ENDBRANCH  12  13
ENDBRANCH  11  12
ENDBRANCH   8  11
ENDBRANCH   5   7
BRANCH   3  23
HETATM   23  C   UNL     1      26.314  41.110  48.063  1.00  0.00     0.197 C 
HETATM   24  C   UNL     1      27.863  41.168  48.189  1.00  0.00     0.017 C 
HETATM   25  C   UNL     1      28.367  40.384  49.417  1.00  0.00     0.011 C 
HETATM   26  C   UNL     1      28.473  40.525  46.924  1.00  0.00     0.011 C 
HETATM   27  C   UNL     1      27.931  38.915  49.326  1.00  0.00    -0.013 C 
HETATM   28  C   UNL     1      26.398  38.845  49.247  1.00  0.00     0.011 C 
HETATM   29  C   UNL     1      28.534  38.289  48.056  1.00  0.00     0.009 C 
HETATM   30  C   UNL     1      25.893  39.614  48.010  1.00  0.00     0.017 C 
HETATM   31  C   UNL     1      26.514  38.977  46.749  1.00  0.00     0.011 C 
HETATM   32  C   UNL     1      28.047  39.052  46.814  1.00  0.00    -0.013 C 
ENDBRANCH   3  23
BRANCH   1  33
HETATM   33  N   UNL     1      22.989  44.379  48.503  1.00  0.00    -0.276 N 
HETATM   34  N   UNL     1      21.869  43.738  48.863  1.00  0.00     0.005 NA
HETATM   35  N   UNL     1      20.889  44.631  48.877  1.00  0.00    -0.152 NA
HETATM   36  C   UNL     1      21.410  45.855  48.531  1.00  0.00     0.166 A 
HETATM   37  C   UNL     1      22.762  45.699  48.281  1.00  0.00     0.147 A 
BRANCH  36  38
HETATM   38  C   UNL     1      20.647  47.091  48.463  1.00  0.00     0.314 C 
HETATM   39  O   UNL     1      19.627  47.274  49.120  1.00  0.00    -0.257 OA
BRANCH  38  40
HETATM   40  O   UNL     1      21.182  47.993  47.593  1.00  0.00    -0.321 OA
HETATM   41  C   UNL     1      21.312  49.312  48.123  1.00  0.00     0.213 C 
ENDBRANCH  38  40
ENDBRANCH  36  38
ENDBRANCH   1  33
TORSDOF 8
ENDMDL
MODEL 5
REMARK VINA RESULT:      -8.5     11.610     14.882
REMARK  8 active torsions:
REMARK  status: ('A' for Active; 'I' for Inactive)
REMARK    1  A    between atoms: O_2  and  C_3 
REMARK    2  A    between atoms: C_3  and  C_4 
REMARK    3  A    between atoms: N_7  and  C_8 
REMARK    4  A    between atoms: N_10  and  C_12 
REMARK    5  A    between atoms: C_22  and  C_23 
REMARK       I    between atoms: C_23  and  N_24 
REMARK    6  A    between atoms: N_24  and  C_25 
REMARK    7  A    between atoms: C_25  and  C_26 
REMARK    8  A    between atoms: C_26  and  C_27 
ROOT
HETATM    1  C   UNL     1      21.576  45.850  47.680  1.00  0.00     0.134 C 
HETATM    2  C   UNL     1      21.908  45.716  49.158  1.00  0.00     0.263 C 
HETATM    3  N   UNL     1      23.143  46.589  49.338  1.00  0.00    -0.051 N 
HETATM    4  H   UNL     1      23.056  47.040  50.273  1.00  0.00     0.281 HD
HETATM    5  C   UNL     1      22.921  47.765  48.335  1.00  0.00     0.281 C 
HETATM    6  C   UNL     1      21.773  47.334  47.421  1.00  0.00     0.072 C 
ENDROOT
BRANCH   5   7
HETATM    7  C   UNL     1      22.555  49.028  49.134  1.00  0.00     0.248 C 
HETATM    8  N   UNL     1      21.302  49.549  48.937  1.00  0.00    -0.359 N 
HETATM    9  H   UNL     1      20.718  49.242  48.167  1.00  0.00     0.162 HD
HETATM   10  O   UNL     1      23.388  49.490  49.915  1.00  0.00    -0.271 OA
BRANCH   8  11
HETATM   11  C   UNL     1      20.875  50.737  49.669  1.00  0.00     0.127 C 
BRANCH  11  12
HETATM   12  C   UNL     1      19.553  50.522  50.407  1.00  0.00     0.060 C 
BRANCH  12  13
HETATM   13  C   UNL     1      18.776  49.374  49.853  1.00  0.00    -0.029 A 
HETATM   14  C   UNL     1      17.609  49.449  49.025  1.00  0.00    -0.002 A 
HETATM   15  C   UNL     1      17.209  48.142  48.750  1.00  0.00     0.042 A 
HETATM   16  C   UNL     1      16.852  50.510  48.485  1.00  0.00     0.014 A 
HETATM   17  C   UNL     1      16.091  47.840  47.965  1.00  0.00     0.030 A 
HETATM   18  N   UNL     1      18.100  47.303  49.376  1.00  0.00    -0.365 N 
HETATM   19  C   UNL     1      15.357  48.908  47.443  1.00  0.00     0.002 A 
HETATM   20  C   UNL     1      15.730  50.226  47.697  1.00  0.00     0.001 A 
HETATM   21  H   UNL     1      18.057  46.293  49.341  1.00  0.00     0.165 HD
HETATM   22  C   UNL     1      19.046  48.034  50.046  1.00  0.00     0.096 A 
ENDBRANCH  12  13
ENDBRANCH  11  12
ENDBRANCH   8  11
ENDBRANCH   5   7
BRANCH   3  23
HETATM   23  C   UNL     1      24.494  45.889  49.266  1.00  0.00     0.197 C 
HETATM   24  C   UNL     1      25.640  46.765  49.849  1.00  0.00     0.017 C 
HETATM   25  C   UNL     1      25.485  46.971  51.369  1.00  0.00     0.011 C 
HETATM   26  C   UNL     1      26.979  46.038  49.595  1.00  0.00     0.011 C 
HETATM   27  C   UNL     1      25.479  45.616  52.092  1.00  0.00    -0.013 C 
HETATM   28  C   UNL     1      24.322  44.760  51.554  1.00  0.00     0.011 C 
HETATM   29  C   UNL     1      26.812  44.897  51.822  1.00  0.00     0.009 C 
HETATM   30  C   UNL     1      24.483  44.539  50.037  1.00  0.00     0.017 C 
HETATM   31  C   UNL     1      25.828  43.823  49.787  1.00  0.00     0.011 C 
HETATM   32  C   UNL     1      26.992  44.677  50.311  1.00  0.00    -0.013 C 
ENDBRANCH   3  23
BRANCH   1  33
HETATM   33  N   UNL     1      20.258  45.388  47.332  1.00  0.00    -0.276 N 
HETATM   34  N   UNL     1      19.481  44.814  48.259  1.00  0.00     0.005 NA
HETATM   35  N   UNL     1      18.311  44.556  47.691  1.00  0.00    -0.152 NA
HETATM   36  C   UNL     1      18.357  44.987  46.386  1.00  0.00     0.166 A 
HETATM   37  C   UNL     1      19.612  45.518  46.146  1.00  0.00     0.147 A 
BRANCH  36  38
HETATM   38  C   UNL     1      17.250  44.902  45.446  1.00  0.00     0.314 C 
HETATM   39  O   UNL     1      16.814  43.832  45.035  1.00  0.00    -0.257 OA
BRANCH  38  40
HETATM   40  O   UNL     1      16.778  46.125  45.077  1.00  0.00    -0.321 OA
HETATM   41  C   UNL     1      15.930  46.104  43.928  1.00  0.00     0.213 C 
ENDBRANCH  38  40
ENDBRANCH  36  38
ENDBRANCH   1  33
TORSDOF 8
ENDMDL
MODEL 6
REMARK VINA RESULT:      -8.1     15.288     18.024
REMARK  8 active torsions:
REMARK  status: ('A' for Active; 'I' for Inactive)
REMARK    1  A    between atoms: O_2  and  C_3 
REMARK    2  A    between atoms: C_3  and  C_4 
REMARK    3  A    between atoms: N_7  and  C_8 
REMARK    4  A    between atoms: N_10  and  C_12 
REMARK    5  A    between atoms: C_22  and  C_23 
REMARK       I    between atoms: C_23  and  N_24 
REMARK    6  A    between atoms: N_24  and  C_25 
REMARK    7  A    between atoms: C_25  and  C_26 
REMARK    8  A    between atoms: C_26  and  C_27 
ROOT
HETATM    1  C   UNL     1      14.463  54.086  51.091  1.00  0.00     0.134 C 
HETATM    2  C   UNL     1      15.834  54.277  50.463  1.00  0.00     0.263 C 
HETATM    3  N   UNL     1      15.809  53.366  49.242  1.00  0.00    -0.051 N 
HETATM    4  H   UNL     1      16.339  53.857  48.492  1.00  0.00     0.281 HD
HETATM    5  C   UNL     1      14.326  53.431  48.755  1.00  0.00     0.281 C 
HETATM    6  C   UNL     1      13.535  54.085  49.888  1.00  0.00     0.072 C 
ENDROOT
BRANCH   5   7
HETATM    7  C   UNL     1      14.269  54.278  47.473  1.00  0.00     0.248 C 
HETATM    8  N   UNL     1      14.769  53.712  46.329  1.00  0.00    -0.359 N 
HETATM    9  H   UNL     1      15.325  52.865  46.359  1.00  0.00     0.162 HD
HETATM   10  O   UNL     1      13.764  55.400  47.532  1.00  0.00    -0.271 OA
BRANCH   8  11
HETATM   11  C   UNL     1      14.738  54.446  45.068  1.00  0.00     0.127 C 
BRANCH  11  12
HETATM   12  C   UNL     1      14.427  53.541  43.874  1.00  0.00     0.060 C 
BRANCH  12  13
HETATM   13  C   UNL     1      15.495  53.591  42.834  1.00  0.00    -0.029 A 
HETATM   14  C   UNL     1      16.620  52.712  42.716  1.00  0.00    -0.002 A 
HETATM   15  C   UNL     1      17.361  53.128  41.611  1.00  0.00     0.042 A 
HETATM   16  C   UNL     1      17.079  51.599  43.452  1.00  0.00     0.014 A 
HETATM   17  C   UNL     1      18.539  52.491  41.204  1.00  0.00     0.030 A 
HETATM   18  N   UNL     1      16.711  54.211  41.069  1.00  0.00    -0.365 N 
HETATM   19  C   UNL     1      18.974  51.393  41.950  1.00  0.00     0.002 A 
HETATM   20  C   UNL     1      18.256  50.950  43.059  1.00  0.00     0.001 A 
HETATM   21  H   UNL     1      17.022  54.714  40.250  1.00  0.00     0.165 HD
HETATM   22  C   UNL     1      15.587  54.501  41.799  1.00  0.00     0.096 A 
ENDBRANCH  12  13
ENDBRANCH  11  12
ENDBRANCH   8  11
ENDBRANCH   5   7
BRANCH   3  23
HETATM   23  C   UNL     1      16.400  51.972  49.414  1.00  0.00     0.197 C 
HETATM   24  C   UNL     1      16.280  51.120  48.118  1.00  0.00     0.017 C 
HETATM   25  C   UNL     1      17.154  51.683  46.980  1.00  0.00     0.011 C 
HETATM   26  C   UNL     1      16.764  49.689  48.436  1.00  0.00     0.011 C 
HETATM   27  C   UNL     1      18.627  51.723  47.413  1.00  0.00    -0.013 C 
HETATM   28  C   UNL     1      18.764  52.600  48.667  1.00  0.00     0.011 C 
HETATM   29  C   UNL     1      19.095  50.294  47.738  1.00  0.00     0.009 C 
HETATM   30  C   UNL     1      17.902  52.030  49.812  1.00  0.00     0.017 C 
HETATM   31  C   UNL     1      18.382  50.595  50.118  1.00  0.00     0.011 C 
HETATM   32  C   UNL     1      18.238  49.708  48.872  1.00  0.00    -0.013 C 
ENDBRANCH   3  23
BRANCH   1  33
HETATM   33  N   UNL     1      14.121  55.089  52.065  1.00  0.00    -0.276 N 
HETATM   34  N   UNL     1      12.836  55.344  52.343  1.00  0.00     0.005 NA
HETATM   35  N   UNL     1      12.813  56.246  53.315  1.00  0.00    -0.152 NA
HETATM   36  C   UNL     1      14.109  56.552  53.656  1.00  0.00     0.166 A 
HETATM   37  C   UNL     1      14.958  55.815  52.849  1.00  0.00     0.147 A 
BRANCH  36  38
HETATM   38  C   UNL     1      14.492  57.485  54.704  1.00  0.00     0.314 C 
HETATM   39  O   UNL     1      13.844  57.619  55.737  1.00  0.00    -0.257 OA
BRANCH  38  40
HETATM   40  O   UNL     1      15.622  58.183  54.401  1.00  0.00    -0.321 OA
HETATM   41  C   UNL     1      15.822  59.350  55.198  1.00  0.00     0.213 C 
ENDBRANCH  38  40
ENDBRANCH  36  38
ENDBRANCH   1  33
TORSDOF 8
ENDMDL
MODEL 7
REMARK VINA RESULT:      -8.1     11.974     14.650
REMARK  8 active torsions:
REMARK  status: ('A' for Active; 'I' for Inactive)
REMARK    1  A    between atoms: O_2  and  C_3 
REMARK    2  A    between atoms: C_3  and  C_4 
REMARK    3  A    between atoms: N_7  and  C_8 
REMARK    4  A    between atoms: N_10  and  C_12 
REMARK    5  A    between atoms: C_22  and  C_23 
REMARK       I    between atoms: C_23  and  N_24 
REMARK    6  A    between atoms: N_24  and  C_25 
REMARK    7  A    between atoms: C_25  and  C_26 
REMARK    8  A    between atoms: C_26  and  C_27 
ROOT
HETATM    1  C   UNL     1      24.234  43.328  49.411  1.00  0.00     0.134 C 
HETATM    2  C   UNL     1      23.606  43.600  50.769  1.00  0.00     0.263 C 
HETATM    3  N   UNL     1      24.566  44.582  51.428  1.00  0.00    -0.051 N 
HETATM    4  H   UNL     1      23.982  45.249  51.976  1.00  0.00     0.281 HD
HETATM    5  C   UNL     1      25.097  45.444  50.238  1.00  0.00     0.281 C 
HETATM    6  C   UNL     1      24.685  44.708  48.963  1.00  0.00     0.072 C 
ENDROOT
BRANCH   5   7
HETATM    7  C   UNL     1      24.448  46.837  50.314  1.00  0.00     0.248 C 
HETATM    8  N   UNL     1      23.489  47.129  49.379  1.00  0.00    -0.359 N 
HETATM    9  H   UNL     1      23.351  46.543  48.563  1.00  0.00     0.162 HD
HETATM   10  O   UNL     1      24.804  47.601  51.212  1.00  0.00    -0.271 OA
BRANCH   8  11
HETATM   11  C   UNL     1      22.816  48.424  49.393  1.00  0.00     0.127 C 
BRANCH  11  12
HETATM   12  C   UNL     1      21.686  48.505  48.366  1.00  0.00     0.060 C 
BRANCH  12  13
HETATM   13  C   UNL     1      20.384  48.888  48.988  1.00  0.00    -0.029 A 
HETATM   14  C   UNL     1      19.751  50.172  48.927  1.00  0.00    -0.002 A 
HETATM   15  C   UNL     1      18.562  50.085  49.652  1.00  0.00     0.042 A 
HETATM   16  C   UNL     1      20.081  51.405  48.326  1.00  0.00     0.014 A 
HETATM   17  C   UNL     1      17.687  51.166  49.807  1.00  0.00     0.030 A 
HETATM   18  N   UNL     1      18.469  48.798  50.126  1.00  0.00    -0.365 N 
HETATM   19  C   UNL     1      18.037  52.376  49.203  1.00  0.00     0.002 A 
HETATM   20  C   UNL     1      19.216  52.497  48.471  1.00  0.00     0.001 A 
HETATM   21  H   UNL     1      17.700  48.448  50.682  1.00  0.00     0.165 HD
HETATM   22  C   UNL     1      19.561  48.070  49.735  1.00  0.00     0.096 A 
ENDBRANCH  12  13
ENDBRANCH  11  12
ENDBRANCH   8  11
ENDBRANCH   5   7
BRANCH   3  23
HETATM   23  C   UNL     1      25.621  43.993  52.355  1.00  0.00     0.197 C 
HETATM   24  C   UNL     1      27.044  44.539  52.046  1.00  0.00     0.017 C 
HETATM   25  C   UNL     1      27.163  46.042  52.367  1.00  0.00     0.011 C 
HETATM   26  C   UNL     1      28.056  43.776  52.930  1.00  0.00     0.011 C 
HETATM   27  C   UNL     1      26.845  46.296  53.847  1.00  0.00    -0.013 C 
HETATM   28  C   UNL     1      25.422  45.801  54.153  1.00  0.00     0.011 C 
HETATM   29  C   UNL     1      27.850  45.522  54.717  1.00  0.00     0.009 C 
HETATM   30  C   UNL     1      25.306  44.294  53.848  1.00  0.00     0.017 C 
HETATM   31  C   UNL     1      26.327  43.537  54.724  1.00  0.00     0.011 C 
HETATM   32  C   UNL     1      27.753  44.018  54.417  1.00  0.00    -0.013 C 
ENDBRANCH   3  23
BRANCH   1  33
HETATM   33  N   UNL     1      23.346  42.693  48.473  1.00  0.00    -0.276 N 
HETATM   34  N   UNL     1      22.776  41.520  48.776  1.00  0.00     0.005 NA
HETATM   35  N   UNL     1      21.962  41.206  47.777  1.00  0.00    -0.152 NA
HETATM   36  C   UNL     1      22.017  42.209  46.839  1.00  0.00     0.166 A 
HETATM   37  C   UNL     1      22.914  43.168  47.277  1.00  0.00     0.147 A 
BRANCH  36  38
HETATM   38  C   UNL     1      21.239  42.238  45.610  1.00  0.00     0.314 C 
HETATM   39  O   UNL     1      21.124  41.260  44.879  1.00  0.00    -0.257 OA
BRANCH  38  40
HETATM   40  O   UNL     1      20.680  43.457  45.369  1.00  0.00    -0.321 OA
HETATM   41  C   UNL     1      19.345  43.595  45.853  1.00  0.00     0.213 C 
ENDBRANCH  38  40
ENDBRANCH  36  38
ENDBRANCH   1  33
TORSDOF 8
ENDMDL
MODEL 8
REMARK VINA RESULT:      -8.1     11.469     14.218
REMARK  8 active torsions:
REMARK  status: ('A' for Active; 'I' for Inactive)
REMARK    1  A    between atoms: O_2  and  C_3 
REMARK    2  A    between atoms: C_3  and  C_4 
REMARK    3  A    between atoms: N_7  and  C_8 
REMARK    4  A    between atoms: N_10  and  C_12 
REMARK    5  A    between atoms: C_22  and  C_23 
REMARK       I    between atoms: C_23  and  N_24 
REMARK    6  A    between atoms: N_24  and  C_25 
REMARK    7  A    between atoms: C_25  and  C_26 
REMARK    8  A    between atoms: C_26  and  C_27 
ROOT
HETATM    1  C   UNL     1      22.773  47.424  48.667  1.00  0.00     0.134 C 
HETATM    2  C   UNL     1      21.897  46.184  48.593  1.00  0.00     0.263 C 
HETATM    3  N   UNL     1      22.890  45.042  48.422  1.00  0.00    -0.051 N 
HETATM    4  H   UNL     1      22.513  44.234  48.961  1.00  0.00     0.281 HD
HETATM    5  C   UNL     1      24.132  45.497  49.252  1.00  0.00     0.281 C 
HETATM    6  C   UNL     1      23.917  46.978  49.561  1.00  0.00     0.072 C 
ENDROOT
BRANCH   5   7
HETATM    7  C   UNL     1      24.193  44.660  50.541  1.00  0.00     0.248 C 
HETATM    8  N   UNL     1      24.964  45.147  51.565  1.00  0.00    -0.359 N 
HETATM    9  H   UNL     1      25.616  45.909  51.418  1.00  0.00     0.162 HD
HETATM   10  O   UNL     1      23.537  43.619  50.597  1.00  0.00    -0.271 OA
BRANCH   8  11
HETATM   11  C   UNL     1      25.062  44.418  52.826  1.00  0.00     0.127 C 
BRANCH  11  12
HETATM   12  C   UNL     1      26.117  45.011  53.761  1.00  0.00     0.060 C 
BRANCH  12  13
HETATM   13  C   UNL     1      27.291  44.106  53.933  1.00  0.00    -0.029 A 
HETATM   14  C   UNL     1      28.472  44.370  54.701  1.00  0.00    -0.002 A 
HETATM   15  C   UNL     1      29.308  43.261  54.575  1.00  0.00     0.042 A 
HETATM   16  C   UNL     1      28.910  45.454  55.491  1.00  0.00     0.014 A 
HETATM   17  C   UNL     1      30.560  43.180  55.195  1.00  0.00     0.030 A 
HETATM   18  N   UNL     1      28.661  42.353  53.771  1.00  0.00    -0.365 N 
HETATM   19  C   UNL     1      30.971  44.267  55.970  1.00  0.00     0.002 A 
HETATM   20  C   UNL     1      30.160  45.389  56.119  1.00  0.00     0.001 A 
HETATM   21  H   UNL     1      29.033  41.448  53.514  1.00  0.00     0.165 HD
HETATM   22  C   UNL     1      27.447  42.852  53.376  1.00  0.00     0.096 A 
ENDBRANCH  12  13
ENDBRANCH  11  12
ENDBRANCH   8  11
ENDBRANCH   5   7
BRANCH   3  23
HETATM   23  C   UNL     1      23.166  44.580  46.996  1.00  0.00     0.197 C 
HETATM   24  C   UNL     1      23.468  43.056  46.921  1.00  0.00     0.017 C 
HETATM   25  C   UNL     1      22.232  42.209  47.281  1.00  0.00     0.011 C 
HETATM   26  C   UNL     1      23.880  42.718  45.471  1.00  0.00     0.011 C 
HETATM   27  C   UNL     1      21.071  42.532  46.329  1.00  0.00    -0.013 C 
HETATM   28  C   UNL     1      20.734  44.028  46.429  1.00  0.00     0.011 C 
HETATM   29  C   UNL     1      21.497  42.202  44.888  1.00  0.00     0.009 C 
HETATM   30  C   UNL     1      21.965  44.877  46.054  1.00  0.00     0.017 C 
HETATM   31  C   UNL     1      22.380  44.527  44.609  1.00  0.00     0.011 C 
HETATM   32  C   UNL     1      22.730  43.035  44.502  1.00  0.00    -0.013 C 
ENDBRANCH   3  23
BRANCH   1  33
HETATM   33  N   UNL     1      22.094  48.592  49.163  1.00  0.00    -0.276 N 
HETATM   34  N   UNL     1      22.798  49.649  49.586  1.00  0.00     0.005 NA
HETATM   35  N   UNL     1      21.931  50.597  49.914  1.00  0.00    -0.152 NA
HETATM   36  C   UNL     1      20.661  50.125  49.681  1.00  0.00     0.166 A 
HETATM   37  C   UNL     1      20.758  48.830  49.203  1.00  0.00     0.147 A 
BRANCH  36  38
HETATM   38  C   UNL     1      19.441  50.888  49.893  1.00  0.00     0.314 C 
HETATM   39  O   UNL     1      18.520  50.480  50.593  1.00  0.00    -0.257 OA
BRANCH  38  40
HETATM   40  O   UNL     1      19.440  52.076  49.226  1.00  0.00    -0.321 OA
HETATM   41  C   UNL     1      18.140  52.615  48.989  1.00  0.00     0.213 C 
ENDBRANCH  38  40
ENDBRANCH  36  38
ENDBRANCH   1  33
TORSDOF 8
ENDMDL
MODEL 9
REMARK VINA RESULT:      -8.0     11.813     13.265
REMARK  8 active torsions:
REMARK  status: ('A' for Active; 'I' for Inactive)
REMARK    1  A    between atoms: O_2  and  C_3 
REMARK    2  A    between atoms: C_3  and  C_4 
REMARK    3  A    between atoms: N_7  and  C_8 
REMARK    4  A    between atoms: N_10  and  C_12 
REMARK    5  A    between atoms: C_22  and  C_23 
REMARK       I    between atoms: C_23  and  N_24 
REMARK    6  A    between atoms: N_24  and  C_25 
REMARK    7  A    between atoms: C_25  and  C_26 
REMARK    8  A    between atoms: C_26  and  C_27 
ROOT
HETATM    1  C   UNL     1      27.557  42.818  52.896  1.00  0.00     0.134 C 
HETATM    2  C   UNL     1      28.403  42.641  51.646  1.00  0.00     0.263 C 
HETATM    3  N   UNL     1      27.456  41.985  50.650  1.00  0.00    -0.051 N 
HETATM    4  H   UNL     1      27.683  42.382  49.714  1.00  0.00     0.281 HD
HETATM    5  C   UNL     1      26.063  42.606  50.991  1.00  0.00     0.281 C 
HETATM    6  C   UNL     1      26.229  43.304  52.341  1.00  0.00     0.072 C 
ENDROOT
BRANCH   5   7
HETATM    7  C   UNL     1      25.691  43.610  49.885  1.00  0.00     0.248 C 
HETATM    8  N   UNL     1      24.366  43.936  49.760  1.00  0.00    -0.359 N 
HETATM    9  H   UNL     1      23.644  43.403  50.233  1.00  0.00     0.162 HD
HETATM   10  O   UNL     1      26.594  44.079  49.191  1.00  0.00    -0.271 OA
BRANCH   8  11
HETATM   11  C   UNL     1      23.934  44.891  48.745  1.00  0.00     0.127 C 
BRANCH  11  12
HETATM   12  C   UNL     1      23.845  46.318  49.288  1.00  0.00     0.060 C 
BRANCH  12  13
HETATM   13  C   UNL     1      22.712  47.081  48.688  1.00  0.00    -0.029 A 
HETATM   14  C   UNL     1      22.546  48.505  48.677  1.00  0.00    -0.002 A 
HETATM   15  C   UNL     1      21.346  48.780  48.022  1.00  0.00     0.042 A 
HETATM   16  C   UNL     1      23.306  49.587  49.169  1.00  0.00     0.014 A 
HETATM   17  C   UNL     1      20.865  50.081  47.834  1.00  0.00     0.030 A 
HETATM   18  N   UNL     1      20.806  47.575  47.639  1.00  0.00    -0.365 N 
HETATM   19  C   UNL     1      21.635  51.135  48.332  1.00  0.00     0.002 A 
HETATM   20  C   UNL     1      22.839  50.895  48.990  1.00  0.00     0.001 A 
HETATM   21  H   UNL     1      19.935  47.473  47.135  1.00  0.00     0.165 HD
HETATM   22  C   UNL     1      21.618  46.546  48.037  1.00  0.00     0.096 A 
ENDBRANCH  12  13
ENDBRANCH  11  12
ENDBRANCH   8  11
ENDBRANCH   5   7
BRANCH   3  23
HETATM   23  C   UNL     1      27.507  40.465  50.552  1.00  0.00     0.197 C 
HETATM   24  C   UNL     1      26.300  39.887  49.761  1.00  0.00     0.017 C 
HETATM   25  C   UNL     1      26.345  40.289  48.273  1.00  0.00     0.011 C 
HETATM   26  C   UNL     1      26.362  38.346  49.846  1.00  0.00     0.011 C 
HETATM   27  C   UNL     1      27.645  39.791  47.627  1.00  0.00    -0.013 C 
HETATM   28  C   UNL     1      28.846  40.393  48.374  1.00  0.00     0.011 C 
HETATM   29  C   UNL     1      27.701  38.257  47.728  1.00  0.00     0.009 C 
HETATM   30  C   UNL     1      28.812  39.979  49.858  1.00  0.00     0.017 C 
HETATM   31  C   UNL     1      28.862  38.438  49.938  1.00  0.00     0.011 C 
HETATM   32  C   UNL     1      27.659  37.828  49.203  1.00  0.00    -0.013 C 
ENDBRANCH   3  23
BRANCH   1  33
HETATM   33  N   UNL     1      28.125  43.718  53.865  1.00  0.00    -0.276 N 
HETATM   34  N   UNL     1      27.409  44.755  54.319  1.00  0.00     0.005 NA
HETATM   35  N   UNL     1      28.139  45.365  55.243  1.00  0.00    -0.152 NA
HETATM   36  C   UNL     1      29.329  44.690  55.374  1.00  0.00     0.166 A 
HETATM   37  C   UNL     1      29.330  43.631  54.483  1.00  0.00     0.147 A 
BRANCH  36  38
HETATM   38  C   UNL     1      30.382  45.043  56.313  1.00  0.00     0.314 C 
HETATM   39  O   UNL     1      30.256  45.937  57.142  1.00  0.00    -0.257 OA
BRANCH  38  40
HETATM   40  O   UNL     1      31.504  44.285  56.154  1.00  0.00    -0.321 OA
HETATM   41  C   UNL     1      31.733  43.349  57.207  1.00  0.00     0.213 C 
ENDBRANCH  38  40
ENDBRANCH  36  38
ENDBRANCH   1  33
TORSDOF 8
ENDMDL
MODEL 10
REMARK VINA RESULT:      -7.9     14.107     17.653
REMARK  8 active torsions:
REMARK  status: ('A' for Active; 'I' for Inactive)
REMARK    1  A    between atoms: O_2  and  C_3 
REMARK    2  A    between atoms: C_3  and  C_4 
REMARK    3  A    between atoms: N_7  and  C_8 
REMARK    4  A    between atoms: N_10  and  C_12 
REMARK    5  A    between atoms: C_22  and  C_23 
REMARK       I    between atoms: C_23  and  N_24 
REMARK    6  A    between atoms: N_24  and  C_25 
REMARK    7  A    between atoms: C_25  and  C_26 
REMARK    8  A    between atoms: C_26  and  C_27 
ROOT
HETATM    1  C   UNL     1      16.095  48.653  45.674  1.00  0.00     0.134 C 
HETATM    2  C   UNL     1      16.090  49.395  47.001  1.00  0.00     0.263 C 
HETATM    3  N   UNL     1      17.256  50.368  46.883  1.00  0.00    -0.051 N 
HETATM    4  H   UNL     1      16.965  51.243  47.366  1.00  0.00     0.281 HD
HETATM    5  C   UNL     1      17.265  50.761  45.371  1.00  0.00     0.281 C 
HETATM    6  C   UNL     1      16.348  49.762  44.667  1.00  0.00     0.072 C 
ENDROOT
BRANCH   5   7
HETATM    7  C   UNL     1      16.734  52.199  45.237  1.00  0.00     0.248 C 
HETATM    8  N   UNL     1      15.397  52.347  44.970  1.00  0.00    -0.359 N 
HETATM    9  H   UNL     1      14.827  51.560  44.681  1.00  0.00     0.162 HD
HETATM   10  O   UNL     1      17.521  53.133  45.394  1.00  0.00    -0.271 OA
BRANCH   8  11
HETATM   11  C   UNL     1      14.814  53.678  44.841  1.00  0.00     0.127 C 
BRANCH  11  12
HETATM   12  C   UNL     1      13.565  53.853  45.707  1.00  0.00     0.060 C 
BRANCH  12  13
HETATM   13  C   UNL     1      13.826  54.695  46.911  1.00  0.00    -0.029 A 
HETATM   14  C   UNL     1      14.432  54.272  48.138  1.00  0.00    -0.002 A 
HETATM   15  C   UNL     1      14.469  55.377  48.988  1.00  0.00     0.042 A 
HETATM   16  C   UNL     1      14.951  53.047  48.608  1.00  0.00     0.014 A 
HETATM   17  C   UNL     1      14.996  55.321  50.283  1.00  0.00     0.030 A 
HETATM   18  N   UNL     1      13.917  56.434  48.304  1.00  0.00    -0.365 N 
HETATM   19  C   UNL     1      15.502  54.096  50.725  1.00  0.00     0.002 A 
HETATM   20  C   UNL     1      15.482  52.973  49.902  1.00  0.00     0.001 A 
HETATM   21  H   UNL     1      13.821  57.369  48.678  1.00  0.00     0.165 HD
HETATM   22  C   UNL     1      13.524  56.035  47.054  1.00  0.00     0.096 A 
ENDBRANCH  12  13
ENDBRANCH  11  12
ENDBRANCH   8  11
ENDBRANCH   5   7
BRANCH   3  23
HETATM   23  C   UNL     1      18.588  49.917  47.468  1.00  0.00     0.197 C 
HETATM   24  C   UNL     1      19.650  51.054  47.455  1.00  0.00     0.017 C 
HETATM   25  C   UNL     1      19.271  52.202  48.412  1.00  0.00     0.011 C 
HETATM   26  C   UNL     1      20.997  50.460  47.924  1.00  0.00     0.011 C 
HETATM   27  C   UNL     1      19.128  51.673  49.846  1.00  0.00    -0.013 C 
HETATM   28  C   UNL     1      18.048  50.580  49.879  1.00  0.00     0.011 C 
HETATM   29  C   UNL     1      20.471  51.074  50.297  1.00  0.00     0.009 C 
HETATM   30  C   UNL     1      18.433  49.423  48.935  1.00  0.00     0.017 C 
HETATM   31  C   UNL     1      19.786  48.841  49.400  1.00  0.00     0.011 C 
HETATM   32  C   UNL     1      20.874  49.925  49.360  1.00  0.00    -0.013 C 
ENDBRANCH   3  23
BRANCH   1  33
HETATM   33  N   UNL     1      14.887  47.917  45.410  1.00  0.00    -0.276 N 
HETATM   34  N   UNL     1      13.822  48.066  46.209  1.00  0.00     0.005 NA
HETATM   35  N   UNL     1      12.839  47.338  45.698  1.00  0.00    -0.152 NA
HETATM   36  C   UNL     1      13.297  46.732  44.552  1.00  0.00     0.166 A 
HETATM   37  C   UNL     1      14.619  47.095  44.364  1.00  0.00     0.147 A 
BRANCH  36  38
HETATM   38  C   UNL     1      12.497  45.872  43.693  1.00  0.00     0.314 C 
HETATM   39  O   UNL     1      11.869  46.301  42.731  1.00  0.00    -0.257 OA
BRANCH  38  40
HETATM   40  O   UNL     1      12.519  44.568  44.086  1.00  0.00    -0.321 OA
HETATM   41  C   UNL     1      11.520  43.754  43.473  1.00  0.00     0.213 C 
ENDBRANCH  38  40
ENDBRANCH  36  38
ENDBRANCH   1  33
TORSDOF 8
ENDMDL
