MODEL 1
REMARK VINA RESULT:      -9.3      0.000      0.000
REMARK  3 active torsions:
REMARK  status: ('A' for Active; 'I' for Inactive)
REMARK    1  A    between atoms: C_6  and  C_7 
REMARK       I    between atoms: C_7  and  N_8 
REMARK    2  A    between atoms: N_8  and  C_9 
REMARK    3  A    between atoms: N_12  and  C_13 
ROOT
HETATM    1  C   UNL     1      25.165  45.232  51.014  1.00  0.00     0.177 C 
HETATM    2  C   UNL     1      25.096  46.714  50.586  1.00  0.00     0.248 C 
HETATM    3  O   UNL     1      25.886  47.519  51.083  1.00  0.00    -0.271 OA
HETATM    4  N   UNL     1      24.071  46.974  49.652  1.00  0.00    -0.299 N 
HETATM    5  C   UNL     1      23.330  45.830  49.125  1.00  0.00     0.134 C 
HETATM    6  C   UNL     1      24.277  44.719  48.688  1.00  0.00     0.023 C 
HETATM    7  C   UNL     1      25.250  44.317  49.794  1.00  0.00     0.036 C 
ENDROOT
BRANCH   1   8
HETATM    8  N   UNL     1      26.302  45.032  51.899  1.00  0.00    -0.344 N 
HETATM    9  C   UNL     1      26.164  44.534  53.170  1.00  0.00     0.253 C 
HETATM   10  O   UNL     1      25.106  44.134  53.639  1.00  0.00    -0.268 OA
HETATM   11  H   UNL     1      27.194  45.404  51.585  1.00  0.00     0.163 HD
BRANCH   9  12
HETATM   12  C   UNL     1      27.424  44.473  53.957  1.00  0.00     0.043 A 
HETATM   13  C   UNL     1      27.856  45.589  54.704  1.00  0.00    -0.045 A 
HETATM   14  C   UNL     1      29.075  45.507  55.397  1.00  0.00     0.014 A 
HETATM   15  C   UNL     1      27.075  46.873  54.773  1.00  0.00     0.049 C 
HETATM   16  C   UNL     1      29.836  44.333  55.386  1.00  0.00    -0.061 A 
HETATM   17  C   UNL     1      31.127  44.243  56.147  1.00  0.00     0.048 C 
HETATM   18  C   UNL     1      29.374  43.224  54.669  1.00  0.00     0.014 A 
HETATM   19  C   UNL     1      28.175  43.280  53.941  1.00  0.00    -0.045 A 
HETATM   20  C   UNL     1      27.717  42.061  53.188  1.00  0.00     0.049 C 
ENDBRANCH   9  12
ENDBRANCH   1   8
BRANCH   4  21
HETATM   21  C   UNL     1      23.728  48.295  49.319  1.00  0.00     0.154 A 
HETATM   22  N   UNL     1      22.521  48.832  49.519  1.00  0.00    -0.155 NA
HETATM   23  N   UNL     1      22.595  50.079  49.044  1.00  0.00    -0.283 N 
HETATM   24  C   UNL     1      21.436  50.935  49.102  1.00  0.00     0.179 C 
HETATM   25  C   UNL     1      23.819  50.394  48.544  1.00  0.00     0.115 A 
HETATM   26  C   UNL     1      24.578  49.259  48.702  1.00  0.00     0.071 A 
ENDBRANCH   4  21
TORSDOF 3
ENDMDL
MODEL 2
REMARK VINA RESULT:      -9.3      0.435      1.795
REMARK  3 active torsions:
REMARK  status: ('A' for Active; 'I' for Inactive)
REMARK    1  A    between atoms: C_6  and  C_7 
REMARK       I    between atoms: C_7  and  N_8 
REMARK    2  A    between atoms: N_8  and  C_9 
REMARK    3  A    between atoms: N_12  and  C_13 
ROOT
HETATM    1  C   UNL     1      25.492  45.030  51.141  1.00  0.00     0.177 C 
HETATM    2  C   UNL     1      25.471  46.508  50.694  1.00  0.00     0.248 C 
HETATM    3  O   UNL     1      26.300  47.289  51.168  1.00  0.00    -0.271 OA
HETATM    4  N   UNL     1      24.442  46.794  49.774  1.00  0.00    -0.299 N 
HETATM    5  C   UNL     1      23.649  45.672  49.275  1.00  0.00     0.134 C 
HETATM    6  C   UNL     1      24.547  44.520  48.838  1.00  0.00     0.023 C 
HETATM    7  C   UNL     1      25.522  44.097  49.933  1.00  0.00     0.036 C 
ENDROOT
BRANCH   1   8
HETATM    8  N   UNL     1      26.635  44.799  52.011  1.00  0.00    -0.344 N 
HETATM    9  C   UNL     1      26.497  44.389  53.313  1.00  0.00     0.253 C 
HETATM   10  O   UNL     1      25.426  44.098  53.829  1.00  0.00    -0.268 OA
HETATM   11  H   UNL     1      27.543  45.083  51.654  1.00  0.00     0.163 HD
BRANCH   9  12
HETATM   12  C   UNL     1      27.770  44.281  54.072  1.00  0.00     0.043 A 
HETATM   13  C   UNL     1      28.508  43.078  54.064  1.00  0.00    -0.045 A 
HETATM   14  C   UNL     1      29.682  43.001  54.831  1.00  0.00     0.014 A 
HETATM   15  C   UNL     1      28.078  41.866  53.283  1.00  0.00     0.049 C 
HETATM   16  C   UNL     1      30.143  44.101  55.562  1.00  0.00    -0.061 A 
HETATM   17  C   UNL     1      31.410  44.021  56.362  1.00  0.00     0.048 C 
HETATM   18  C   UNL     1      29.417  45.297  55.529  1.00  0.00     0.014 A 
HETATM   19  C   UNL     1      28.224  45.401  54.797  1.00  0.00    -0.045 A 
HETATM   20  C   UNL     1      27.479  46.709  54.790  1.00  0.00     0.049 C 
ENDBRANCH   9  12
ENDBRANCH   1   8
BRANCH   4  21
HETATM   21  C   UNL     1      24.144  48.123  49.428  1.00  0.00     0.154 A 
HETATM   22  N   UNL     1      22.952  48.699  49.615  1.00  0.00    -0.155 NA
HETATM   23  N   UNL     1      23.070  49.940  49.131  1.00  0.00    -0.283 N 
HETATM   24  C   UNL     1      21.938  50.832  49.173  1.00  0.00     0.179 C 
HETATM   25  C   UNL     1      24.306  50.212  48.639  1.00  0.00     0.115 A 
HETATM   26  C   UNL     1      25.029  49.055  48.812  1.00  0.00     0.071 A 
ENDBRANCH   4  21
TORSDOF 3
ENDMDL
MODEL 3
REMARK VINA RESULT:      -8.2      2.932      4.668
REMARK  3 active torsions:
REMARK  status: ('A' for Active; 'I' for Inactive)
REMARK    1  A    between atoms: C_6  and  C_7 
REMARK       I    between atoms: C_7  and  N_8 
REMARK    2  A    between atoms: N_8  and  C_9 
REMARK    3  A    between atoms: N_12  and  C_13 
ROOT
HETATM    1  C   UNL     1      26.850  44.833  51.047  1.00  0.00     0.177 C 
HETATM    2  C   UNL     1      26.177  43.516  50.604  1.00  0.00     0.248 C 
HETATM    3  O   UNL     1      26.575  42.450  51.080  1.00  0.00    -0.271 OA
HETATM    4  N   UNL     1      25.159  43.709  49.648  1.00  0.00    -0.299 N 
HETATM    5  C   UNL     1      24.792  45.084  49.317  1.00  0.00     0.134 C 
HETATM    6  C   UNL     1      24.599  45.916  50.580  1.00  0.00     0.023 C 
HETATM    7  C   UNL     1      25.808  45.848  51.510  1.00  0.00     0.036 C 
ENDROOT
BRANCH   1   8
HETATM    8  N   UNL     1      27.817  44.558  52.099  1.00  0.00    -0.344 N 
HETATM    9  C   UNL     1      27.447  44.379  53.408  1.00  0.00     0.253 C 
HETATM   10  O   UNL     1      26.285  44.346  53.794  1.00  0.00    -0.268 OA
HETATM   11  H   UNL     1      28.798  44.635  51.847  1.00  0.00     0.163 HD
BRANCH   9  12
HETATM   12  C   UNL     1      28.576  44.185  54.355  1.00  0.00     0.043 A 
HETATM   13  C   UNL     1      29.012  45.247  55.176  1.00  0.00    -0.045 A 
HETATM   14  C   UNL     1      30.111  45.037  56.025  1.00  0.00     0.014 A 
HETATM   15  C   UNL     1      28.361  46.603  55.165  1.00  0.00     0.049 C 
HETATM   16  C   UNL     1      30.745  43.792  56.093  1.00  0.00    -0.061 A 
HETATM   17  C   UNL     1      31.906  43.566  57.018  1.00  0.00     0.048 C 
HETATM   18  C   UNL     1      30.276  42.740  55.298  1.00  0.00     0.014 A 
HETATM   19  C   UNL     1      29.198  42.922  54.417  1.00  0.00    -0.045 A 
HETATM   20  C   UNL     1      28.727  41.761  53.585  1.00  0.00     0.049 C 
ENDBRANCH   9  12
ENDBRANCH   1   8
BRANCH   4  21
HETATM   21  C   UNL     1      24.591  42.610  48.980  1.00  0.00     0.154 A 
HETATM   22  N   UNL     1      25.273  41.777  48.189  1.00  0.00    -0.155 NA
HETATM   23  N   UNL     1      24.376  40.900  47.727  1.00  0.00    -0.283 N 
HETATM   24  C   UNL     1      24.797  39.857  46.824  1.00  0.00     0.179 C 
HETATM   25  C   UNL     1      23.119  41.116  48.196  1.00  0.00     0.115 A 
HETATM   26  C   UNL     1      23.220  42.220  49.008  1.00  0.00     0.071 A 
ENDBRANCH   4  21
TORSDOF 3
ENDMDL
MODEL 4
REMARK VINA RESULT:      -7.9      4.081      6.891
REMARK  3 active torsions:
REMARK  status: ('A' for Active; 'I' for Inactive)
REMARK    1  A    between atoms: C_6  and  C_7 
REMARK       I    between atoms: C_7  and  N_8 
REMARK    2  A    between atoms: N_8  and  C_9 
REMARK    3  A    between atoms: N_12  and  C_13 
ROOT
HETATM    1  C   UNL     1      26.141  42.559  50.701  1.00  0.00     0.177 C 
HETATM    2  C   UNL     1      26.724  41.137  50.546  1.00  0.00     0.248 C 
HETATM    3  O   UNL     1      27.550  40.736  51.368  1.00  0.00    -0.271 OA
HETATM    4  N   UNL     1      26.230  40.456  49.414  1.00  0.00    -0.299 N 
HETATM    5  C   UNL     1      25.169  41.103  48.645  1.00  0.00     0.134 C 
HETATM    6  C   UNL     1      24.069  41.624  49.563  1.00  0.00     0.023 C 
HETATM    7  C   UNL     1      24.615  42.527  50.667  1.00  0.00     0.036 C 
ENDROOT
BRANCH   1   8
HETATM    8  N   UNL     1      26.625  43.153  51.937  1.00  0.00    -0.344 N 
HETATM    9  C   UNL     1      27.540  44.176  51.951  1.00  0.00     0.253 C 
HETATM   10  O   UNL     1      27.959  44.734  50.946  1.00  0.00    -0.268 OA
HETATM   11  H   UNL     1      26.359  42.688  52.801  1.00  0.00     0.163 HD
BRANCH   9  12
HETATM   12  C   UNL     1      27.979  44.603  53.306  1.00  0.00     0.043 A 
HETATM   13  C   UNL     1      27.267  45.599  54.007  1.00  0.00    -0.045 A 
HETATM   14  C   UNL     1      27.740  46.007  55.266  1.00  0.00     0.014 A 
HETATM   15  C   UNL     1      26.033  46.259  53.454  1.00  0.00     0.049 C 
HETATM   16  C   UNL     1      28.871  45.417  55.840  1.00  0.00    -0.061 A 
HETATM   17  C   UNL     1      29.359  45.841  57.195  1.00  0.00     0.048 C 
HETATM   18  C   UNL     1      29.542  44.405  55.146  1.00  0.00     0.014 A 
HETATM   19  C   UNL     1      29.115  43.992  53.874  1.00  0.00    -0.045 A 
HETATM   20  C   UNL     1      29.868  42.898  53.167  1.00  0.00     0.049 C 
ENDBRANCH   9  12
ENDBRANCH   1   8
BRANCH   4  21
HETATM   21  C   UNL     1      26.809  39.244  49.002  1.00  0.00     0.154 A 
HETATM   22  N   UNL     1      27.651  39.125  47.971  1.00  0.00    -0.155 NA
HETATM   23  N   UNL     1      27.944  37.823  47.891  1.00  0.00    -0.283 N 
HETATM   24  C   UNL     1      28.835  37.355  46.858  1.00  0.00     0.179 C 
HETATM   25  C   UNL     1      27.333  37.073  48.844  1.00  0.00     0.115 A 
HETATM   26  C   UNL     1      26.586  37.961  49.581  1.00  0.00     0.071 A 
ENDBRANCH   4  21
TORSDOF 3
ENDMDL
MODEL 5
REMARK VINA RESULT:      -7.9      2.547      2.993
REMARK  3 active torsions:
REMARK  status: ('A' for Active; 'I' for Inactive)
REMARK    1  A    between atoms: C_6  and  C_7 
REMARK       I    between atoms: C_7  and  N_8 
REMARK    2  A    between atoms: N_8  and  C_9 
REMARK    3  A    between atoms: N_12  and  C_13 
ROOT
HETATM    1  C   UNL     1      25.360  42.839  51.434  1.00  0.00     0.177 C 
HETATM    2  C   UNL     1      24.534  44.010  50.857  1.00  0.00     0.248 C 
HETATM    3  O   UNL     1      24.595  45.113  51.405  1.00  0.00    -0.271 OA
HETATM    4  N   UNL     1      23.760  43.643  49.737  1.00  0.00    -0.299 N 
HETATM    5  C   UNL     1      23.939  42.294  49.203  1.00  0.00     0.134 C 
HETATM    6  C   UNL     1      25.418  41.959  49.050  1.00  0.00     0.023 C 
HETATM    7  C   UNL     1      26.199  42.177  50.344  1.00  0.00     0.036 C 
ENDROOT
BRANCH   1   8
HETATM    8  N   UNL     1      26.198  43.321  52.520  1.00  0.00    -0.344 N 
HETATM    9  C   UNL     1      27.392  43.959  52.299  1.00  0.00     0.253 C 
HETATM   10  O   UNL     1      27.815  44.257  51.190  1.00  0.00    -0.268 OA
HETATM   11  H   UNL     1      25.927  43.047  53.461  1.00  0.00     0.163 HD
BRANCH   9  12
HETATM   12  C   UNL     1      28.150  44.311  53.529  1.00  0.00     0.043 A 
HETATM   13  C   UNL     1      27.805  45.457  54.278  1.00  0.00    -0.045 A 
HETATM   14  C   UNL     1      28.574  45.780  55.408  1.00  0.00     0.014 A 
HETATM   15  C   UNL     1      26.661  46.359  53.905  1.00  0.00     0.049 C 
HETATM   16  C   UNL     1      29.638  44.969  55.816  1.00  0.00    -0.061 A 
HETATM   17  C   UNL     1      30.443  45.307  57.038  1.00  0.00     0.048 C 
HETATM   18  C   UNL     1      29.942  43.817  55.082  1.00  0.00     0.014 A 
HETATM   19  C   UNL     1      29.214  43.479  53.931  1.00  0.00    -0.045 A 
HETATM   20  C   UNL     1      29.576  42.229  53.175  1.00  0.00     0.049 C 
ENDBRANCH   9  12
ENDBRANCH   1   8
BRANCH   4  21
HETATM   21  C   UNL     1      22.791  44.521  49.221  1.00  0.00     0.154 A 
HETATM   22  N   UNL     1      21.480  44.266  49.201  1.00  0.00    -0.155 NA
HETATM   23  N   UNL     1      20.914  45.322  48.608  1.00  0.00    -0.283 N 
HETATM   24  C   UNL     1      19.485  45.354  48.419  1.00  0.00     0.179 C 
HETATM   25  C   UNL     1      21.808  46.279  48.244  1.00  0.00     0.115 A 
HETATM   26  C   UNL     1      23.036  45.791  48.623  1.00  0.00     0.071 A 
ENDBRANCH   4  21
TORSDOF 3
ENDMDL
MODEL 6
REMARK VINA RESULT:      -7.9      1.481      2.491
REMARK  3 active torsions:
REMARK  status: ('A' for Active; 'I' for Inactive)
REMARK    1  A    between atoms: C_6  and  C_7 
REMARK       I    between atoms: C_7  and  N_8 
REMARK    2  A    between atoms: N_8  and  C_9 
REMARK    3  A    between atoms: N_12  and  C_13 
ROOT
HETATM    1  C   UNL     1      24.062  45.160  49.764  1.00  0.00     0.177 C 
HETATM    2  C   UNL     1      24.009  46.693  49.574  1.00  0.00     0.248 C 
HETATM    3  O   UNL     1      24.883  47.391  50.092  1.00  0.00    -0.271 OA
HETATM    4  N   UNL     1      22.900  47.119  48.815  1.00  0.00    -0.299 N 
HETATM    5  C   UNL     1      22.057  46.088  48.212  1.00  0.00     0.134 C 
HETATM    6  C   UNL     1      22.902  45.034  47.506  1.00  0.00     0.023 C 
HETATM    7  C   UNL     1      23.973  44.443  48.420  1.00  0.00     0.036 C 
ENDROOT
BRANCH   1   8
HETATM    8  N   UNL     1      25.279  44.799  50.473  1.00  0.00    -0.344 N 
HETATM    9  C   UNL     1      25.295  43.862  51.475  1.00  0.00     0.253 C 
HETATM   10  O   UNL     1      24.325  43.191  51.801  1.00  0.00    -0.268 OA
HETATM   11  H   UNL     1      26.101  45.367  50.286  1.00  0.00     0.163 HD
BRANCH   9  12
HETATM   12  C   UNL     1      26.613  43.679  52.138  1.00  0.00     0.043 A 
HETATM   13  C   UNL     1      27.577  42.809  51.585  1.00  0.00    -0.045 A 
HETATM   14  C   UNL     1      28.793  42.628  52.267  1.00  0.00     0.014 A 
HETATM   15  C   UNL     1      27.350  42.050  50.307  1.00  0.00     0.049 C 
HETATM   16  C   UNL     1      29.069  43.321  53.450  1.00  0.00    -0.061 A 
HETATM   17  C   UNL     1      30.379  43.142  54.162  1.00  0.00     0.048 C 
HETATM   18  C   UNL     1      28.116  44.207  53.964  1.00  0.00     0.014 A 
HETATM   19  C   UNL     1      26.879  44.391  53.325  1.00  0.00    -0.045 A 
HETATM   20  C   UNL     1      25.886  45.356  53.914  1.00  0.00     0.049 C 
ENDBRANCH   9  12
ENDBRANCH   1   8
BRANCH   4  21
HETATM   21  C   UNL     1      22.579  48.484  48.725  1.00  0.00     0.154 A 
HETATM   22  N   UNL     1      21.492  49.037  49.270  1.00  0.00    -0.155 NA
HETATM   23  N   UNL     1      21.537  50.331  48.934  1.00  0.00    -0.283 N 
HETATM   24  C   UNL     1      20.485  51.217  49.366  1.00  0.00     0.179 C 
HETATM   25  C   UNL     1      22.628  50.658  48.193  1.00  0.00     0.115 A 
HETATM   26  C   UNL     1      23.325  49.483  48.034  1.00  0.00     0.071 A 
ENDBRANCH   4  21
TORSDOF 3
ENDMDL
MODEL 7
REMARK VINA RESULT:      -7.9      4.226      6.601
REMARK  3 active torsions:
REMARK  status: ('A' for Active; 'I' for Inactive)
REMARK    1  A    between atoms: C_6  and  C_7 
REMARK       I    between atoms: C_7  and  N_8 
REMARK    2  A    between atoms: N_8  and  C_9 
REMARK    3  A    between atoms: N_12  and  C_13 
ROOT
HETATM    1  C   UNL     1      27.638  43.738  51.201  1.00  0.00     0.177 C 
HETATM    2  C   UNL     1      27.912  42.233  50.984  1.00  0.00     0.248 C 
HETATM    3  O   UNL     1      28.689  41.650  51.743  1.00  0.00    -0.271 OA
HETATM    4  N   UNL     1      27.222  41.699  49.876  1.00  0.00    -0.299 N 
HETATM    5  C   UNL     1      26.268  42.568  49.190  1.00  0.00     0.134 C 
HETATM    6  C   UNL     1      25.354  43.271  50.187  1.00  0.00     0.023 C 
HETATM    7  C   UNL     1      26.137  44.013  51.268  1.00  0.00     0.036 C 
ENDROOT
BRANCH   1   8
HETATM    8  N   UNL     1      28.307  44.185  52.413  1.00  0.00    -0.344 N 
HETATM    9  C   UNL     1      27.825  43.903  53.666  1.00  0.00     0.253 C 
HETATM   10  O   UNL     1      26.855  43.186  53.881  1.00  0.00    -0.268 OA
HETATM   11  H   UNL     1      29.080  44.834  52.292  1.00  0.00     0.163 HD
BRANCH   9  12
HETATM   12  C   UNL     1      28.596  44.508  54.783  1.00  0.00     0.043 A 
HETATM   13  C   UNL     1      29.810  43.929  55.210  1.00  0.00    -0.045 A 
HETATM   14  C   UNL     1      30.486  44.505  56.299  1.00  0.00     0.014 A 
HETATM   15  C   UNL     1      30.402  42.709  54.560  1.00  0.00     0.049 C 
HETATM   16  C   UNL     1      29.995  45.652  56.931  1.00  0.00    -0.061 A 
HETATM   17  C   UNL     1      30.733  46.276  58.080  1.00  0.00     0.048 C 
HETATM   18  C   UNL     1      28.808  46.233  56.471  1.00  0.00     0.014 A 
HETATM   19  C   UNL     1      28.091  45.668  55.404  1.00  0.00    -0.045 A 
HETATM   20  C   UNL     1      26.821  46.330  54.943  1.00  0.00     0.049 C 
ENDBRANCH   9  12
ENDBRANCH   1   8
BRANCH   4  21
HETATM   21  C   UNL     1      27.518  40.408  49.406  1.00  0.00     0.154 A 
HETATM   22  N   UNL     1      26.911  39.296  49.830  1.00  0.00    -0.155 NA
HETATM   23  N   UNL     1      27.495  38.291  49.170  1.00  0.00    -0.283 N 
HETATM   24  C   UNL     1      27.068  36.935  49.413  1.00  0.00     0.179 C 
HETATM   25  C   UNL     1      28.464  38.700  48.310  1.00  0.00     0.115 A 
HETATM   26  C   UNL     1      28.509  40.068  48.440  1.00  0.00     0.071 A 
ENDBRANCH   4  21
TORSDOF 3
ENDMDL
MODEL 8
REMARK VINA RESULT:      -7.5      3.368      9.529
REMARK  3 active torsions:
REMARK  status: ('A' for Active; 'I' for Inactive)
REMARK    1  A    between atoms: C_6  and  C_7 
REMARK       I    between atoms: C_7  and  N_8 
REMARK    2  A    between atoms: N_8  and  C_9 
REMARK    3  A    between atoms: N_12  and  C_13 
ROOT
HETATM    1  C   UNL     1      23.067  49.765  48.805  1.00  0.00     0.177 C 
HETATM    2  C   UNL     1      23.514  48.329  49.158  1.00  0.00     0.248 C 
HETATM    3  O   UNL     1      22.669  47.432  49.198  1.00  0.00    -0.271 OA
HETATM    4  N   UNL     1      24.895  48.228  49.424  1.00  0.00    -0.299 N 
HETATM    5  C   UNL     1      25.715  49.418  49.204  1.00  0.00     0.134 C 
HETATM    6  C   UNL     1      25.406  50.052  47.853  1.00  0.00     0.023 C 
HETATM    7  C   UNL     1      23.917  50.336  47.673  1.00  0.00     0.036 C 
ENDROOT
BRANCH   1   8
HETATM    8  N   UNL     1      21.656  49.764  48.452  1.00  0.00    -0.344 N 
HETATM    9  C   UNL     1      20.679  50.157  49.332  1.00  0.00     0.253 C 
HETATM   10  O   UNL     1      20.903  50.620  50.443  1.00  0.00    -0.268 OA
HETATM   11  H   UNL     1      21.408  49.332  47.566  1.00  0.00     0.163 HD
BRANCH   9  12
HETATM   12  C   UNL     1      19.288  50.015  48.825  1.00  0.00     0.043 A 
HETATM   13  C   UNL     1      18.596  51.134  48.314  1.00  0.00    -0.045 A 
HETATM   14  C   UNL     1      17.268  50.968  47.887  1.00  0.00     0.014 A 
HETATM   15  C   UNL     1      19.214  52.502  48.226  1.00  0.00     0.049 C 
HETATM   16  C   UNL     1      16.646  49.715  47.926  1.00  0.00    -0.061 A 
HETATM   17  C   UNL     1      15.234  49.539  47.448  1.00  0.00     0.048 C 
HETATM   18  C   UNL     1      17.360  48.611  48.403  1.00  0.00     0.014 A 
HETATM   19  C   UNL     1      18.679  48.744  48.865  1.00  0.00    -0.045 A 
HETATM   20  C   UNL     1      19.408  47.527  49.365  1.00  0.00     0.049 C 
ENDBRANCH   9  12
ENDBRANCH   1   8
BRANCH   4  21
HETATM   21  C   UNL     1      25.432  47.048  49.967  1.00  0.00     0.154 A 
HETATM   22  N   UNL     1      25.782  45.981  49.244  1.00  0.00    -0.155 NA
HETATM   23  N   UNL     1      26.213  45.072  50.126  1.00  0.00    -0.283 N 
HETATM   24  C   UNL     1      26.660  43.783  49.660  1.00  0.00     0.179 C 
HETATM   25  C   UNL     1      26.171  45.507  51.412  1.00  0.00     0.115 A 
HETATM   26  C   UNL     1      25.666  46.784  51.348  1.00  0.00     0.071 A 
ENDBRANCH   4  21
TORSDOF 3
ENDMDL
MODEL 9
REMARK VINA RESULT:      -7.4      3.360      7.683
REMARK  3 active torsions:
REMARK  status: ('A' for Active; 'I' for Inactive)
REMARK    1  A    between atoms: C_6  and  C_7 
REMARK       I    between atoms: C_7  and  N_8 
REMARK    2  A    between atoms: N_8  and  C_9 
REMARK    3  A    between atoms: N_12  and  C_13 
ROOT
HETATM    1  C   UNL     1      25.741  44.663  52.124  1.00  0.00     0.177 C 
HETATM    2  C   UNL     1      27.151  44.567  52.747  1.00  0.00     0.248 C 
HETATM    3  O   UNL     1      27.976  43.801  52.245  1.00  0.00    -0.271 OA
HETATM    4  N   UNL     1      27.314  45.391  53.879  1.00  0.00    -0.299 N 
HETATM    5  C   UNL     1      26.219  46.297  54.220  1.00  0.00     0.134 C 
HETATM    6  C   UNL     1      25.733  47.053  52.989  1.00  0.00     0.023 C 
HETATM    7  C   UNL     1      25.371  46.116  51.839  1.00  0.00     0.036 C 
ENDROOT
BRANCH   1   8
HETATM    8  N   UNL     1      25.687  43.861  50.912  1.00  0.00    -0.344 N 
HETATM    9  C   UNL     1      24.671  42.971  50.665  1.00  0.00     0.253 C 
HETATM   10  O   UNL     1      23.689  42.836  51.383  1.00  0.00    -0.268 OA
HETATM   11  H   UNL     1      26.506  43.886  50.312  1.00  0.00     0.163 HD
BRANCH   9  12
HETATM   12  C   UNL     1      24.823  42.182  49.415  1.00  0.00     0.043 A 
HETATM   13  C   UNL     1      24.245  42.634  48.209  1.00  0.00    -0.045 A 
HETATM   14  C   UNL     1      24.372  41.836  47.059  1.00  0.00     0.014 A 
HETATM   15  C   UNL     1      23.479  43.924  48.108  1.00  0.00     0.049 C 
HETATM   16  C   UNL     1      25.089  40.635  47.087  1.00  0.00    -0.061 A 
HETATM   17  C   UNL     1      25.240  39.798  45.850  1.00  0.00     0.048 C 
HETATM   18  C   UNL     1      25.686  40.221  48.283  1.00  0.00     0.014 A 
HETATM   19  C   UNL     1      25.555  40.978  49.458  1.00  0.00    -0.045 A 
HETATM   20  C   UNL     1      26.217  40.494  50.719  1.00  0.00     0.049 C 
ENDBRANCH   9  12
ENDBRANCH   1   8
BRANCH   4  21
HETATM   21  C   UNL     1      28.454  45.269  54.692  1.00  0.00     0.154 A 
HETATM   22  N   UNL     1      29.140  44.134  54.859  1.00  0.00    -0.155 NA
HETATM   23  N   UNL     1      30.120  44.427  55.720  1.00  0.00    -0.283 N 
HETATM   24  C   UNL     1      31.046  43.398  56.124  1.00  0.00     0.179 C 
HETATM   25  C   UNL     1      30.116  45.725  56.121  1.00  0.00     0.115 A 
HETATM   26  C   UNL     1      29.046  46.301  55.477  1.00  0.00     0.071 A 
ENDBRANCH   4  21
TORSDOF 3
ENDMDL
MODEL 10
REMARK VINA RESULT:      -7.2      5.075      7.682
REMARK  3 active torsions:
REMARK  status: ('A' for Active; 'I' for Inactive)
REMARK    1  A    between atoms: C_6  and  C_7 
REMARK       I    between atoms: C_7  and  N_8 
REMARK    2  A    between atoms: N_8  and  C_9 
REMARK    3  A    between atoms: N_12  and  C_13 
ROOT
HETATM    1  C   UNL     1      19.864  48.352  49.489  1.00  0.00     0.177 C 
HETATM    2  C   UNL     1      19.160  49.558  48.829  1.00  0.00     0.248 C 
HETATM    3  O   UNL     1      19.832  50.537  48.499  1.00  0.00    -0.271 OA
HETATM    4  N   UNL     1      17.766  49.385  48.705  1.00  0.00    -0.299 N 
HETATM    5  C   UNL     1      17.210  48.084  49.072  1.00  0.00     0.134 C 
HETATM    6  C   UNL     1      18.017  46.950  48.450  1.00  0.00     0.023 C 
HETATM    7  C   UNL     1      19.506  47.054  48.771  1.00  0.00     0.036 C 
ENDROOT
BRANCH   1   8
HETATM    8  N   UNL     1      21.302  48.570  49.492  1.00  0.00    -0.344 N 
HETATM    9  C   UNL     1      22.105  48.192  48.445  1.00  0.00     0.253 C 
HETATM   10  O   UNL     1      21.685  47.728  47.393  1.00  0.00    -0.268 OA
HETATM   11  H   UNL     1      21.712  48.894  50.364  1.00  0.00     0.163 HD
BRANCH   9  12
HETATM   12  C   UNL     1      23.558  48.422  48.657  1.00  0.00     0.043 A 
HETATM   13  C   UNL     1      24.359  47.428  49.259  1.00  0.00    -0.045 A 
HETATM   14  C   UNL     1      25.719  47.702  49.483  1.00  0.00     0.014 A 
HETATM   15  C   UNL     1      23.814  46.094  49.690  1.00  0.00     0.049 C 
HETATM   16  C   UNL     1      26.288  48.917  49.086  1.00  0.00    -0.061 A 
HETATM   17  C   UNL     1      27.746  49.195  49.309  1.00  0.00     0.048 C 
HETATM   18  C   UNL     1      25.486  49.876  48.458  1.00  0.00     0.014 A 
HETATM   19  C   UNL     1      24.117  49.648  48.244  1.00  0.00    -0.045 A 
HETATM   20  C   UNL     1      23.296  50.708  47.561  1.00  0.00     0.049 C 
ENDBRANCH   9  12
ENDBRANCH   1   8
BRANCH   4  21
HETATM   21  C   UNL     1      16.944  50.461  48.327  1.00  0.00     0.154 A 
HETATM   22  N   UNL     1      16.567  50.713  47.070  1.00  0.00    -0.155 NA
HETATM   23  N   UNL     1      15.829  51.826  47.130  1.00  0.00    -0.283 N 
HETATM   24  C   UNL     1      15.271  52.378  45.921  1.00  0.00     0.179 C 
HETATM   25  C   UNL     1      15.692  52.316  48.390  1.00  0.00     0.115 A 
HETATM   26  C   UNL     1      16.406  51.457  49.192  1.00  0.00     0.071 A 
ENDBRANCH   4  21
TORSDOF 3
ENDMDL
