MODEL 1
REMARK VINA RESULT:     -10.0      0.000      0.000
REMARK  8 active torsions:
REMARK  status: ('A' for Active; 'I' for Inactive)
REMARK    1  A    between atoms: O_2  and  C_3 
REMARK    2  A    between atoms: C_4  and  O_5 
REMARK    3  A    between atoms: C_8  and  C_9 
REMARK    4  A    between atoms: C_13  and  C_14 
REMARK       I    between atoms: C_14  and  N_15 
REMARK    5  A    between atoms: N_15  and  C_16 
REMARK    6  A    between atoms: C_20  and  C_21 
REMARK    7  A    between atoms: C_21  and  C_22 
REMARK    8  A    between atoms: C_22  and  C_23 
ROOT
HETATM    1  C   UNL     1      26.497  45.832  50.153  1.00  0.00     0.290 C 
HETATM    2  N   UNL     1      26.236  45.347  51.416  1.00  0.00    -0.149 N 
HETATM    3  O   UNL     1      27.299  45.351  49.359  1.00  0.00    -0.265 OA
HETATM    4  H   UNL     1      25.682  45.866  52.072  1.00  0.00     0.188 HD
ENDROOT
BRANCH   1   5
HETATM    5  C   UNL     1      25.705  47.041  49.811  1.00  0.00     0.147 A 
HETATM    6  N   UNL     1      26.298  48.166  49.379  1.00  0.00    -0.169 NA
HETATM    7  N   UNL     1      25.293  49.000  49.093  1.00  0.00    -0.277 N 
HETATM    8  C   UNL     1      24.045  48.495  49.347  1.00  0.00     0.063 A 
HETATM    9  H   UNL     1      25.530  49.901  48.695  1.00  0.00     0.189 HD
HETATM   10  C   UNL     1      24.289  47.218  49.824  1.00  0.00     0.071 A 
BRANCH   8  11
HETATM   11  C   UNL     1      22.800  49.213  49.059  1.00  0.00    -0.005 A 
HETATM   12  C   UNL     1      21.569  48.541  48.975  1.00  0.00     0.053 A 
HETATM   13  C   UNL     1      20.374  49.241  48.751  1.00  0.00     0.102 A 
HETATM   14  C   UNL     1      20.407  50.639  48.602  1.00  0.00     0.101 A 
HETATM   15  C   UNL     1      21.631  51.309  48.648  1.00  0.00     0.040 A 
HETATM   16  C   UNL     1      22.815  50.601  48.879  1.00  0.00     0.017 A 
BRANCH  13  17
HETATM   17  O   UNL     1      19.133  48.659  48.672  1.00  0.00    -0.353 OA
HETATM   18  C   UNL     1      18.533  48.204  49.876  1.00  0.00     0.210 C 
ENDBRANCH  13  17
BRANCH  14  19
HETATM   19  O   UNL     1      19.205  51.264  48.381  1.00  0.00    -0.353 OA
HETATM   20  C   UNL     1      18.698  52.049  49.453  1.00  0.00     0.210 C 
ENDBRANCH  14  19
ENDBRANCH   8  11
ENDBRANCH   1   5
BRANCH   2  21
HETATM   21  C   UNL     1      26.707  44.168  51.911  1.00  0.00     0.747 A 
HETATM   22  N   UNL     1      26.260  42.939  51.667  1.00  0.00     0.020 NA
HETATM   23  N   UNL     1      27.042  42.191  52.448  1.00  0.00    -0.248 N 
HETATM   24  H   UNL     1      26.908  41.185  52.465  1.00  0.00     0.191 HD
HETATM   25  C   UNL     1      27.937  42.960  53.135  1.00  0.00     0.140 A 
HETATM   26  N   UNL     1      27.735  44.223  52.816  1.00  0.00    -0.046 NA
BRANCH  25  27
HETATM   27  C   UNL     1      28.917  42.404  54.107  1.00  0.00     0.085 C 
BRANCH  27  28
HETATM   28  C   UNL     1      30.211  43.221  54.161  1.00  0.00     0.046 C 
BRANCH  28  29
HETATM   29  C   UNL     1      30.406  43.884  55.501  1.00  0.00    -0.058 A 
HETATM   30  C   UNL     1      29.760  45.094  55.798  1.00  0.00     0.007 A 
HETATM   31  C   UNL     1      29.951  45.712  57.035  1.00  0.00     0.001 A 
HETATM   32  C   UNL     1      30.788  45.130  57.985  1.00  0.00     0.000 A 
HETATM   33  C   UNL     1      31.435  43.929  57.699  1.00  0.00     0.001 A 
HETATM   34  C   UNL     1      31.248  43.310  56.462  1.00  0.00     0.007 A 
ENDBRANCH  28  29
ENDBRANCH  27  28
ENDBRANCH  25  27
ENDBRANCH   2  21
TORSDOF 8
ENDMDL
MODEL 2
REMARK VINA RESULT:      -9.7      2.611     11.083
REMARK  8 active torsions:
REMARK  status: ('A' for Active; 'I' for Inactive)
REMARK    1  A    between atoms: O_2  and  C_3 
REMARK    2  A    between atoms: C_4  and  O_5 
REMARK    3  A    between atoms: C_8  and  C_9 
REMARK    4  A    between atoms: C_13  and  C_14 
REMARK       I    between atoms: C_14  and  N_15 
REMARK    5  A    between atoms: N_15  and  C_16 
REMARK    6  A    between atoms: C_20  and  C_21 
REMARK    7  A    between atoms: C_21  and  C_22 
REMARK    8  A    between atoms: C_22  and  C_23 
ROOT
HETATM    1  C   UNL     1      24.601  45.165  50.080  1.00  0.00     0.290 C 
HETATM    2  N   UNL     1      23.866  46.310  50.295  1.00  0.00    -0.149 N 
HETATM    3  O   UNL     1      24.650  44.540  49.025  1.00  0.00    -0.265 OA
HETATM    4  H   UNL     1      23.749  46.692  51.216  1.00  0.00     0.188 HD
ENDROOT
BRANCH   1   5
HETATM    5  C   UNL     1      25.359  44.718  51.276  1.00  0.00     0.147 A 
HETATM    6  N   UNL     1      24.911  43.718  52.054  1.00  0.00    -0.169 NA
HETATM    7  N   UNL     1      25.869  43.535  52.969  1.00  0.00    -0.277 N 
HETATM    8  C   UNL     1      26.931  44.394  52.861  1.00  0.00     0.063 A 
HETATM    9  H   UNL     1      25.747  42.777  53.630  1.00  0.00     0.189 HD
HETATM   10  C   UNL     1      26.616  45.181  51.766  1.00  0.00     0.071 A 
BRANCH   8  11
HETATM   11  C   UNL     1      28.116  44.339  53.721  1.00  0.00    -0.005 A 
HETATM   12  C   UNL     1      28.337  45.295  54.726  1.00  0.00     0.053 A 
HETATM   13  C   UNL     1      29.446  45.207  55.581  1.00  0.00     0.102 A 
HETATM   14  C   UNL     1      30.355  44.145  55.428  1.00  0.00     0.101 A 
HETATM   15  C   UNL     1      30.161  43.211  54.409  1.00  0.00     0.040 A 
HETATM   16  C   UNL     1      29.049  43.306  53.567  1.00  0.00     0.017 A 
BRANCH  13  17
HETATM   17  O   UNL     1      29.722  46.091  56.594  1.00  0.00    -0.353 OA
HETATM   18  C   UNL     1      28.842  46.123  57.708  1.00  0.00     0.210 C 
ENDBRANCH  13  17
BRANCH  14  19
HETATM   19  O   UNL     1      31.421  44.117  56.294  1.00  0.00    -0.353 OA
HETATM   20  C   UNL     1      31.457  43.032  57.213  1.00  0.00     0.210 C 
ENDBRANCH  14  19
ENDBRANCH   8  11
ENDBRANCH   1   5
BRANCH   2  21
HETATM   21  C   UNL     1      23.214  47.012  49.326  1.00  0.00     0.747 A 
HETATM   22  N   UNL     1      22.407  46.544  48.377  1.00  0.00     0.020 NA
HETATM   23  N   UNL     1      22.108  47.647  47.688  1.00  0.00    -0.248 N 
HETATM   24  H   UNL     1      21.497  47.576  46.881  1.00  0.00     0.191 HD
HETATM   25  C   UNL     1      22.720  48.745  48.221  1.00  0.00     0.140 A 
HETATM   26  N   UNL     1      23.437  48.363  49.258  1.00  0.00    -0.046 NA
BRANCH  25  27
HETATM   27  C   UNL     1      22.594  50.112  47.645  1.00  0.00     0.085 C 
BRANCH  27  28
HETATM   28  C   UNL     1      22.293  51.168  48.712  1.00  0.00     0.046 C 
BRANCH  28  29
HETATM   29  C   UNL     1      20.823  51.232  49.045  1.00  0.00    -0.058 A 
HETATM   30  C   UNL     1      20.285  50.417  50.051  1.00  0.00     0.007 A 
HETATM   31  C   UNL     1      18.922  50.468  50.349  1.00  0.00     0.001 A 
HETATM   32  C   UNL     1      18.086  51.334  49.646  1.00  0.00     0.000 A 
HETATM   33  C   UNL     1      18.612  52.147  48.643  1.00  0.00     0.001 A 
HETATM   34  C   UNL     1      19.973  52.095  48.341  1.00  0.00     0.007 A 
ENDBRANCH  28  29
ENDBRANCH  27  28
ENDBRANCH  25  27
ENDBRANCH   2  21
TORSDOF 8
ENDMDL
MODEL 3
REMARK VINA RESULT:      -9.6      1.779      2.698
REMARK  8 active torsions:
REMARK  status: ('A' for Active; 'I' for Inactive)
REMARK    1  A    between atoms: O_2  and  C_3 
REMARK    2  A    between atoms: C_4  and  O_5 
REMARK    3  A    between atoms: C_8  and  C_9 
REMARK    4  A    between atoms: C_13  and  C_14 
REMARK       I    between atoms: C_14  and  N_15 
REMARK    5  A    between atoms: N_15  and  C_16 
REMARK    6  A    between atoms: C_20  and  C_21 
REMARK    7  A    between atoms: C_21  and  C_22 
REMARK    8  A    between atoms: C_22  and  C_23 
ROOT
HETATM    1  C   UNL     1      25.560  48.478  49.268  1.00  0.00     0.290 C 
HETATM    2  N   UNL     1      25.177  47.225  49.694  1.00  0.00    -0.149 N 
HETATM    3  O   UNL     1      26.697  48.934  49.334  1.00  0.00    -0.265 OA
HETATM    4  H   UNL     1      24.209  46.964  49.751  1.00  0.00     0.188 HD
ENDROOT
BRANCH   1   5
HETATM    5  C   UNL     1      24.441  49.276  48.705  1.00  0.00     0.147 A 
HETATM    6  N   UNL     1      24.616  50.061  47.628  1.00  0.00    -0.169 NA
HETATM    7  N   UNL     1      23.402  50.552  47.357  1.00  0.00    -0.277 N 
HETATM    8  C   UNL     1      22.421  50.158  48.229  1.00  0.00     0.063 A 
HETATM    9  H   UNL     1      23.305  51.137  46.535  1.00  0.00     0.189 HD
HETATM   10  C   UNL     1      23.078  49.329  49.122  1.00  0.00     0.071 A 
BRANCH   8  11
HETATM   11  C   UNL     1      21.010  50.530  48.091  1.00  0.00    -0.005 A 
HETATM   12  C   UNL     1      20.105  49.724  47.381  1.00  0.00     0.053 A 
HETATM   13  C   UNL     1      18.745  50.059  47.297  1.00  0.00     0.102 A 
HETATM   14  C   UNL     1      18.279  51.224  47.931  1.00  0.00     0.101 A 
HETATM   15  C   UNL     1      19.179  52.049  48.608  1.00  0.00     0.040 A 
HETATM   16  C   UNL     1      20.531  51.701  48.690  1.00  0.00     0.017 A 
BRANCH  13  17
HETATM   17  O   UNL     1      17.799  49.316  46.637  1.00  0.00    -0.353 OA
HETATM   18  C   UNL     1      18.146  47.998  46.238  1.00  0.00     0.210 C 
ENDBRANCH  13  17
BRANCH  14  19
HETATM   19  O   UNL     1      16.939  51.498  47.808  1.00  0.00    -0.353 OA
HETATM   20  C   UNL     1      16.206  51.609  49.022  1.00  0.00     0.210 C 
ENDBRANCH  14  19
ENDBRANCH   8  11
ENDBRANCH   1   5
BRANCH   2  21
HETATM   21  C   UNL     1      26.032  46.245  50.100  1.00  0.00     0.747 A 
HETATM   22  N   UNL     1      26.825  45.485  49.350  1.00  0.00     0.020 NA
HETATM   23  N   UNL     1      27.381  44.674  50.253  1.00  0.00    -0.248 N 
HETATM   24  H   UNL     1      28.041  43.968  49.943  1.00  0.00     0.191 HD
HETATM   25  C   UNL     1      26.932  44.953  51.512  1.00  0.00     0.140 A 
HETATM   26  N   UNL     1      26.064  45.942  51.437  1.00  0.00    -0.046 NA
BRANCH  25  27
HETATM   27  C   UNL     1      27.355  44.191  52.718  1.00  0.00     0.085 C 
BRANCH  27  28
HETATM   28  C   UNL     1      27.526  45.092  53.944  1.00  0.00     0.046 C 
BRANCH  28  29
HETATM   29  C   UNL     1      28.763  44.743  54.733  1.00  0.00    -0.058 A 
HETATM   30  C   UNL     1      29.255  45.621  55.711  1.00  0.00     0.007 A 
HETATM   31  C   UNL     1      30.408  45.302  56.431  1.00  0.00     0.001 A 
HETATM   32  C   UNL     1      31.078  44.106  56.182  1.00  0.00     0.000 A 
HETATM   33  C   UNL     1      30.598  43.229  55.212  1.00  0.00     0.001 A 
HETATM   34  C   UNL     1      29.448  43.546  54.488  1.00  0.00     0.007 A 
ENDBRANCH  28  29
ENDBRANCH  27  28
ENDBRANCH  25  27
ENDBRANCH   2  21
TORSDOF 8
ENDMDL
MODEL 4
REMARK VINA RESULT:      -9.2      1.289      1.588
REMARK  8 active torsions:
REMARK  status: ('A' for Active; 'I' for Inactive)
REMARK    1  A    between atoms: O_2  and  C_3 
REMARK    2  A    between atoms: C_4  and  O_5 
REMARK    3  A    between atoms: C_8  and  C_9 
REMARK    4  A    between atoms: C_13  and  C_14 
REMARK       I    between atoms: C_14  and  N_15 
REMARK    5  A    between atoms: N_15  and  C_16 
REMARK    6  A    between atoms: C_20  and  C_21 
REMARK    7  A    between atoms: C_21  and  C_22 
REMARK    8  A    between atoms: C_22  and  C_23 
ROOT
HETATM    1  C   UNL     1      26.158  45.136  50.066  1.00  0.00     0.290 C 
HETATM    2  N   UNL     1      25.961  44.205  51.062  1.00  0.00    -0.149 N 
HETATM    3  O   UNL     1      27.241  45.424  49.567  1.00  0.00    -0.265 OA
HETATM    4  H   UNL     1      25.078  44.119  51.532  1.00  0.00     0.188 HD
ENDROOT
BRANCH   1   5
HETATM    5  C   UNL     1      24.906  45.803  49.628  1.00  0.00     0.147 A 
HETATM    6  N   UNL     1      23.834  45.091  49.239  1.00  0.00    -0.169 NA
HETATM    7  N   UNL     1      22.883  46.000  48.999  1.00  0.00    -0.277 N 
HETATM    8  C   UNL     1      23.280  47.300  49.176  1.00  0.00     0.063 A 
HETATM    9  H   UNL     1      21.964  45.661  48.740  1.00  0.00     0.189 HD
HETATM   10  C   UNL     1      24.600  47.196  49.580  1.00  0.00     0.071 A 
BRANCH   8  11
HETATM   11  C   UNL     1      22.389  48.453  49.022  1.00  0.00    -0.005 A 
HETATM   12  C   UNL     1      21.034  48.292  48.685  1.00  0.00     0.053 A 
HETATM   13  C   UNL     1      20.174  49.397  48.590  1.00  0.00     0.102 A 
HETATM   14  C   UNL     1      20.675  50.688  48.832  1.00  0.00     0.101 A 
HETATM   15  C   UNL     1      22.028  50.858  49.132  1.00  0.00     0.040 A 
HETATM   16  C   UNL     1      22.874  49.749  49.230  1.00  0.00     0.017 A 
BRANCH  13  17
HETATM   17  O   UNL     1      18.838  49.320  48.283  1.00  0.00    -0.353 OA
HETATM   18  C   UNL     1      18.458  48.539  47.159  1.00  0.00     0.210 C 
ENDBRANCH  13  17
BRANCH  14  19
HETATM   19  O   UNL     1      19.783  51.726  48.720  1.00  0.00    -0.353 OA
HETATM   20  C   UNL     1      18.959  51.972  49.852  1.00  0.00     0.210 C 
ENDBRANCH  14  19
ENDBRANCH   8  11
ENDBRANCH   1   5
BRANCH   2  21
HETATM   21  C   UNL     1      26.913  43.348  51.526  1.00  0.00     0.747 A 
HETATM   22  N   UNL     1      27.399  42.260  50.932  1.00  0.00     0.020 NA
HETATM   23  N   UNL     1      28.244  41.787  51.850  1.00  0.00    -0.248 N 
HETATM   24  H   UNL     1      28.759  40.935  51.655  1.00  0.00     0.191 HD
HETATM   25  C   UNL     1      28.265  42.581  52.961  1.00  0.00     0.140 A 
HETATM   26  N   UNL     1      27.418  43.575  52.781  1.00  0.00    -0.046 NA
BRANCH  25  27
HETATM   27  C   UNL     1      29.092  42.286  54.162  1.00  0.00     0.085 C 
BRANCH  27  28
HETATM   28  C   UNL     1      30.351  43.155  54.229  1.00  0.00     0.046 C 
BRANCH  28  29
HETATM   29  C   UNL     1      30.465  43.886  55.543  1.00  0.00    -0.058 A 
HETATM   30  C   UNL     1      31.274  43.381  56.571  1.00  0.00     0.007 A 
HETATM   31  C   UNL     1      31.367  44.053  57.792  1.00  0.00     0.001 A 
HETATM   32  C   UNL     1      30.655  45.233  57.996  1.00  0.00     0.000 A 
HETATM   33  C   UNL     1      29.847  45.742  56.980  1.00  0.00     0.001 A 
HETATM   34  C   UNL     1      29.749  45.071  55.761  1.00  0.00     0.007 A 
ENDBRANCH  28  29
ENDBRANCH  27  28
ENDBRANCH  25  27
ENDBRANCH   2  21
TORSDOF 8
ENDMDL
MODEL 5
REMARK VINA RESULT:      -9.2      1.131      1.939
REMARK  8 active torsions:
REMARK  status: ('A' for Active; 'I' for Inactive)
REMARK    1  A    between atoms: O_2  and  C_3 
REMARK    2  A    between atoms: C_4  and  O_5 
REMARK    3  A    between atoms: C_8  and  C_9 
REMARK    4  A    between atoms: C_13  and  C_14 
REMARK       I    between atoms: C_14  and  N_15 
REMARK    5  A    between atoms: N_15  and  C_16 
REMARK    6  A    between atoms: C_20  and  C_21 
REMARK    7  A    between atoms: C_21  and  C_22 
REMARK    8  A    between atoms: C_22  and  C_23 
ROOT
HETATM    1  C   UNL     1      26.303  45.658  50.206  1.00  0.00     0.290 C 
HETATM    2  N   UNL     1      25.951  44.843  51.259  1.00  0.00    -0.149 N 
HETATM    3  O   UNL     1      27.368  45.614  49.598  1.00  0.00    -0.265 OA
HETATM    4  H   UNL     1      25.131  45.023  51.810  1.00  0.00     0.188 HD
ENDROOT
BRANCH   1   5
HETATM    5  C   UNL     1      25.251  46.644  49.847  1.00  0.00     0.147 A 
HETATM    6  N   UNL     1      25.501  47.964  49.851  1.00  0.00    -0.169 NA
HETATM    7  N   UNL     1      24.375  48.531  49.405  1.00  0.00    -0.277 N 
HETATM    8  C   UNL     1      23.362  47.648  49.134  1.00  0.00     0.063 A 
HETATM    9  H   UNL     1      24.373  49.536  49.281  1.00  0.00     0.189 HD
HETATM   10  C   UNL     1      23.910  46.409  49.422  1.00  0.00     0.071 A 
BRANCH   8  11
HETATM   11  C   UNL     1      22.062  48.043  48.585  1.00  0.00    -0.005 A 
HETATM   12  C   UNL     1      21.348  49.135  49.106  1.00  0.00     0.053 A 
HETATM   13  C   UNL     1      20.129  49.540  48.542  1.00  0.00     0.102 A 
HETATM   14  C   UNL     1      19.608  48.839  47.441  1.00  0.00     0.101 A 
HETATM   15  C   UNL     1      20.294  47.730  46.941  1.00  0.00     0.040 A 
HETATM   16  C   UNL     1      21.512  47.340  47.507  1.00  0.00     0.017 A 
BRANCH  13  17
HETATM   17  O   UNL     1      19.382  50.604  48.983  1.00  0.00    -0.353 OA
HETATM   18  C   UNL     1      19.796  51.910  48.607  1.00  0.00     0.210 C 
ENDBRANCH  13  17
BRANCH  14  19
HETATM   19  O   UNL     1      18.409  49.283  46.938  1.00  0.00    -0.353 OA
HETATM   20  C   UNL     1      18.455  49.904  45.659  1.00  0.00     0.210 C 
ENDBRANCH  14  19
ENDBRANCH   8  11
ENDBRANCH   1   5
BRANCH   2  21
HETATM   21  C   UNL     1      26.665  43.761  51.679  1.00  0.00     0.747 A 
HETATM   22  N   UNL     1      26.665  42.531  51.171  1.00  0.00     0.020 NA
HETATM   23  N   UNL     1      27.487  41.881  51.998  1.00  0.00    -0.248 N 
HETATM   24  H   UNL     1      27.666  40.894  51.843  1.00  0.00     0.191 HD
HETATM   25  C   UNL     1      27.968  42.710  52.971  1.00  0.00     0.140 A 
HETATM   26  N   UNL     1      27.450  43.908  52.793  1.00  0.00    -0.046 NA
BRANCH  25  27
HETATM   27  C   UNL     1      28.883  42.256  54.053  1.00  0.00     0.085 C 
BRANCH  27  28
HETATM   28  C   UNL     1      30.189  43.053  54.083  1.00  0.00     0.046 C 
BRANCH  28  29
HETATM   29  C   UNL     1      30.364  43.803  55.380  1.00  0.00    -0.058 A 
HETATM   30  C   UNL     1      31.249  43.333  56.361  1.00  0.00     0.007 A 
HETATM   31  C   UNL     1      31.400  44.022  57.566  1.00  0.00     0.001 A 
HETATM   32  C   UNL     1      30.670  45.185  57.801  1.00  0.00     0.000 A 
HETATM   33  C   UNL     1      29.787  45.660  56.833  1.00  0.00     0.001 A 
HETATM   34  C   UNL     1      29.632  44.971  55.629  1.00  0.00     0.007 A 
ENDBRANCH  28  29
ENDBRANCH  27  28
ENDBRANCH  25  27
ENDBRANCH   2  21
TORSDOF 8
ENDMDL
MODEL 6
REMARK VINA RESULT:      -8.9      2.194      3.473
REMARK  8 active torsions:
REMARK  status: ('A' for Active; 'I' for Inactive)
REMARK    1  A    between atoms: O_2  and  C_3 
REMARK    2  A    between atoms: C_4  and  O_5 
REMARK    3  A    between atoms: C_8  and  C_9 
REMARK    4  A    between atoms: C_13  and  C_14 
REMARK       I    between atoms: C_14  and  N_15 
REMARK    5  A    between atoms: N_15  and  C_16 
REMARK    6  A    between atoms: C_20  and  C_21 
REMARK    7  A    between atoms: C_21  and  C_22 
REMARK    8  A    between atoms: C_22  and  C_23 
ROOT
HETATM    1  C   UNL     1      24.645  48.655  49.312  1.00  0.00     0.290 C 
HETATM    2  N   UNL     1      24.243  47.800  50.314  1.00  0.00    -0.149 N 
HETATM    3  O   UNL     1      25.808  48.858  48.975  1.00  0.00    -0.265 OA
HETATM    4  H   UNL     1      23.294  47.787  50.642  1.00  0.00     0.188 HD
ENDROOT
BRANCH   1   5
HETATM    5  C   UNL     1      23.517  49.350  48.642  1.00  0.00     0.147 A 
HETATM    6  N   UNL     1      23.715  50.124  47.562  1.00  0.00    -0.169 NA
HETATM    7  N   UNL     1      22.492  50.511  47.184  1.00  0.00    -0.277 N 
HETATM    8  C   UNL     1      21.478  50.058  47.987  1.00  0.00     0.063 A 
HETATM    9  H   UNL     1      22.416  51.069  46.341  1.00  0.00     0.189 HD
HETATM   10  C   UNL     1      22.125  49.303  48.951  1.00  0.00     0.071 A 
BRANCH   8  11
HETATM   11  C   UNL     1      20.058  50.314  47.730  1.00  0.00    -0.005 A 
HETATM   12  C   UNL     1      19.182  50.686  48.764  1.00  0.00     0.053 A 
HETATM   13  C   UNL     1      17.836  50.982  48.503  1.00  0.00     0.102 A 
HETATM   14  C   UNL     1      17.351  50.900  47.186  1.00  0.00     0.101 A 
HETATM   15  C   UNL     1      18.207  50.496  46.160  1.00  0.00     0.040 A 
HETATM   16  C   UNL     1      19.549  50.211  46.431  1.00  0.00     0.017 A 
BRANCH  13  17
HETATM   17  O   UNL     1      16.924  51.366  49.455  1.00  0.00    -0.353 OA
HETATM   18  C   UNL     1      16.944  52.718  49.888  1.00  0.00     0.210 C 
ENDBRANCH  13  17
BRANCH  14  19
HETATM   19  O   UNL     1      16.024  51.198  46.998  1.00  0.00    -0.353 OA
HETATM   20  C   UNL     1      15.179  50.110  46.648  1.00  0.00     0.210 C 
ENDBRANCH  14  19
ENDBRANCH   8  11
ENDBRANCH   1   5
BRANCH   2  21
HETATM   21  C   UNL     1      25.061  46.931  50.972  1.00  0.00     0.747 A 
HETATM   22  N   UNL     1      25.528  45.760  50.545  1.00  0.00     0.020 NA
HETATM   23  N   UNL     1      26.215  45.324  51.603  1.00  0.00    -0.248 N 
HETATM   24  H   UNL     1      26.681  44.424  51.553  1.00  0.00     0.191 HD
HETATM   25  C   UNL     1      26.161  46.220  52.632  1.00  0.00     0.140 A 
HETATM   26  N   UNL     1      25.424  47.245  52.256  1.00  0.00    -0.046 NA
BRANCH  25  27
HETATM   27  C   UNL     1      26.810  45.990  53.951  1.00  0.00     0.085 C 
BRANCH  27  28
HETATM   28  C   UNL     1      27.276  44.541  54.125  1.00  0.00     0.046 C 
BRANCH  28  29
HETATM   29  C   UNL     1      28.622  44.458  54.801  1.00  0.00    -0.058 A 
HETATM   30  C   UNL     1      29.423  43.316  54.655  1.00  0.00     0.007 A 
HETATM   31  C   UNL     1      30.663  43.236  55.292  1.00  0.00     0.001 A 
HETATM   32  C   UNL     1      31.113  44.294  56.079  1.00  0.00     0.000 A 
HETATM   33  C   UNL     1      30.324  45.432  56.232  1.00  0.00     0.001 A 
HETATM   34  C   UNL     1      29.082  45.514  55.599  1.00  0.00     0.007 A 
ENDBRANCH  28  29
ENDBRANCH  27  28
ENDBRANCH  25  27
ENDBRANCH   2  21
TORSDOF 8
ENDMDL
MODEL 7
REMARK VINA RESULT:      -8.9      2.125      2.973
REMARK  8 active torsions:
REMARK  status: ('A' for Active; 'I' for Inactive)
REMARK    1  A    between atoms: O_2  and  C_3 
REMARK    2  A    between atoms: C_4  and  O_5 
REMARK    3  A    between atoms: C_8  and  C_9 
REMARK    4  A    between atoms: C_13  and  C_14 
REMARK       I    between atoms: C_14  and  N_15 
REMARK    5  A    between atoms: N_15  and  C_16 
REMARK    6  A    between atoms: C_20  and  C_21 
REMARK    7  A    between atoms: C_21  and  C_22 
REMARK    8  A    between atoms: C_22  and  C_23 
ROOT
HETATM    1  C   UNL     1      23.414  45.635  48.857  1.00  0.00     0.290 C 
HETATM    2  N   UNL     1      23.785  45.747  50.179  1.00  0.00    -0.149 N 
HETATM    3  O   UNL     1      23.757  44.735  48.096  1.00  0.00    -0.265 OA
HETATM    4  H   UNL     1      23.595  46.578  50.708  1.00  0.00     0.188 HD
ENDROOT
BRANCH   1   5
HETATM    5  C   UNL     1      22.533  46.739  48.397  1.00  0.00     0.147 A 
HETATM    6  N   UNL     1      22.011  46.747  47.159  1.00  0.00    -0.169 NA
HETATM    7  N   UNL     1      21.220  47.824  47.124  1.00  0.00    -0.277 N 
HETATM    8  C   UNL     1      21.212  48.563  48.278  1.00  0.00     0.063 A 
HETATM    9  H   UNL     1      20.683  47.985  46.280  1.00  0.00     0.189 HD
HETATM   10  C   UNL     1      22.069  47.877  49.122  1.00  0.00     0.071 A 
BRANCH   8  11
HETATM   11  C   UNL     1      20.378  49.750  48.481  1.00  0.00    -0.005 A 
HETATM   12  C   UNL     1      19.639  50.316  47.427  1.00  0.00     0.053 A 
HETATM   13  C   UNL     1      18.801  51.421  47.640  1.00  0.00     0.102 A 
HETATM   14  C   UNL     1      18.700  51.976  48.927  1.00  0.00     0.101 A 
HETATM   15  C   UNL     1      19.458  51.442  49.971  1.00  0.00     0.040 A 
HETATM   16  C   UNL     1      20.285  50.336  49.749  1.00  0.00     0.017 A 
BRANCH  13  17
HETATM   17  O   UNL     1      18.038  52.018  46.667  1.00  0.00    -0.353 OA
HETATM   18  C   UNL     1      17.433  51.185  45.690  1.00  0.00     0.210 C 
ENDBRANCH  13  17
BRANCH  14  19
HETATM   19  O   UNL     1      17.865  53.058  49.068  1.00  0.00    -0.353 OA
HETATM   20  C   UNL     1      16.706  52.858  49.867  1.00  0.00     0.210 C 
ENDBRANCH  14  19
ENDBRANCH   8  11
ENDBRANCH   1   5
BRANCH   2  21
HETATM   21  C   UNL     1      24.453  44.791  50.884  1.00  0.00     0.747 A 
HETATM   22  N   UNL     1      24.055  43.554  51.172  1.00  0.00     0.020 NA
HETATM   23  N   UNL     1      25.062  43.097  51.919  1.00  0.00    -0.248 N 
HETATM   24  H   UNL     1      25.014  42.155  52.291  1.00  0.00     0.191 HD
HETATM   25  C   UNL     1      26.039  44.041  52.064  1.00  0.00     0.140 A 
HETATM   26  N   UNL     1      25.668  45.129  51.422  1.00  0.00    -0.046 NA
BRANCH  25  27
HETATM   27  C   UNL     1      27.271  43.825  52.871  1.00  0.00     0.085 C 
BRANCH  27  28
HETATM   28  C   UNL     1      27.543  44.981  53.837  1.00  0.00     0.046 C 
BRANCH  28  29
HETATM   29  C   UNL     1      28.762  44.730  54.690  1.00  0.00    -0.058 A 
HETATM   30  C   UNL     1      29.206  45.700  55.601  1.00  0.00     0.007 A 
HETATM   31  C   UNL     1      30.341  45.471  56.380  1.00  0.00     0.001 A 
HETATM   32  C   UNL     1      31.042  44.273  56.257  1.00  0.00     0.000 A 
HETATM   33  C   UNL     1      30.610  43.304  55.354  1.00  0.00     0.001 A 
HETATM   34  C   UNL     1      29.477  43.532  54.571  1.00  0.00     0.007 A 
ENDBRANCH  28  29
ENDBRANCH  27  28
ENDBRANCH  25  27
ENDBRANCH   2  21
TORSDOF 8
ENDMDL
MODEL 8
REMARK VINA RESULT:      -8.8      2.832     11.591
REMARK  8 active torsions:
REMARK  status: ('A' for Active; 'I' for Inactive)
REMARK    1  A    between atoms: O_2  and  C_3 
REMARK    2  A    between atoms: C_4  and  O_5 
REMARK    3  A    between atoms: C_8  and  C_9 
REMARK    4  A    between atoms: C_13  and  C_14 
REMARK       I    between atoms: C_14  and  N_15 
REMARK    5  A    between atoms: N_15  and  C_16 
REMARK    6  A    between atoms: C_20  and  C_21 
REMARK    7  A    between atoms: C_21  and  C_22 
REMARK    8  A    between atoms: C_22  and  C_23 
ROOT
HETATM    1  C   UNL     1      24.561  47.869  49.899  1.00  0.00     0.290 C 
HETATM    2  N   UNL     1      23.185  47.863  49.826  1.00  0.00    -0.149 N 
HETATM    3  O   UNL     1      25.310  48.486  49.148  1.00  0.00    -0.265 OA
HETATM    4  H   UNL     1      22.634  47.226  50.372  1.00  0.00     0.188 HD
ENDROOT
BRANCH   1   5
HETATM    5  C   UNL     1      25.096  47.027  51.000  1.00  0.00     0.147 A 
HETATM    6  N   UNL     1      24.641  45.781  51.212  1.00  0.00    -0.169 NA
HETATM    7  N   UNL     1      25.391  45.303  52.210  1.00  0.00    -0.277 N 
HETATM    8  C   UNL     1      26.312  46.189  52.704  1.00  0.00     0.063 A 
HETATM    9  H   UNL     1      25.241  44.341  52.491  1.00  0.00     0.189 HD
HETATM   10  C   UNL     1      26.133  47.326  51.933  1.00  0.00     0.071 A 
BRANCH   8  11
HETATM   11  C   UNL     1      27.275  45.861  53.759  1.00  0.00    -0.005 A 
HETATM   12  C   UNL     1      28.034  44.680  53.718  1.00  0.00     0.053 A 
HETATM   13  C   UNL     1      28.991  44.397  54.703  1.00  0.00     0.102 A 
HETATM   14  C   UNL     1      29.193  45.308  55.755  1.00  0.00     0.101 A 
HETATM   15  C   UNL     1      28.417  46.467  55.822  1.00  0.00     0.040 A 
HETATM   16  C   UNL     1      27.471  46.741  54.830  1.00  0.00     0.017 A 
BRANCH  13  17
HETATM   17  O   UNL     1      29.781  43.274  54.723  1.00  0.00    -0.353 OA
HETATM   18  C   UNL     1      30.150  42.697  53.479  1.00  0.00     0.210 C 
ENDBRANCH  13  17
BRANCH  14  19
HETATM   19  O   UNL     1      30.142  44.971  56.689  1.00  0.00    -0.353 OA
HETATM   20  C   UNL     1      30.052  45.635  57.943  1.00  0.00     0.210 C 
ENDBRANCH  14  19
ENDBRANCH   8  11
ENDBRANCH   1   5
BRANCH   2  21
HETATM   21  C   UNL     1      22.445  48.670  49.015  1.00  0.00     0.747 A 
HETATM   22  N   UNL     1      22.245  48.554  47.704  1.00  0.00     0.020 NA
HETATM   23  N   UNL     1      21.504  49.631  47.433  1.00  0.00    -0.248 N 
HETATM   24  H   UNL     1      21.208  49.799  46.477  1.00  0.00     0.191 HD
HETATM   25  C   UNL     1      21.264  50.364  48.559  1.00  0.00     0.140 A 
HETATM   26  N   UNL     1      21.862  49.776  49.576  1.00  0.00    -0.046 NA
BRANCH  25  27
HETATM   27  C   UNL     1      20.490  51.635  48.558  1.00  0.00     0.085 C 
BRANCH  27  28
HETATM   28  C   UNL     1      19.370  51.634  49.602  1.00  0.00     0.046 C 
BRANCH  28  29
HETATM   29  C   UNL     1      18.075  51.101  49.041  1.00  0.00    -0.058 A 
HETATM   30  C   UNL     1      17.840  49.719  48.982  1.00  0.00     0.007 A 
HETATM   31  C   UNL     1      16.647  49.227  48.451  1.00  0.00     0.001 A 
HETATM   32  C   UNL     1      15.678  50.108  47.976  1.00  0.00     0.000 A 
HETATM   33  C   UNL     1      15.903  51.483  48.028  1.00  0.00     0.001 A 
HETATM   34  C   UNL     1      17.096  51.977  48.556  1.00  0.00     0.007 A 
ENDBRANCH  28  29
ENDBRANCH  27  28
ENDBRANCH  25  27
ENDBRANCH   2  21
TORSDOF 8
ENDMDL
MODEL 9
REMARK VINA RESULT:      -8.7      1.972      2.747
REMARK  8 active torsions:
REMARK  status: ('A' for Active; 'I' for Inactive)
REMARK    1  A    between atoms: O_2  and  C_3 
REMARK    2  A    between atoms: C_4  and  O_5 
REMARK    3  A    between atoms: C_8  and  C_9 
REMARK    4  A    between atoms: C_13  and  C_14 
REMARK       I    between atoms: C_14  and  N_15 
REMARK    5  A    between atoms: N_15  and  C_16 
REMARK    6  A    between atoms: C_20  and  C_21 
REMARK    7  A    between atoms: C_21  and  C_22 
REMARK    8  A    between atoms: C_22  and  C_23 
ROOT
HETATM    1  C   UNL     1      25.133  47.134  50.425  1.00  0.00     0.290 C 
HETATM    2  N   UNL     1      24.847  47.110  51.772  1.00  0.00    -0.149 N 
HETATM    3  O   UNL     1      26.250  47.008  49.933  1.00  0.00    -0.265 OA
HETATM    4  H   UNL     1      23.940  47.364  52.120  1.00  0.00     0.188 HD
ENDROOT
BRANCH   1   5
HETATM    5  C   UNL     1      23.934  47.339  49.572  1.00  0.00     0.147 A 
HETATM    6  N   UNL     1      23.368  46.319  48.905  1.00  0.00    -0.169 NA
HETATM    7  N   UNL     1      22.286  46.846  48.322  1.00  0.00    -0.277 N 
HETATM    8  C   UNL     1      22.117  48.188  48.540  1.00  0.00     0.063 A 
HETATM    9  H   UNL     1      21.680  46.219  47.805  1.00  0.00     0.189 HD
HETATM   10  C   UNL     1      23.187  48.534  49.348  1.00  0.00     0.071 A 
BRANCH   8  11
HETATM   11  C   UNL     1      20.974  48.957  48.043  1.00  0.00    -0.005 A 
HETATM   12  C   UNL     1      20.696  50.249  48.521  1.00  0.00     0.053 A 
HETATM   13  C   UNL     1      19.631  51.002  48.004  1.00  0.00     0.102 A 
HETATM   14  C   UNL     1      18.823  50.453  46.992  1.00  0.00     0.101 A 
HETATM   15  C   UNL     1      19.071  49.157  46.537  1.00  0.00     0.040 A 
HETATM   16  C   UNL     1      20.139  48.419  47.056  1.00  0.00     0.017 A 
BRANCH  13  17
HETATM   17  O   UNL     1      19.307  52.273  48.407  1.00  0.00    -0.353 OA
HETATM   18  C   UNL     1      18.381  52.418  49.473  1.00  0.00     0.210 C 
ENDBRANCH  13  17
BRANCH  14  19
HETATM   19  O   UNL     1      17.795  51.239  46.531  1.00  0.00    -0.353 OA
HETATM   20  C   UNL     1      16.537  50.596  46.367  1.00  0.00     0.210 C 
ENDBRANCH  14  19
ENDBRANCH   8  11
ENDBRANCH   1   5
BRANCH   2  21
HETATM   21  C   UNL     1      25.735  46.781  52.751  1.00  0.00     0.747 A 
HETATM   22  N   UNL     1      26.439  47.599  53.530  1.00  0.00     0.020 NA
HETATM   23  N   UNL     1      27.173  46.748  54.249  1.00  0.00    -0.248 N 
HETATM   24  H   UNL     1      27.824  47.114  54.936  1.00  0.00     0.191 HD
HETATM   25  C   UNL     1      26.905  45.453  53.909  1.00  0.00     0.140 A 
HETATM   26  N   UNL     1      26.001  45.451  52.951  1.00  0.00    -0.046 NA
BRANCH  25  27
HETATM   27  C   UNL     1      27.595  44.286  54.523  1.00  0.00     0.085 C 
BRANCH  27  28
HETATM   28  C   UNL     1      29.101  44.288  54.244  1.00  0.00     0.046 C 
BRANCH  28  29
HETATM   29  C   UNL     1      29.912  44.310  55.516  1.00  0.00    -0.058 A 
HETATM   30  C   UNL     1      29.784  45.371  56.424  1.00  0.00     0.007 A 
HETATM   31  C   UNL     1      30.544  45.396  57.595  1.00  0.00     0.001 A 
HETATM   32  C   UNL     1      31.437  44.362  57.869  1.00  0.00     0.000 A 
HETATM   33  C   UNL     1      31.573  43.304  56.972  1.00  0.00     0.001 A 
HETATM   34  C   UNL     1      30.816  43.279  55.799  1.00  0.00     0.007 A 
ENDBRANCH  28  29
ENDBRANCH  27  28
ENDBRANCH  25  27
ENDBRANCH   2  21
TORSDOF 8
ENDMDL
MODEL 10
REMARK VINA RESULT:      -8.5      3.163     10.917
REMARK  8 active torsions:
REMARK  status: ('A' for Active; 'I' for Inactive)
REMARK    1  A    between atoms: O_2  and  C_3 
REMARK    2  A    between atoms: C_4  and  O_5 
REMARK    3  A    between atoms: C_8  and  C_9 
REMARK    4  A    between atoms: C_13  and  C_14 
REMARK       I    between atoms: C_14  and  N_15 
REMARK    5  A    between atoms: N_15  and  C_16 
REMARK    6  A    between atoms: C_20  and  C_21 
REMARK    7  A    between atoms: C_21  and  C_22 
REMARK    8  A    between atoms: C_22  and  C_23 
ROOT
HETATM    1  C   UNL     1      24.546  44.278  50.103  1.00  0.00     0.290 C 
HETATM    2  N   UNL     1      23.178  44.306  50.261  1.00  0.00    -0.149 N 
HETATM    3  O   UNL     1      25.137  44.279  49.027  1.00  0.00    -0.265 OA
HETATM    4  H   UNL     1      22.750  44.155  51.156  1.00  0.00     0.188 HD
ENDROOT
BRANCH   1   5
HETATM    5  C   UNL     1      25.287  44.239  51.389  1.00  0.00     0.147 A 
HETATM    6  N   UNL     1      24.664  43.960  52.547  1.00  0.00    -0.169 NA
HETATM    7  N   UNL     1      25.635  43.930  53.464  1.00  0.00    -0.277 N 
HETATM    8  C   UNL     1      26.886  44.211  52.979  1.00  0.00     0.063 A 
HETATM    9  H   UNL     1      25.378  43.679  54.412  1.00  0.00     0.189 HD
HETATM   10  C   UNL     1      26.682  44.424  51.627  1.00  0.00     0.071 A 
BRANCH   8  11
HETATM   11  C   UNL     1      28.103  44.181  53.795  1.00  0.00    -0.005 A 
HETATM   12  C   UNL     1      28.319  45.113  54.824  1.00  0.00     0.053 A 
HETATM   13  C   UNL     1      29.462  45.047  55.635  1.00  0.00     0.102 A 
HETATM   14  C   UNL     1      30.410  44.032  55.415  1.00  0.00     0.101 A 
HETATM   15  C   UNL     1      30.219  43.124  54.372  1.00  0.00     0.040 A 
HETATM   16  C   UNL     1      29.073  43.196  53.574  1.00  0.00     0.017 A 
BRANCH  13  17
HETATM   17  O   UNL     1      29.736  45.910  56.667  1.00  0.00    -0.353 OA
HETATM   18  C   UNL     1      28.708  46.165  57.613  1.00  0.00     0.210 C 
ENDBRANCH  13  17
BRANCH  14  19
HETATM   19  O   UNL     1      31.507  44.024  56.241  1.00  0.00    -0.353 OA
HETATM   20  C   UNL     1      31.523  43.027  57.255  1.00  0.00     0.210 C 
ENDBRANCH  14  19
ENDBRANCH   8  11
ENDBRANCH   1   5
BRANCH   2  21
HETATM   21  C   UNL     1      22.281  44.502  49.253  1.00  0.00     0.747 A 
HETATM   22  N   UNL     1      21.865  43.626  48.343  1.00  0.00     0.020 NA
HETATM   23  N   UNL     1      21.050  44.365  47.587  1.00  0.00    -0.248 N 
HETATM   24  H   UNL     1      20.589  43.937  46.791  1.00  0.00     0.191 HD
HETATM   25  C   UNL     1      20.979  45.650  48.045  1.00  0.00     0.140 A 
HETATM   26  N   UNL     1      21.762  45.762  49.099  1.00  0.00    -0.046 NA
BRANCH  25  27
HETATM   27  C   UNL     1      20.171  46.710  47.385  1.00  0.00     0.085 C 
BRANCH  27  28
HETATM   28  C   UNL     1      21.014  47.930  47.000  1.00  0.00     0.046 C 
BRANCH  28  29
HETATM   29  C   UNL     1      20.617  49.159  47.780  1.00  0.00    -0.058 A 
HETATM   30  C   UNL     1      19.790  50.133  47.201  1.00  0.00     0.007 A 
HETATM   31  C   UNL     1      19.435  51.276  47.919  1.00  0.00     0.001 A 
HETATM   32  C   UNL     1      19.901  51.456  49.220  1.00  0.00     0.000 A 
HETATM   33  C   UNL     1      20.724  50.494  49.803  1.00  0.00     0.001 A 
HETATM   34  C   UNL     1      21.084  49.353  49.086  1.00  0.00     0.007 A 
ENDBRANCH  28  29
ENDBRANCH  27  28
ENDBRANCH  25  27
ENDBRANCH   2  21
TORSDOF 8
ENDMDL
