MODEL 1
REMARK VINA RESULT:     -10.0      0.000      0.000
REMARK  6 active torsions:
REMARK  status: ('A' for Active; 'I' for Inactive)
REMARK       I    between atoms: N_2  and  C_3 
REMARK    1  A    between atoms: N_2  and  C_15 
REMARK       I    between atoms: C_3  and  N_4 
REMARK    2  A    between atoms: N_4  and  C_5 
REMARK    3  A    between atoms: C_15  and  C_16 
REMARK    4  A    between atoms: C_16  and  C_17 
REMARK    5  A    between atoms: C_17  and  C_18 
REMARK    6  A    between atoms: C_22  and  C_23 
ROOT
HETATM    1  C   UNL     1      24.786  44.635  51.436  1.00  0.00     0.154 C 
HETATM    2  N   UNL     1      26.007  45.273  51.917  1.00  0.00    -0.338 N 
HETATM    3  C   UNL     1      26.776  44.560  52.839  1.00  0.00     0.322 C 
HETATM    4  N   UNL     1      27.809  45.270  53.412  1.00  0.00    -0.309 N 
HETATM    5  O   UNL     1      26.520  43.387  53.100  1.00  0.00    -0.247 OA
HETATM    6  H   UNL     1      27.827  46.259  53.239  1.00  0.00     0.170 HD
ENDROOT
BRANCH   2   7
HETATM    7  C   UNL     1      26.189  46.671  51.515  1.00  0.00     0.127 C 
BRANCH   7   8
HETATM    8  C   UNL     1      26.351  46.894  50.005  1.00  0.00     0.026 C 
BRANCH   8   9
HETATM    9  C   UNL     1      26.579  48.342  49.567  1.00  0.00     0.060 C 
BRANCH   9  10
HETATM   10  C   UNL     1      25.386  49.000  48.967  1.00  0.00     0.030 A 
HETATM   11  N   UNL     1      25.497  49.841  47.897  1.00  0.00    -0.282 N 
HETATM   12  H   UNL     1      26.341  50.120  47.405  1.00  0.00     0.189 HD
HETATM   13  N   UNL     1      24.326  50.306  47.450  1.00  0.00    -0.174 NA
HETATM   14  C   UNL     1      23.406  49.797  48.288  1.00  0.00     0.089 A 
HETATM   15  C   UNL     1      24.042  48.981  49.267  1.00  0.00     0.060 A 
BRANCH  14  16
HETATM   16  C   UNL     1      21.976  50.084  48.121  1.00  0.00    -0.006 A 
HETATM   17  C   UNL     1      21.117  49.116  47.575  1.00  0.00     0.014 A 
HETATM   18  C   UNL     1      19.752  49.369  47.421  1.00  0.00     0.001 A 
HETATM   19  C   UNL     1      19.225  50.597  47.808  1.00  0.00     0.000 A 
HETATM   20  C   UNL     1      20.061  51.572  48.348  1.00  0.00     0.001 A 
HETATM   21  C   UNL     1      21.428  51.318  48.504  1.00  0.00     0.014 A 
ENDBRANCH  14  16
ENDBRANCH   9  10
ENDBRANCH   8   9
ENDBRANCH   7   8
ENDBRANCH   2   7
BRANCH   4  22
HETATM   22  C   UNL     1      28.774  44.803  54.333  1.00  0.00     0.036 A 
HETATM   23  C   UNL     1      29.090  45.452  55.529  1.00  0.00     0.039 A 
HETATM   24  C   UNL     1      30.062  44.901  56.353  1.00  0.00    -0.024 A 
HETATM   25  C   UNL     1      30.718  43.730  56.017  1.00  0.00    -0.026 A 
HETATM   26  C   UNL     1      30.593  45.410  57.641  1.00  0.00     0.207 C 
HETATM   27  C   UNL     1      31.715  43.408  57.066  1.00  0.00     0.207 C 
HETATM   28  C   UNL     1      30.423  43.064  54.842  1.00  0.00     0.012 A 
HETATM   29  O   UNL     1      31.441  44.346  58.134  1.00  0.00    -0.382 OA
HETATM   30  C   UNL     1      29.443  43.605  54.002  1.00  0.00     0.030 A 
ENDBRANCH   4  22
TORSDOF 6
ENDMDL
MODEL 2
REMARK VINA RESULT:     -10.0      3.343     11.691
REMARK  6 active torsions:
REMARK  status: ('A' for Active; 'I' for Inactive)
REMARK       I    between atoms: N_2  and  C_3 
REMARK    1  A    between atoms: N_2  and  C_15 
REMARK       I    between atoms: C_3  and  N_4 
REMARK    2  A    between atoms: N_4  and  C_5 
REMARK    3  A    between atoms: C_15  and  C_16 
REMARK    4  A    between atoms: C_16  and  C_17 
REMARK    5  A    between atoms: C_17  and  C_18 
REMARK    6  A    between atoms: C_22  and  C_23 
ROOT
HETATM    1  C   UNL     1      26.624  48.603  49.275  1.00  0.00     0.154 C 
HETATM    2  N   UNL     1      25.215  48.290  49.489  1.00  0.00    -0.338 N 
HETATM    3  C   UNL     1      24.278  49.112  48.858  1.00  0.00     0.322 C 
HETATM    4  N   UNL     1      22.970  48.906  49.238  1.00  0.00    -0.309 N 
HETATM    5  O   UNL     1      24.631  49.952  48.033  1.00  0.00    -0.247 OA
HETATM    6  H   UNL     1      22.819  48.304  50.028  1.00  0.00     0.170 HD
ENDROOT
BRANCH   2   7
HETATM    7  C   UNL     1      24.943  47.257  50.493  1.00  0.00     0.127 C 
BRANCH   7   8
HETATM    8  C   UNL     1      26.054  47.059  51.533  1.00  0.00     0.026 C 
BRANCH   8   9
HETATM    9  C   UNL     1      25.585  46.736  52.954  1.00  0.00     0.060 C 
BRANCH   9  10
HETATM   10  C   UNL     1      26.685  46.543  53.937  1.00  0.00     0.030 A 
HETATM   11  N   UNL     1      27.003  47.506  54.852  1.00  0.00    -0.282 N 
HETATM   12  H   UNL     1      26.573  48.417  54.975  1.00  0.00     0.189 HD
HETATM   13  N   UNL     1      27.980  47.152  55.693  1.00  0.00    -0.174 NA
HETATM   14  C   UNL     1      28.363  45.929  55.288  1.00  0.00     0.089 A 
HETATM   15  C   UNL     1      27.578  45.520  54.171  1.00  0.00     0.060 A 
BRANCH  14  16
HETATM   16  C   UNL     1      29.433  45.194  55.975  1.00  0.00    -0.006 A 
HETATM   17  C   UNL     1      30.020  44.069  55.373  1.00  0.00     0.014 A 
HETATM   18  C   UNL     1      31.045  43.366  56.009  1.00  0.00     0.001 A 
HETATM   19  C   UNL     1      31.499  43.776  57.259  1.00  0.00     0.000 A 
HETATM   20  C   UNL     1      30.927  44.888  57.874  1.00  0.00     0.001 A 
HETATM   21  C   UNL     1      29.900  45.593  57.236  1.00  0.00     0.014 A 
ENDBRANCH  14  16
ENDBRANCH   9  10
ENDBRANCH   8   9
ENDBRANCH   7   8
ENDBRANCH   2   7
BRANCH   4  22
HETATM   22  C   UNL     1      21.813  49.548  48.741  1.00  0.00     0.036 A 
HETATM   23  C   UNL     1      20.917  48.959  47.846  1.00  0.00     0.039 A 
HETATM   24  C   UNL     1      19.816  49.691  47.421  1.00  0.00    -0.024 A 
HETATM   25  C   UNL     1      19.591  50.982  47.863  1.00  0.00    -0.026 A 
HETATM   26  C   UNL     1      18.752  49.306  46.461  1.00  0.00     0.207 C 
HETATM   27  C   UNL     1      18.367  51.515  47.217  1.00  0.00     0.207 C 
HETATM   28  C   UNL     1      20.459  51.590  48.751  1.00  0.00     0.012 A 
HETATM   29  O   UNL     1      17.780  50.376  46.545  1.00  0.00    -0.382 OA
HETATM   30  C   UNL     1      21.571  50.864  49.191  1.00  0.00     0.030 A 
ENDBRANCH   4  22
TORSDOF 6
ENDMDL
MODEL 3
REMARK VINA RESULT:      -9.7      3.237     11.341
REMARK  6 active torsions:
REMARK  status: ('A' for Active; 'I' for Inactive)
REMARK       I    between atoms: N_2  and  C_3 
REMARK    1  A    between atoms: N_2  and  C_15 
REMARK       I    between atoms: C_3  and  N_4 
REMARK    2  A    between atoms: N_4  and  C_5 
REMARK    3  A    between atoms: C_15  and  C_16 
REMARK    4  A    between atoms: C_16  and  C_17 
REMARK    5  A    between atoms: C_17  and  C_18 
REMARK    6  A    between atoms: C_22  and  C_23 
ROOT
HETATM    1  C   UNL     1      26.629  48.467  49.200  1.00  0.00     0.154 C 
HETATM    2  N   UNL     1      25.232  48.235  49.554  1.00  0.00    -0.338 N 
HETATM    3  C   UNL     1      24.272  49.002  48.891  1.00  0.00     0.322 C 
HETATM    4  N   UNL     1      22.992  48.893  49.388  1.00  0.00    -0.309 N 
HETATM    5  O   UNL     1      24.582  49.715  47.939  1.00  0.00    -0.247 OA
HETATM    6  H   UNL     1      22.886  48.404  50.258  1.00  0.00     0.170 HD
ENDROOT
BRANCH   2   7
HETATM    7  C   UNL     1      25.011  47.351  50.702  1.00  0.00     0.127 C 
BRANCH   7   8
HETATM    8  C   UNL     1      25.006  45.851  50.372  1.00  0.00     0.026 C 
BRANCH   8   9
HETATM    9  C   UNL     1      24.626  44.918  51.524  1.00  0.00     0.060 C 
BRANCH   9  10
HETATM   10  C   UNL     1      25.779  44.440  52.335  1.00  0.00     0.030 A 
HETATM   11  N   UNL     1      26.166  43.130  52.322  1.00  0.00    -0.282 N 
HETATM   12  H   UNL     1      25.753  42.361  51.805  1.00  0.00     0.189 HD
HETATM   13  N   UNL     1      27.249  42.879  53.066  1.00  0.00    -0.174 NA
HETATM   14  C   UNL     1      27.560  44.056  53.637  1.00  0.00     0.089 A 
HETATM   15  C   UNL     1      26.643  45.059  53.211  1.00  0.00     0.060 A 
BRANCH  14  16
HETATM   16  C   UNL     1      28.711  44.189  54.540  1.00  0.00    -0.006 A 
HETATM   17  C   UNL     1      29.645  43.147  54.656  1.00  0.00     0.014 A 
HETATM   18  C   UNL     1      30.751  43.263  55.502  1.00  0.00     0.001 A 
HETATM   19  C   UNL     1      30.937  44.423  56.248  1.00  0.00     0.000 A 
HETATM   20  C   UNL     1      30.018  45.466  56.150  1.00  0.00     0.001 A 
HETATM   21  C   UNL     1      28.912  45.350  55.301  1.00  0.00     0.014 A 
ENDBRANCH  14  16
ENDBRANCH   9  10
ENDBRANCH   8   9
ENDBRANCH   7   8
ENDBRANCH   2   7
BRANCH   4  22
HETATM   22  C   UNL     1      21.818  49.507  48.896  1.00  0.00     0.036 A 
HETATM   23  C   UNL     1      20.803  48.823  48.221  1.00  0.00     0.039 A 
HETATM   24  C   UNL     1      19.697  49.534  47.777  1.00  0.00    -0.024 A 
HETATM   25  C   UNL     1      19.579  50.896  47.989  1.00  0.00    -0.026 A 
HETATM   26  C   UNL     1      18.518  49.050  47.017  1.00  0.00     0.207 C 
HETATM   27  C   UNL     1      18.317  51.379  47.378  1.00  0.00     0.207 C 
HETATM   28  C   UNL     1      20.565  51.598  48.656  1.00  0.00     0.012 A 
HETATM   29  O   UNL     1      17.610  50.177  46.994  1.00  0.00    -0.382 OA
HETATM   30  C   UNL     1      21.684  50.895  49.113  1.00  0.00     0.030 A 
ENDBRANCH   4  22
TORSDOF 6
ENDMDL
MODEL 4
REMARK VINA RESULT:      -9.6      1.590      2.458
REMARK  6 active torsions:
REMARK  status: ('A' for Active; 'I' for Inactive)
REMARK       I    between atoms: N_2  and  C_3 
REMARK    1  A    between atoms: N_2  and  C_15 
REMARK       I    between atoms: C_3  and  N_4 
REMARK    2  A    between atoms: N_4  and  C_5 
REMARK    3  A    between atoms: C_15  and  C_16 
REMARK    4  A    between atoms: C_16  and  C_17 
REMARK    5  A    between atoms: C_17  and  C_18 
REMARK    6  A    between atoms: C_22  and  C_23 
ROOT
HETATM    1  C   UNL     1      27.201  41.493  50.871  1.00  0.00     0.154 C 
HETATM    2  N   UNL     1      27.791  42.733  51.363  1.00  0.00    -0.338 N 
HETATM    3  C   UNL     1      28.299  42.723  52.665  1.00  0.00     0.322 C 
HETATM    4  N   UNL     1      28.667  43.955  53.157  1.00  0.00    -0.309 N 
HETATM    5  O   UNL     1      28.392  41.673  53.296  1.00  0.00    -0.247 OA
HETATM    6  H   UNL     1      28.404  44.756  52.613  1.00  0.00     0.170 HD
ENDROOT
BRANCH   2   7
HETATM    7  C   UNL     1      27.615  43.903  50.498  1.00  0.00     0.127 C 
BRANCH   7   8
HETATM    8  C   UNL     1      26.265  44.618  50.644  1.00  0.00     0.026 C 
BRANCH   8   9
HETATM    9  C   UNL     1      26.311  45.997  51.306  1.00  0.00     0.060 C 
BRANCH   9  10
HETATM   10  C   UNL     1      25.599  47.066  50.554  1.00  0.00     0.030 A 
HETATM   11  N   UNL     1      26.277  48.072  49.927  1.00  0.00    -0.282 N 
HETATM   12  H   UNL     1      27.280  48.224  49.894  1.00  0.00     0.189 HD
HETATM   13  N   UNL     1      25.490  48.919  49.256  1.00  0.00    -0.174 NA
HETATM   14  C   UNL     1      24.238  48.491  49.490  1.00  0.00     0.089 A 
HETATM   15  C   UNL     1      24.268  47.333  50.319  1.00  0.00     0.060 A 
BRANCH  14  16
HETATM   16  C   UNL     1      23.073  49.175  48.912  1.00  0.00    -0.006 A 
HETATM   17  C   UNL     1      22.974  50.575  48.968  1.00  0.00     0.014 A 
HETATM   18  C   UNL     1      21.878  51.241  48.414  1.00  0.00     0.001 A 
HETATM   19  C   UNL     1      20.863  50.516  47.796  1.00  0.00     0.000 A 
HETATM   20  C   UNL     1      20.942  49.126  47.735  1.00  0.00     0.001 A 
HETATM   21  C   UNL     1      22.040  48.459  48.289  1.00  0.00     0.014 A 
ENDBRANCH  14  16
ENDBRANCH   9  10
ENDBRANCH   8   9
ENDBRANCH   7   8
ENDBRANCH   2   7
BRANCH   4  22
HETATM   22  C   UNL     1      29.251  44.246  54.411  1.00  0.00     0.036 A 
HETATM   23  C   UNL     1      30.266  43.484  54.995  1.00  0.00     0.039 A 
HETATM   24  C   UNL     1      30.759  43.863  56.237  1.00  0.00    -0.024 A 
HETATM   25  C   UNL     1      30.269  44.974  56.901  1.00  0.00    -0.026 A 
HETATM   26  C   UNL     1      31.797  43.209  57.070  1.00  0.00     0.207 C 
HETATM   27  C   UNL     1      30.960  45.107  58.207  1.00  0.00     0.207 C 
HETATM   28  C   UNL     1      29.268  45.748  56.347  1.00  0.00     0.012 A 
HETATM   29  O   UNL     1      32.030  44.135  58.158  1.00  0.00    -0.382 OA
HETATM   30  C   UNL     1      28.764  45.381  55.094  1.00  0.00     0.030 A 
ENDBRANCH   4  22
TORSDOF 6
ENDMDL
MODEL 5
REMARK VINA RESULT:      -9.4      3.728     11.144
REMARK  6 active torsions:
REMARK  status: ('A' for Active; 'I' for Inactive)
REMARK       I    between atoms: N_2  and  C_3 
REMARK    1  A    between atoms: N_2  and  C_15 
REMARK       I    between atoms: C_3  and  N_4 
REMARK    2  A    between atoms: N_4  and  C_5 
REMARK    3  A    between atoms: C_15  and  C_16 
REMARK    4  A    between atoms: C_16  and  C_17 
REMARK    5  A    between atoms: C_17  and  C_18 
REMARK    6  A    between atoms: C_22  and  C_23 
ROOT
HETATM    1  C   UNL     1      23.412  44.325  47.814  1.00  0.00     0.154 C 
HETATM    2  N   UNL     1      23.196  45.407  48.769  1.00  0.00    -0.338 N 
HETATM    3  C   UNL     1      22.389  46.470  48.355  1.00  0.00     0.322 C 
HETATM    4  N   UNL     1      22.368  47.553  49.204  1.00  0.00    -0.309 N 
HETATM    5  O   UNL     1      21.760  46.409  47.301  1.00  0.00    -0.247 OA
HETATM    6  H   UNL     1      23.037  47.553  49.953  1.00  0.00     0.170 HD
ENDROOT
BRANCH   2   7
HETATM    7  C   UNL     1      24.005  45.343  49.990  1.00  0.00     0.127 C 
BRANCH   7   8
HETATM    8  C   UNL     1      24.257  43.925  50.523  1.00  0.00     0.026 C 
BRANCH   8   9
HETATM    9  C   UNL     1      25.721  43.481  50.562  1.00  0.00     0.060 C 
BRANCH   9  10
HETATM   10  C   UNL     1      26.390  43.675  51.878  1.00  0.00     0.030 A 
HETATM   11  N   UNL     1      25.680  43.695  53.044  1.00  0.00    -0.282 N 
HETATM   12  H   UNL     1      24.677  43.597  53.167  1.00  0.00     0.189 HD
HETATM   13  N   UNL     1      26.438  43.828  54.137  1.00  0.00    -0.174 NA
HETATM   14  C   UNL     1      27.695  43.953  53.676  1.00  0.00     0.089 A 
HETATM   15  C   UNL     1      27.699  43.878  52.254  1.00  0.00     0.060 A 
BRANCH  14  16
HETATM   16  C   UNL     1      28.833  44.120  54.590  1.00  0.00    -0.006 A 
HETATM   17  C   UNL     1      29.003  45.321  55.297  1.00  0.00     0.014 A 
HETATM   18  C   UNL     1      30.074  45.491  56.178  1.00  0.00     0.001 A 
HETATM   19  C   UNL     1      30.993  44.462  56.363  1.00  0.00     0.000 A 
HETATM   20  C   UNL     1      30.843  43.265  55.666  1.00  0.00     0.001 A 
HETATM   21  C   UNL     1      29.769  43.094  54.785  1.00  0.00     0.014 A 
ENDBRANCH  14  16
ENDBRANCH   9  10
ENDBRANCH   8   9
ENDBRANCH   7   8
ENDBRANCH   2   7
BRANCH   4  22
HETATM   22  C   UNL     1      21.613  48.741  49.073  1.00  0.00     0.036 A 
HETATM   23  C   UNL     1      20.259  48.845  49.399  1.00  0.00     0.039 A 
HETATM   24  C   UNL     1      19.618  50.064  49.222  1.00  0.00    -0.024 A 
HETATM   25  C   UNL     1      20.291  51.171  48.733  1.00  0.00    -0.026 A 
HETATM   26  C   UNL     1      18.197  50.417  49.459  1.00  0.00     0.207 C 
HETATM   27  C   UNL     1      19.347  52.309  48.623  1.00  0.00     0.207 C 
HETATM   28  C   UNL     1      21.632  51.098  48.405  1.00  0.00     0.012 A 
HETATM   29  O   UNL     1      18.143  51.853  49.284  1.00  0.00    -0.382 OA
HETATM   30  C   UNL     1      22.291  49.877  48.582  1.00  0.00     0.030 A 
ENDBRANCH   4  22
TORSDOF 6
ENDMDL
MODEL 6
REMARK VINA RESULT:      -9.3     12.669     16.078
REMARK  6 active torsions:
REMARK  status: ('A' for Active; 'I' for Inactive)
REMARK       I    between atoms: N_2  and  C_3 
REMARK    1  A    between atoms: N_2  and  C_15 
REMARK       I    between atoms: C_3  and  N_4 
REMARK    2  A    between atoms: N_4  and  C_5 
REMARK    3  A    between atoms: C_15  and  C_16 
REMARK    4  A    between atoms: C_16  and  C_17 
REMARK    5  A    between atoms: C_17  and  C_18 
REMARK    6  A    between atoms: C_22  and  C_23 
ROOT
HETATM    1  C   UNL     1      37.068  55.456  39.846  1.00  0.00     0.154 C 
HETATM    2  N   UNL     1      36.445  54.137  39.860  1.00  0.00    -0.338 N 
HETATM    3  C   UNL     1      35.078  54.077  39.576  1.00  0.00     0.322 C 
HETATM    4  N   UNL     1      34.491  52.849  39.788  1.00  0.00    -0.309 N 
HETATM    5  O   UNL     1      34.474  55.068  39.172  1.00  0.00    -0.247 OA
HETATM    6  H   UNL     1      35.046  52.160  40.263  1.00  0.00     0.170 HD
ENDROOT
BRANCH   2   7
HETATM    7  C   UNL     1      37.289  53.045  40.353  1.00  0.00     0.127 C 
BRANCH   7   8
HETATM    8  C   UNL     1      37.626  53.115  41.849  1.00  0.00     0.026 C 
BRANCH   8   9
HETATM    9  C   UNL     1      37.327  51.850  42.657  1.00  0.00     0.060 C 
BRANCH   9  10
HETATM   10  C   UNL     1      35.894  51.448  42.666  1.00  0.00     0.030 A 
HETATM   11  N   UNL     1      34.966  52.126  43.403  1.00  0.00    -0.282 N 
HETATM   12  H   UNL     1      35.112  52.930  44.006  1.00  0.00     0.189 HD
HETATM   13  N   UNL     1      33.719  51.666  43.259  1.00  0.00    -0.174 NA
HETATM   14  C   UNL     1      33.830  50.609  42.436  1.00  0.00     0.089 A 
HETATM   15  C   UNL     1      35.192  50.432  42.055  1.00  0.00     0.060 A 
BRANCH  14  16
HETATM   16  C   UNL     1      32.656  49.826  42.031  1.00  0.00    -0.006 A 
HETATM   17  C   UNL     1      31.389  50.124  42.558  1.00  0.00     0.014 A 
HETATM   18  C   UNL     1      30.260  49.396  42.175  1.00  0.00     0.001 A 
HETATM   19  C   UNL     1      30.382  48.355  41.259  1.00  0.00     0.000 A 
HETATM   20  C   UNL     1      31.632  48.041  40.728  1.00  0.00     0.001 A 
HETATM   21  C   UNL     1      32.762  48.772  41.111  1.00  0.00     0.014 A 
ENDBRANCH  14  16
ENDBRANCH   9  10
ENDBRANCH   8   9
ENDBRANCH   7   8
ENDBRANCH   2   7
BRANCH   4  22
HETATM   22  C   UNL     1      33.149  52.479  39.545  1.00  0.00     0.036 A 
HETATM   23  C   UNL     1      32.055  53.012  40.232  1.00  0.00     0.039 A 
HETATM   24  C   UNL     1      30.781  52.565  39.912  1.00  0.00    -0.024 A 
HETATM   25  C   UNL     1      30.573  51.610  38.931  1.00  0.00    -0.026 A 
HETATM   26  C   UNL     1      29.478  52.946  40.511  1.00  0.00     0.207 C 
HETATM   27  C   UNL     1      29.124  51.313  38.836  1.00  0.00     0.207 C 
HETATM   28  C   UNL     1      31.636  51.068  38.233  1.00  0.00     0.012 A 
HETATM   29  O   UNL     1      28.487  52.313  39.667  1.00  0.00    -0.382 OA
HETATM   30  C   UNL     1      32.926  51.510  38.543  1.00  0.00     0.030 A 
ENDBRANCH   4  22
TORSDOF 6
ENDMDL
MODEL 7
REMARK VINA RESULT:      -9.2      1.455      1.678
REMARK  6 active torsions:
REMARK  status: ('A' for Active; 'I' for Inactive)
REMARK       I    between atoms: N_2  and  C_3 
REMARK    1  A    between atoms: N_2  and  C_15 
REMARK       I    between atoms: C_3  and  N_4 
REMARK    2  A    between atoms: N_4  and  C_5 
REMARK    3  A    between atoms: C_15  and  C_16 
REMARK    4  A    between atoms: C_16  and  C_17 
REMARK    5  A    between atoms: C_17  and  C_18 
REMARK    6  A    between atoms: C_22  and  C_23 
ROOT
HETATM    1  C   UNL     1      25.387  47.504  52.856  1.00  0.00     0.154 C 
HETATM    2  N   UNL     1      26.055  46.216  53.009  1.00  0.00    -0.338 N 
HETATM    3  C   UNL     1      27.088  46.143  53.947  1.00  0.00     0.322 C 
HETATM    4  N   UNL     1      27.817  44.975  53.922  1.00  0.00    -0.309 N 
HETATM    5  O   UNL     1      27.305  47.074  54.719  1.00  0.00    -0.247 OA
HETATM    6  H   UNL     1      27.649  44.354  53.151  1.00  0.00     0.170 HD
ENDROOT
BRANCH   2   7
HETATM    7  C   UNL     1      25.688  45.194  52.024  1.00  0.00     0.127 C 
BRANCH   7   8
HETATM    8  C   UNL     1      26.192  45.460  50.599  1.00  0.00     0.026 C 
BRANCH   8   9
HETATM    9  C   UNL     1      25.123  45.454  49.504  1.00  0.00     0.060 C 
BRANCH   9  10
HETATM   10  C   UNL     1      24.411  46.750  49.331  1.00  0.00     0.030 A 
HETATM   11  N   UNL     1      25.031  47.943  49.566  1.00  0.00    -0.282 N 
HETATM   12  H   UNL     1      25.985  48.102  49.874  1.00  0.00     0.189 HD
HETATM   13  N   UNL     1      24.266  49.010  49.315  1.00  0.00    -0.174 NA
HETATM   14  C   UNL     1      23.074  48.506  48.949  1.00  0.00     0.089 A 
HETATM   15  C   UNL     1      23.125  47.082  48.964  1.00  0.00     0.060 A 
BRANCH  14  16
HETATM   16  C   UNL     1      21.951  49.380  48.587  1.00  0.00    -0.006 A 
HETATM   17  C   UNL     1      20.883  48.881  47.822  1.00  0.00     0.014 A 
HETATM   18  C   UNL     1      19.802  49.697  47.479  1.00  0.00     0.001 A 
HETATM   19  C   UNL     1      19.774  51.025  47.892  1.00  0.00     0.000 A 
HETATM   20  C   UNL     1      20.826  51.539  48.648  1.00  0.00     0.001 A 
HETATM   21  C   UNL     1      21.908  50.722  48.994  1.00  0.00     0.014 A 
ENDBRANCH  14  16
ENDBRANCH   9  10
ENDBRANCH   8   9
ENDBRANCH   7   8
ENDBRANCH   2   7
BRANCH   4  22
HETATM   22  C   UNL     1      28.879  44.600  54.776  1.00  0.00     0.036 A 
HETATM   23  C   UNL     1      29.211  45.276  55.953  1.00  0.00     0.039 A 
HETATM   24  C   UNL     1      30.281  44.819  56.709  1.00  0.00    -0.024 A 
HETATM   25  C   UNL     1      31.021  43.715  56.324  1.00  0.00    -0.026 A 
HETATM   26  C   UNL     1      30.845  45.376  57.964  1.00  0.00     0.207 C 
HETATM   27  C   UNL     1      32.110  43.488  57.304  1.00  0.00     0.207 C 
HETATM   28  C   UNL     1      30.714  43.024  55.166  1.00  0.00     0.012 A 
HETATM   29  O   UNL     1      31.820  44.396  58.394  1.00  0.00    -0.382 OA
HETATM   30  C   UNL     1      29.636  43.471  54.396  1.00  0.00     0.030 A 
ENDBRANCH   4  22
TORSDOF 6
ENDMDL
MODEL 8
REMARK VINA RESULT:      -9.1      1.503      2.599
REMARK  6 active torsions:
REMARK  status: ('A' for Active; 'I' for Inactive)
REMARK       I    between atoms: N_2  and  C_3 
REMARK    1  A    between atoms: N_2  and  C_15 
REMARK       I    between atoms: C_3  and  N_4 
REMARK    2  A    between atoms: N_4  and  C_5 
REMARK    3  A    between atoms: C_15  and  C_16 
REMARK    4  A    between atoms: C_16  and  C_17 
REMARK    5  A    between atoms: C_17  and  C_18 
REMARK    6  A    between atoms: C_22  and  C_23 
ROOT
HETATM    1  C   UNL     1      23.228  43.749  50.450  1.00  0.00     0.154 C 
HETATM    2  N   UNL     1      24.488  44.472  50.595  1.00  0.00    -0.338 N 
HETATM    3  C   UNL     1      25.123  44.400  51.837  1.00  0.00     0.322 C 
HETATM    4  N   UNL     1      26.199  45.247  51.992  1.00  0.00    -0.309 N 
HETATM    5  O   UNL     1      24.723  43.629  52.705  1.00  0.00    -0.247 OA
HETATM    6  H   UNL     1      26.337  45.937  51.276  1.00  0.00     0.170 HD
ENDROOT
BRANCH   2   7
HETATM    7  C   UNL     1      24.846  45.345  49.473  1.00  0.00     0.127 C 
BRANCH   7   8
HETATM    8  C   UNL     1      23.838  46.464  49.177  1.00  0.00     0.026 C 
BRANCH   8   9
HETATM    9  C   UNL     1      24.286  47.879  49.552  1.00  0.00     0.060 C 
BRANCH   9  10
HETATM   10  C   UNL     1      23.343  48.954  49.140  1.00  0.00     0.030 A 
HETATM   11  N   UNL     1      23.751  50.250  49.008  1.00  0.00    -0.282 N 
HETATM   12  H   UNL     1      24.678  50.633  49.165  1.00  0.00     0.189 HD
HETATM   13  N   UNL     1      22.792  51.079  48.582  1.00  0.00    -0.174 NA
HETATM   14  C   UNL     1      21.691  50.314  48.479  1.00  0.00     0.089 A 
HETATM   15  C   UNL     1      21.998  48.971  48.840  1.00  0.00     0.060 A 
BRANCH  14  16
HETATM   16  C   UNL     1      20.409  50.873  48.031  1.00  0.00    -0.006 A 
HETATM   17  C   UNL     1      19.873  52.010  48.659  1.00  0.00     0.014 A 
HETATM   18  C   UNL     1      18.660  52.559  48.237  1.00  0.00     0.001 A 
HETATM   19  C   UNL     1      17.962  51.979  47.183  1.00  0.00     0.000 A 
HETATM   20  C   UNL     1      18.475  50.848  46.551  1.00  0.00     0.001 A 
HETATM   21  C   UNL     1      19.691  50.298  46.972  1.00  0.00     0.014 A 
ENDBRANCH  14  16
ENDBRANCH   9  10
ENDBRANCH   8   9
ENDBRANCH   7   8
ENDBRANCH   2   7
BRANCH   4  22
HETATM   22  C   UNL     1      27.057  45.359  53.110  1.00  0.00     0.036 A 
HETATM   23  C   UNL     1      28.059  44.436  53.421  1.00  0.00     0.039 A 
HETATM   24  C   UNL     1      28.837  44.648  54.551  1.00  0.00    -0.024 A 
HETATM   25  C   UNL     1      28.642  45.747  55.369  1.00  0.00    -0.026 A 
HETATM   26  C   UNL     1      29.927  43.808  55.106  1.00  0.00     0.207 C 
HETATM   27  C   UNL     1      29.593  45.687  56.505  1.00  0.00     0.207 C 
HETATM   28  C   UNL     1      27.660  46.678  55.084  1.00  0.00     0.012 A 
HETATM   29  O   UNL     1      30.494  44.604  56.174  1.00  0.00    -0.382 OA
HETATM   30  C   UNL     1      26.870  46.480  53.947  1.00  0.00     0.030 A 
ENDBRANCH   4  22
TORSDOF 6
ENDMDL
MODEL 9
REMARK VINA RESULT:      -8.9     12.366     14.739
REMARK  6 active torsions:
REMARK  status: ('A' for Active; 'I' for Inactive)
REMARK       I    between atoms: N_2  and  C_3 
REMARK    1  A    between atoms: N_2  and  C_15 
REMARK       I    between atoms: C_3  and  N_4 
REMARK    2  A    between atoms: N_4  and  C_5 
REMARK    3  A    between atoms: C_15  and  C_16 
REMARK    4  A    between atoms: C_16  and  C_17 
REMARK    5  A    between atoms: C_17  and  C_18 
REMARK    6  A    between atoms: C_22  and  C_23 
ROOT
HETATM    1  C   UNL     1      25.230  48.492  36.903  1.00  0.00     0.154 C 
HETATM    2  N   UNL     1      26.459  48.498  37.690  1.00  0.00    -0.338 N 
HETATM    3  C   UNL     1      26.948  49.743  38.094  1.00  0.00     0.322 C 
HETATM    4  N   UNL     1      28.203  49.720  38.662  1.00  0.00    -0.309 N 
HETATM    5  O   UNL     1      26.283  50.763  37.934  1.00  0.00    -0.247 OA
HETATM    6  H   UNL     1      28.711  48.856  38.600  1.00  0.00     0.170 HD
ENDROOT
BRANCH   2   7
HETATM    7  C   UNL     1      27.139  47.205  37.808  1.00  0.00     0.127 C 
BRANCH   7   8
HETATM    8  C   UNL     1      26.967  46.506  39.163  1.00  0.00     0.026 C 
BRANCH   8   9
HETATM    9  C   UNL     1      28.256  46.015  39.827  1.00  0.00     0.060 C 
BRANCH   9  10
HETATM   10  C   UNL     1      28.992  47.060  40.590  1.00  0.00     0.030 A 
HETATM   11  N   UNL     1      28.393  47.768  41.592  1.00  0.00    -0.282 N 
HETATM   12  H   UNL     1      27.437  47.694  41.925  1.00  0.00     0.189 HD
HETATM   13  N   UNL     1      29.208  48.630  42.208  1.00  0.00    -0.174 NA
HETATM   14  C   UNL     1      30.380  48.529  41.556  1.00  0.00     0.089 A 
HETATM   15  C   UNL     1      30.274  47.558  40.518  1.00  0.00     0.060 A 
BRANCH  14  16
HETATM   16  C   UNL     1      31.546  49.331  41.946  1.00  0.00    -0.006 A 
HETATM   17  C   UNL     1      32.797  49.100  41.350  1.00  0.00     0.014 A 
HETATM   18  C   UNL     1      33.913  49.862  41.702  1.00  0.00     0.001 A 
HETATM   19  C   UNL     1      33.796  50.866  42.658  1.00  0.00     0.000 A 
HETATM   20  C   UNL     1      32.565  51.108  43.263  1.00  0.00     0.001 A 
HETATM   21  C   UNL     1      31.446  50.346  42.909  1.00  0.00     0.014 A 
ENDBRANCH  14  16
ENDBRANCH   9  10
ENDBRANCH   8   9
ENDBRANCH   7   8
ENDBRANCH   2   7
BRANCH   4  22
HETATM   22  C   UNL     1      28.927  50.806  39.203  1.00  0.00     0.036 A 
HETATM   23  C   UNL     1      30.299  50.996  39.024  1.00  0.00     0.039 A 
HETATM   24  C   UNL     1      30.905  52.100  39.610  1.00  0.00    -0.024 A 
HETATM   25  C   UNL     1      30.181  53.009  40.362  1.00  0.00    -0.026 A 
HETATM   26  C   UNL     1      32.334  52.500  39.595  1.00  0.00     0.207 C 
HETATM   27  C   UNL     1      31.097  54.053  40.882  1.00  0.00     0.207 C 
HETATM   28  C   UNL     1      28.822  52.848  40.554  1.00  0.00     0.012 A 
HETATM   29  O   UNL     1      32.352  53.814  40.203  1.00  0.00    -0.382 OA
HETATM   30  C   UNL     1      28.197  51.743  39.966  1.00  0.00     0.030 A 
ENDBRANCH   4  22
TORSDOF 6
ENDMDL
MODEL 10
REMARK VINA RESULT:      -8.8     11.877     13.074
REMARK  6 active torsions:
REMARK  status: ('A' for Active; 'I' for Inactive)
REMARK       I    between atoms: N_2  and  C_3 
REMARK    1  A    between atoms: N_2  and  C_15 
REMARK       I    between atoms: C_3  and  N_4 
REMARK    2  A    between atoms: N_4  and  C_5 
REMARK    3  A    between atoms: C_15  and  C_16 
REMARK    4  A    between atoms: C_16  and  C_17 
REMARK    5  A    between atoms: C_17  and  C_18 
REMARK    6  A    between atoms: C_22  and  C_23 
ROOT
HETATM    1  C   UNL     1      28.096  45.300  39.338  1.00  0.00     0.154 C 
HETATM    2  N   UNL     1      28.233  46.595  39.997  1.00  0.00    -0.338 N 
HETATM    3  C   UNL     1      29.530  47.027  40.286  1.00  0.00     0.322 C 
HETATM    4  N   UNL     1      29.607  48.152  41.076  1.00  0.00    -0.309 N 
HETATM    5  O   UNL     1      30.507  46.420  39.855  1.00  0.00    -0.247 OA
HETATM    6  H   UNL     1      28.752  48.470  41.494  1.00  0.00     0.170 HD
ENDROOT
BRANCH   2   7
HETATM    7  C   UNL     1      26.981  47.209  40.446  1.00  0.00     0.127 C 
BRANCH   7   8
HETATM    8  C   UNL     1      25.903  47.349  39.362  1.00  0.00     0.026 C 
BRANCH   8   9
HETATM    9  C   UNL     1      25.945  48.644  38.547  1.00  0.00     0.060 C 
BRANCH   9  10
HETATM   10  C   UNL     1      26.860  49.685  39.089  1.00  0.00     0.030 A 
HETATM   11  N   UNL     1      26.481  50.507  40.112  1.00  0.00    -0.282 N 
HETATM   12  H   UNL     1      25.593  50.527  40.602  1.00  0.00     0.189 HD
HETATM   13  N   UNL     1      27.439  51.349  40.512  1.00  0.00    -0.174 NA
HETATM   14  C   UNL     1      28.476  51.115  39.688  1.00  0.00     0.089 A 
HETATM   15  C   UNL     1      28.139  50.082  38.767  1.00  0.00     0.060 A 
BRANCH  14  16
HETATM   16  C   UNL     1      29.737  51.857  39.814  1.00  0.00    -0.006 A 
HETATM   17  C   UNL     1      29.839  52.938  40.704  1.00  0.00     0.014 A 
HETATM   18  C   UNL     1      31.035  53.646  40.843  1.00  0.00     0.001 A 
HETATM   19  C   UNL     1      32.148  53.285  40.091  1.00  0.00     0.000 A 
HETATM   20  C   UNL     1      32.066  52.218  39.198  1.00  0.00     0.001 A 
HETATM   21  C   UNL     1      30.868  51.507  39.060  1.00  0.00     0.014 A 
ENDBRANCH  14  16
ENDBRANCH   9  10
ENDBRANCH   8   9
ENDBRANCH   7   8
ENDBRANCH   2   7
BRANCH   4  22
HETATM   22  C   UNL     1      30.771  48.841  41.489  1.00  0.00     0.036 A 
HETATM   23  C   UNL     1      30.786  49.822  42.484  1.00  0.00     0.039 A 
HETATM   24  C   UNL     1      31.990  50.436  42.801  1.00  0.00    -0.024 A 
HETATM   25  C   UNL     1      33.167  50.098  42.156  1.00  0.00    -0.026 A 
HETATM   26  C   UNL     1      32.259  51.515  43.783  1.00  0.00     0.207 C 
HETATM   27  C   UNL     1      34.271  50.938  42.680  1.00  0.00     0.207 C 
HETATM   28  C   UNL     1      33.183  49.130  41.170  1.00  0.00     0.012 A 
HETATM   29  O   UNL     1      33.702  51.625  43.819  1.00  0.00    -0.382 OA
HETATM   30  C   UNL     1      31.978  48.499  40.842  1.00  0.00     0.030 A 
ENDBRANCH   4  22
TORSDOF 6
ENDMDL
