MODEL 1
REMARK VINA RESULT:      -9.9      0.000      0.000
REMARK  3 active torsions:
REMARK  status: ('A' for Active; 'I' for Inactive)
REMARK    1  A    between atoms: O_2  and  C_3 
REMARK       I    between atoms: N_13  and  C_14 
REMARK       I    between atoms: C_14  and  N_15 
REMARK    2  A    between atoms: N_15  and  C_16 
REMARK    3  A    between atoms: C_22  and  C_23 
ROOT
HETATM    1  C   UNL     1      22.801  45.459  48.519  1.00  0.00     0.069 A 
HETATM    2  C   UNL     1      23.649  46.178  49.371  1.00  0.00     0.051 A 
HETATM    3  C   UNL     1      24.206  45.548  50.501  1.00  0.00     0.002 A 
HETATM    4  C   UNL     1      23.869  44.220  50.764  1.00  0.00     0.043 A 
HETATM    5  N   UNL     1      24.550  43.839  51.900  1.00  0.00    -0.356 N 
HETATM    6  H   UNL     1      24.520  42.910  52.299  1.00  0.00     0.166 HD
HETATM    7  C   UNL     1      25.358  44.862  52.327  1.00  0.00     0.045 A 
HETATM    8  C   UNL     1      25.126  45.944  51.505  1.00  0.00    -0.019 A 
HETATM    9  C   UNL     1      25.851  47.219  51.706  1.00  0.00     0.061 C 
HETATM   10  C   UNL     1      26.369  47.279  53.149  1.00  0.00     0.133 C 
HETATM   11  N   UNL     1      27.097  46.062  53.582  1.00  0.00    -0.320 N 
HETATM   12  C   UNL     1      27.953  46.301  54.666  1.00  0.00     0.319 C 
HETATM   13  N   UNL     1      28.773  45.256  54.992  1.00  0.00    -0.338 N 
HETATM   14  O   UNL     1      28.007  47.384  55.243  1.00  0.00    -0.247 OA
HETATM   15  C   UNL     1      26.360  44.763  53.454  1.00  0.00     0.172 C 
HETATM   16  C   UNL     1      22.998  43.493  49.945  1.00  0.00     0.033 A 
HETATM   17  C   UNL     1      22.473  44.135  48.815  1.00  0.00     0.039 A 
HETATM   18  H   UNL     1      29.013  44.691  54.193  1.00  0.00     0.164 HD
ENDROOT
BRANCH  15  19
HETATM   19  C   UNL     1      27.252  43.547  53.208  1.00  0.00    -0.029 A 
HETATM   20  C   UNL     1      27.288  42.498  54.146  1.00  0.00     0.012 A 
HETATM   21  C   UNL     1      28.094  41.381  53.923  1.00  0.00     0.043 A 
HETATM   22  C   UNL     1      28.859  41.305  52.765  1.00  0.00     0.116 A 
HETATM   23  F   UNL     1      29.630  40.229  52.555  1.00  0.00    -0.206 F 
HETATM   24  C   UNL     1      28.836  42.325  51.823  1.00  0.00     0.043 A 
HETATM   25  C   UNL     1      28.034  43.445  52.042  1.00  0.00     0.012 A 
ENDBRANCH  15  19
BRANCH  13  26
HETATM   26  C   UNL     1      29.837  45.325  55.976  1.00  0.00     0.086 C 
HETATM   27  C   UNL     1      29.370  45.595  57.403  1.00  0.00     0.025 C 
HETATM   28  C   UNL     1      30.627  45.336  58.219  1.00  0.00     0.002 C 
HETATM   29  C   UNL     1      31.343  44.191  57.503  1.00  0.00     0.002 C 
HETATM   30  C   UNL     1      30.725  44.090  56.106  1.00  0.00     0.025 C 
ENDBRANCH  13  26
BRANCH   1  31
HETATM   31  O   UNL     1      22.352  46.167  47.436  1.00  0.00    -0.356 OA
HETATM   32  C   UNL     1      21.510  47.278  47.711  1.00  0.00     0.210 C 
ENDBRANCH   1  31
TORSDOF 3
ENDMDL
MODEL 2
REMARK VINA RESULT:      -9.6      2.981      8.559
REMARK  3 active torsions:
REMARK  status: ('A' for Active; 'I' for Inactive)
REMARK    1  A    between atoms: O_2  and  C_3 
REMARK       I    between atoms: N_13  and  C_14 
REMARK       I    between atoms: C_14  and  N_15 
REMARK    2  A    between atoms: N_15  and  C_16 
REMARK    3  A    between atoms: C_22  and  C_23 
ROOT
HETATM    1  C   UNL     1      30.610  44.498  55.999  1.00  0.00     0.069 A 
HETATM    2  C   UNL     1      30.188  43.590  55.019  1.00  0.00     0.051 A 
HETATM    3  C   UNL     1      28.949  43.778  54.376  1.00  0.00     0.002 A 
HETATM    4  C   UNL     1      28.151  44.857  54.758  1.00  0.00     0.043 A 
HETATM    5  N   UNL     1      27.015  44.828  53.977  1.00  0.00    -0.356 N 
HETATM    6  H   UNL     1      26.278  45.518  54.015  1.00  0.00     0.166 HD
HETATM    7  C   UNL     1      27.100  43.804  53.067  1.00  0.00     0.045 A 
HETATM    8  C   UNL     1      28.265  43.114  53.327  1.00  0.00    -0.019 A 
HETATM    9  C   UNL     1      28.649  41.940  52.510  1.00  0.00     0.061 C 
HETATM   10  C   UNL     1      27.397  41.371  51.830  1.00  0.00     0.133 C 
HETATM   11  N   UNL     1      26.574  42.386  51.130  1.00  0.00    -0.320 N 
HETATM   12  C   UNL     1      25.749  41.827  50.145  1.00  0.00     0.319 C 
HETATM   13  N   UNL     1      25.098  42.736  49.355  1.00  0.00    -0.338 N 
HETATM   14  O   UNL     1      25.658  40.615  49.963  1.00  0.00    -0.247 OA
HETATM   15  C   UNL     1      26.112  43.551  51.952  1.00  0.00     0.172 C 
HETATM   16  C   UNL     1      28.537  45.757  55.757  1.00  0.00     0.033 A 
HETATM   17  C   UNL     1      29.784  45.561  56.368  1.00  0.00     0.039 A 
HETATM   18  H   UNL     1      25.622  43.589  49.240  1.00  0.00     0.164 HD
ENDROOT
BRANCH  15  19
HETATM   19  C   UNL     1      25.922  44.848  51.166  1.00  0.00    -0.029 A 
HETATM   20  C   UNL     1      24.707  45.553  51.251  1.00  0.00     0.012 A 
HETATM   21  C   UNL     1      24.530  46.742  50.543  1.00  0.00     0.043 A 
HETATM   22  C   UNL     1      25.564  47.233  49.754  1.00  0.00     0.116 A 
HETATM   23  F   UNL     1      25.391  48.376  49.078  1.00  0.00    -0.206 F 
HETATM   24  C   UNL     1      26.774  46.558  49.658  1.00  0.00     0.043 A 
HETATM   25  C   UNL     1      26.955  45.367  50.362  1.00  0.00     0.012 A 
ENDBRANCH  15  19
BRANCH  13  26
HETATM   26  C   UNL     1      24.314  42.392  48.185  1.00  0.00     0.086 C 
HETATM   27  C   UNL     1      23.153  41.438  48.452  1.00  0.00     0.025 C 
HETATM   28  C   UNL     1      22.374  41.487  47.147  1.00  0.00     0.002 C 
HETATM   29  C   UNL     1      22.512  42.927  46.651  1.00  0.00     0.002 C 
HETATM   30  C   UNL     1      23.670  43.553  47.432  1.00  0.00     0.025 C 
ENDBRANCH  13  26
BRANCH   1  31
HETATM   31  O   UNL     1      31.845  44.231  56.525  1.00  0.00    -0.356 OA
HETATM   32  C   UNL     1      31.971  43.022  57.262  1.00  0.00     0.210 C 
ENDBRANCH   1  31
TORSDOF 3
ENDMDL
MODEL 3
REMARK VINA RESULT:      -9.3      2.938      8.749
REMARK  3 active torsions:
REMARK  status: ('A' for Active; 'I' for Inactive)
REMARK    1  A    between atoms: O_2  and  C_3 
REMARK       I    between atoms: N_13  and  C_14 
REMARK       I    between atoms: C_14  and  N_15 
REMARK    2  A    between atoms: N_15  and  C_16 
REMARK    3  A    between atoms: C_22  and  C_23 
ROOT
HETATM    1  C   UNL     1      29.212  45.293  55.373  1.00  0.00     0.069 A 
HETATM    2  C   UNL     1      28.457  44.537  54.468  1.00  0.00     0.051 A 
HETATM    3  C   UNL     1      27.383  45.135  53.780  1.00  0.00     0.002 A 
HETATM    4  C   UNL     1      27.076  46.471  54.046  1.00  0.00     0.043 A 
HETATM    5  N   UNL     1      26.011  46.817  53.243  1.00  0.00    -0.356 N 
HETATM    6  H   UNL     1      25.603  47.741  53.202  1.00  0.00     0.166 HD
HETATM    7  C   UNL     1      25.676  45.764  52.430  1.00  0.00     0.045 A 
HETATM    8  C   UNL     1      26.480  44.699  52.778  1.00  0.00    -0.019 A 
HETATM    9  C   UNL     1      26.364  43.400  52.078  1.00  0.00     0.061 C 
HETATM   10  C   UNL     1      24.981  43.306  51.420  1.00  0.00     0.133 C 
HETATM   11  N   UNL     1      24.613  44.494  50.613  1.00  0.00    -0.320 N 
HETATM   12  C   UNL     1      23.623  44.216  49.661  1.00  0.00     0.319 C 
HETATM   13  N   UNL     1      23.371  45.231  48.778  1.00  0.00    -0.338 N 
HETATM   14  O   UNL     1      23.063  43.125  49.584  1.00  0.00    -0.247 OA
HETATM   15  C   UNL     1      24.655  45.817  51.317  1.00  0.00     0.172 C 
HETATM   16  C   UNL     1      27.797  47.234  54.971  1.00  0.00     0.033 A 
HETATM   17  C   UNL     1      28.873  46.623  55.627  1.00  0.00     0.039 A 
HETATM   18  H   UNL     1      24.186  45.797  48.602  1.00  0.00     0.164 HD
ENDROOT
BRANCH  15  19
HETATM   19  C   UNL     1      24.979  47.007  50.415  1.00  0.00    -0.029 A 
HETATM   20  C   UNL     1      26.309  47.257  50.028  1.00  0.00     0.012 A 
HETATM   21  C   UNL     1      26.611  48.338  49.198  1.00  0.00     0.043 A 
HETATM   22  C   UNL     1      25.589  49.165  48.748  1.00  0.00     0.116 A 
HETATM   23  F   UNL     1      25.884  50.200  47.949  1.00  0.00    -0.206 F 
HETATM   24  C   UNL     1      24.269  48.936  49.112  1.00  0.00     0.043 A 
HETATM   25  C   UNL     1      23.962  47.859  49.944  1.00  0.00     0.012 A 
ENDBRANCH  15  19
BRANCH  13  26
HETATM   26  C   UNL     1      22.501  45.116  47.624  1.00  0.00     0.086 C 
HETATM   27  C   UNL     1      21.896  46.434  47.148  1.00  0.00     0.025 C 
HETATM   28  C   UNL     1      21.286  46.054  45.807  1.00  0.00     0.002 C 
HETATM   29  C   UNL     1      22.234  45.012  45.215  1.00  0.00     0.002 C 
HETATM   30  C   UNL     1      23.118  44.517  46.363  1.00  0.00     0.025 C 
ENDBRANCH  13  26
BRANCH   1  31
HETATM   31  O   UNL     1      30.251  44.612  55.951  1.00  0.00    -0.356 OA
HETATM   32  C   UNL     1      30.613  43.377  55.347  1.00  0.00     0.210 C 
ENDBRANCH   1  31
TORSDOF 3
ENDMDL
MODEL 4
REMARK VINA RESULT:      -9.0      3.572      8.306
REMARK  3 active torsions:
REMARK  status: ('A' for Active; 'I' for Inactive)
REMARK    1  A    between atoms: O_2  and  C_3 
REMARK       I    between atoms: N_13  and  C_14 
REMARK       I    between atoms: C_14  and  N_15 
REMARK    2  A    between atoms: N_15  and  C_16 
REMARK    3  A    between atoms: C_22  and  C_23 
ROOT
HETATM    1  C   UNL     1      29.882  45.596  56.692  1.00  0.00     0.069 A 
HETATM    2  C   UNL     1      30.076  44.585  55.742  1.00  0.00     0.051 A 
HETATM    3  C   UNL     1      29.010  44.192  54.910  1.00  0.00     0.002 A 
HETATM    4  C   UNL     1      27.767  44.804  55.076  1.00  0.00     0.043 A 
HETATM    5  N   UNL     1      26.912  44.262  54.141  1.00  0.00    -0.356 N 
HETATM    6  H   UNL     1      25.951  44.550  54.011  1.00  0.00     0.166 HD
HETATM    7  C   UNL     1      27.590  43.374  53.345  1.00  0.00     0.045 A 
HETATM    8  C   UNL     1      28.877  43.280  53.833  1.00  0.00    -0.019 A 
HETATM    9  C   UNL     1      29.870  42.393  53.185  1.00  0.00     0.061 C 
HETATM   10  C   UNL     1      29.131  41.317  52.379  1.00  0.00     0.133 C 
HETATM   11  N   UNL     1      28.079  41.849  51.480  1.00  0.00    -0.320 N 
HETATM   12  C   UNL     1      27.764  40.969  50.436  1.00  0.00     0.319 C 
HETATM   13  N   UNL     1      26.926  41.483  49.484  1.00  0.00    -0.338 N 
HETATM   14  O   UNL     1      28.247  39.844  50.347  1.00  0.00    -0.247 OA
HETATM   15  C   UNL     1      27.020  42.694  52.122  1.00  0.00     0.172 C 
HETATM   16  C   UNL     1      27.543  45.793  56.040  1.00  0.00     0.033 A 
HETATM   17  C   UNL     1      28.624  46.181  56.843  1.00  0.00     0.039 A 
HETATM   18  H   UNL     1      27.033  42.479  49.375  1.00  0.00     0.164 HD
ENDROOT
BRANCH  15  19
HETATM   19  C   UNL     1      26.418  43.760  51.208  1.00  0.00    -0.029 A 
HETATM   20  C   UNL     1      25.021  43.845  51.048  1.00  0.00     0.012 A 
HETATM   21  C   UNL     1      24.464  44.822  50.222  1.00  0.00     0.043 A 
HETATM   22  C   UNL     1      25.295  45.718  49.560  1.00  0.00     0.116 A 
HETATM   23  F   UNL     1      24.756  46.655  48.769  1.00  0.00    -0.206 F 
HETATM   24  C   UNL     1      26.675  45.657  49.706  1.00  0.00     0.043 A 
HETATM   25  C   UNL     1      27.238  44.681  50.529  1.00  0.00     0.012 A 
ENDBRANCH  15  19
BRANCH  13  26
HETATM   26  C   UNL     1      26.584  40.811  48.244  1.00  0.00     0.086 C 
HETATM   27  C   UNL     1      25.264  41.254  47.622  1.00  0.00     0.025 C 
HETATM   28  C   UNL     1      25.313  40.612  46.244  1.00  0.00     0.002 C 
HETATM   29  C   UNL     1      26.784  40.659  45.832  1.00  0.00     0.002 C 
HETATM   30  C   UNL     1      27.590  40.938  47.103  1.00  0.00     0.025 C 
ENDBRANCH  13  26
BRANCH   1  31
HETATM   31  O   UNL     1      31.000  45.916  57.416  1.00  0.00    -0.356 OA
HETATM   32  C   UNL     1      31.494  44.912  58.293  1.00  0.00     0.210 C 
ENDBRANCH   1  31
TORSDOF 3
ENDMDL
MODEL 5
REMARK VINA RESULT:      -8.7     16.767     18.668
REMARK  3 active torsions:
REMARK  status: ('A' for Active; 'I' for Inactive)
REMARK    1  A    between atoms: O_2  and  C_3 
REMARK       I    between atoms: N_13  and  C_14 
REMARK       I    between atoms: C_14  and  N_15 
REMARK    2  A    between atoms: N_15  and  C_16 
REMARK    3  A    between atoms: C_22  and  C_23 
ROOT
HETATM    1  C   UNL     1      37.570  50.725  67.262  1.00  0.00     0.069 A 
HETATM    2  C   UNL     1      37.050  49.428  67.160  1.00  0.00     0.051 A 
HETATM    3  C   UNL     1      37.625  48.511  66.259  1.00  0.00     0.002 A 
HETATM    4  C   UNL     1      38.688  48.932  65.459  1.00  0.00     0.043 A 
HETATM    5  N   UNL     1      39.075  47.856  64.689  1.00  0.00    -0.356 N 
HETATM    6  H   UNL     1      39.852  47.869  64.041  1.00  0.00     0.166 HD
HETATM    7  C   UNL     1      38.335  46.751  65.022  1.00  0.00     0.045 A 
HETATM    8  C   UNL     1      37.401  47.144  65.957  1.00  0.00    -0.019 A 
HETATM    9  C   UNL     1      36.440  46.171  66.525  1.00  0.00     0.061 C 
HETATM   10  C   UNL     1      36.311  44.978  65.569  1.00  0.00     0.133 C 
HETATM   11  N   UNL     1      37.608  44.405  65.136  1.00  0.00    -0.320 N 
HETATM   12  C   UNL     1      37.493  43.082  64.688  1.00  0.00     0.319 C 
HETATM   13  N   UNL     1      38.682  42.453  64.440  1.00  0.00    -0.338 N 
HETATM   14  O   UNL     1      36.412  42.509  64.581  1.00  0.00    -0.247 OA
HETATM   15  C   UNL     1      38.574  45.355  64.494  1.00  0.00     0.172 C 
HETATM   16  C   UNL     1      39.201  50.232  65.521  1.00  0.00     0.033 A 
HETATM   17  C   UNL     1      38.626  51.120  66.440  1.00  0.00     0.039 A 
HETATM   18  H   UNL     1      39.426  42.790  65.031  1.00  0.00     0.164 HD
ENDROOT
BRANCH  15  19
HETATM   19  C   UNL     1      40.046  45.001  64.701  1.00  0.00    -0.029 A 
HETATM   20  C   UNL     1      40.912  44.908  63.595  1.00  0.00     0.012 A 
HETATM   21  C   UNL     1      42.259  44.594  63.778  1.00  0.00     0.043 A 
HETATM   22  C   UNL     1      42.746  44.378  65.062  1.00  0.00     0.116 A 
HETATM   23  F   UNL     1      44.040  44.078  65.233  1.00  0.00    -0.206 F 
HETATM   24  C   UNL     1      41.913  44.468  66.169  1.00  0.00     0.043 A 
HETATM   25  C   UNL     1      40.564  44.780  65.991  1.00  0.00     0.012 A 
ENDBRANCH  15  19
BRANCH  13  26
HETATM   26  C   UNL     1      38.813  41.046  64.114  1.00  0.00     0.086 C 
HETATM   27  C   UNL     1      39.266  40.762  62.685  1.00  0.00     0.025 C 
HETATM   28  C   UNL     1      39.577  39.274  62.724  1.00  0.00     0.002 C 
HETATM   29  C   UNL     1      40.145  39.019  64.120  1.00  0.00     0.002 C 
HETATM   30  C   UNL     1      39.777  40.235  64.975  1.00  0.00     0.025 C 
ENDBRANCH  13  26
BRANCH   1  31
HETATM   31  O   UNL     1      36.952  51.512  68.197  1.00  0.00    -0.356 OA
HETATM   32  C   UNL     1      37.393  52.861  68.279  1.00  0.00     0.210 C 
ENDBRANCH   1  31
TORSDOF 3
ENDMDL
MODEL 6
REMARK VINA RESULT:      -8.7      2.595      8.226
REMARK  3 active torsions:
REMARK  status: ('A' for Active; 'I' for Inactive)
REMARK    1  A    between atoms: O_2  and  C_3 
REMARK       I    between atoms: N_13  and  C_14 
REMARK       I    between atoms: C_14  and  N_15 
REMARK    2  A    between atoms: N_15  and  C_16 
REMARK    3  A    between atoms: C_22  and  C_23 
ROOT
HETATM    1  C   UNL     1      29.240  43.526  54.507  1.00  0.00     0.069 A 
HETATM    2  C   UNL     1      28.373  44.572  54.164  1.00  0.00     0.051 A 
HETATM    3  C   UNL     1      27.786  44.606  52.885  1.00  0.00     0.002 A 
HETATM    4  C   UNL     1      28.112  43.603  51.970  1.00  0.00     0.043 A 
HETATM    5  N   UNL     1      27.401  43.852  50.815  1.00  0.00    -0.356 N 
HETATM    6  H   UNL     1      27.418  43.259  49.996  1.00  0.00     0.166 HD
HETATM    7  C   UNL     1      26.587  44.942  50.992  1.00  0.00     0.045 A 
HETATM    8  C   UNL     1      26.844  45.451  52.247  1.00  0.00    -0.019 A 
HETATM    9  C   UNL     1      26.118  46.643  52.745  1.00  0.00     0.061 C 
HETATM   10  C   UNL     1      25.565  47.429  51.549  1.00  0.00     0.133 C 
HETATM   11  N   UNL     1      24.821  46.599  50.571  1.00  0.00    -0.320 N 
HETATM   12  C   UNL     1      23.940  47.352  49.783  1.00  0.00     0.319 C 
HETATM   13  N   UNL     1      23.108  46.614  48.986  1.00  0.00    -0.338 N 
HETATM   14  O   UNL     1      23.876  48.577  49.844  1.00  0.00    -0.247 OA
HETATM   15  C   UNL     1      25.557  45.425  49.998  1.00  0.00     0.172 C 
HETATM   16  C   UNL     1      29.000  42.568  52.280  1.00  0.00     0.033 A 
HETATM   17  C   UNL     1      29.555  42.545  53.567  1.00  0.00     0.039 A 
HETATM   18  H   UNL     1      22.886  45.717  49.388  1.00  0.00     0.164 HD
ENDROOT
BRANCH  15  19
HETATM   19  C   UNL     1      24.667  44.247  49.606  1.00  0.00    -0.029 A 
HETATM   20  C   UNL     1      24.737  43.711  48.306  1.00  0.00     0.012 A 
HETATM   21  C   UNL     1      23.933  42.629  47.945  1.00  0.00     0.043 A 
HETATM   22  C   UNL     1      23.064  42.077  48.878  1.00  0.00     0.116 A 
HETATM   23  F   UNL     1      22.295  41.037  48.527  1.00  0.00    -0.206 F 
HETATM   24  C   UNL     1      22.980  42.585  50.168  1.00  0.00     0.043 A 
HETATM   25  C   UNL     1      23.780  43.668  50.534  1.00  0.00     0.012 A 
ENDBRANCH  15  19
BRANCH  13  26
HETATM   26  C   UNL     1      22.020  47.168  48.202  1.00  0.00     0.086 C 
HETATM   27  C   UNL     1      21.635  46.346  46.976  1.00  0.00     0.025 C 
HETATM   28  C   UNL     1      20.333  46.997  46.535  1.00  0.00     0.002 C 
HETATM   29  C   UNL     1      19.637  47.419  47.829  1.00  0.00     0.002 C 
HETATM   30  C   UNL     1      20.697  47.383  48.932  1.00  0.00     0.025 C 
ENDBRANCH  13  26
BRANCH   1  31
HETATM   31  O   UNL     1      29.718  43.583  55.789  1.00  0.00    -0.356 OA
HETATM   32  C   UNL     1      31.025  44.117  55.954  1.00  0.00     0.210 C 
ENDBRANCH   1  31
TORSDOF 3
ENDMDL
MODEL 7
REMARK VINA RESULT:      -8.3      4.237      8.578
REMARK  3 active torsions:
REMARK  status: ('A' for Active; 'I' for Inactive)
REMARK    1  A    between atoms: O_2  and  C_3 
REMARK       I    between atoms: N_13  and  C_14 
REMARK       I    between atoms: C_14  and  N_15 
REMARK    2  A    between atoms: N_15  and  C_16 
REMARK    3  A    between atoms: C_22  and  C_23 
ROOT
HETATM    1  C   UNL     1      28.974  39.117  50.924  1.00  0.00     0.069 A 
HETATM    2  C   UNL     1      27.883  39.426  50.101  1.00  0.00     0.051 A 
HETATM    3  C   UNL     1      27.025  40.489  50.445  1.00  0.00     0.002 A 
HETATM    4  C   UNL     1      27.268  41.192  51.625  1.00  0.00     0.043 A 
HETATM    5  N   UNL     1      26.310  42.179  51.721  1.00  0.00    -0.356 N 
HETATM    6  H   UNL     1      26.269  42.865  52.463  1.00  0.00     0.166 HD
HETATM    7  C   UNL     1      25.510  42.164  50.607  1.00  0.00     0.045 A 
HETATM    8  C   UNL     1      25.904  41.098  49.827  1.00  0.00    -0.019 A 
HETATM    9  C   UNL     1      25.229  40.807  48.542  1.00  0.00     0.061 C 
HETATM   10  C   UNL     1      23.836  41.450  48.551  1.00  0.00     0.133 C 
HETATM   11  N   UNL     1      23.829  42.875  48.960  1.00  0.00    -0.320 N 
HETATM   12  C   UNL     1      22.692  43.561  48.513  1.00  0.00     0.319 C 
HETATM   13  N   UNL     1      22.719  44.914  48.715  1.00  0.00    -0.338 N 
HETATM   14  O   UNL     1      21.765  43.002  47.931  1.00  0.00    -0.247 OA
HETATM   15  C   UNL     1      24.445  43.189  50.290  1.00  0.00     0.172 C 
HETATM   16  C   UNL     1      28.332  40.880  52.478  1.00  0.00     0.033 A 
HETATM   17  C   UNL     1      29.184  39.831  52.104  1.00  0.00     0.039 A 
HETATM   18  H   UNL     1      23.654  45.287  48.689  1.00  0.00     0.164 HD
ENDROOT
BRANCH  15  19
HETATM   19  C   UNL     1      25.064  44.582  50.391  1.00  0.00    -0.029 A 
HETATM   20  C   UNL     1      26.087  44.965  49.503  1.00  0.00     0.012 A 
HETATM   21  C   UNL     1      26.651  46.239  49.584  1.00  0.00     0.043 A 
HETATM   22  C   UNL     1      26.193  47.134  50.544  1.00  0.00     0.116 A 
HETATM   23  F   UNL     1      26.737  48.356  50.617  1.00  0.00    -0.206 F 
HETATM   24  C   UNL     1      25.182  46.781  51.428  1.00  0.00     0.043 A 
HETATM   25  C   UNL     1      24.616  45.508  51.353  1.00  0.00     0.012 A 
ENDBRANCH  15  19
BRANCH  13  26
HETATM   26  C   UNL     1      21.725  45.839  48.204  1.00  0.00     0.086 C 
HETATM   27  C   UNL     1      20.342  45.701  48.833  1.00  0.00     0.025 C 
HETATM   28  C   UNL     1      19.621  46.940  48.326  1.00  0.00     0.002 C 
HETATM   29  C   UNL     1      20.690  48.032  48.269  1.00  0.00     0.002 C 
HETATM   30  C   UNL     1      22.046  47.325  48.342  1.00  0.00     0.025 C 
ENDBRANCH  13  26
BRANCH   1  31
HETATM   31  O   UNL     1      29.756  38.089  50.466  1.00  0.00    -0.356 OA
HETATM   32  C   UNL     1      30.143  38.148  49.100  1.00  0.00     0.210 C 
ENDBRANCH   1  31
TORSDOF 3
ENDMDL
MODEL 8
REMARK VINA RESULT:      -8.2      5.316      9.385
REMARK  3 active torsions:
REMARK  status: ('A' for Active; 'I' for Inactive)
REMARK    1  A    between atoms: O_2  and  C_3 
REMARK       I    between atoms: N_13  and  C_14 
REMARK       I    between atoms: C_14  and  N_15 
REMARK    2  A    between atoms: N_15  and  C_16 
REMARK    3  A    between atoms: C_22  and  C_23 
ROOT
HETATM    1  C   UNL     1      25.270  41.355  49.700  1.00  0.00     0.069 A 
HETATM    2  C   UNL     1      25.176  42.688  50.118  1.00  0.00     0.051 A 
HETATM    3  C   UNL     1      24.510  43.631  49.311  1.00  0.00     0.002 A 
HETATM    4  C   UNL     1      23.983  43.214  48.087  1.00  0.00     0.043 A 
HETATM    5  N   UNL     1      23.376  44.307  47.506  1.00  0.00    -0.356 N 
HETATM    6  H   UNL     1      22.878  44.283  46.627  1.00  0.00     0.166 HD
HETATM    7  C   UNL     1      23.443  45.385  48.352  1.00  0.00     0.045 A 
HETATM    8  C   UNL     1      24.181  45.002  49.453  1.00  0.00    -0.019 A 
HETATM    9  C   UNL     1      24.438  45.951  50.561  1.00  0.00     0.061 C 
HETATM   10  C   UNL     1      24.271  47.385  50.042  1.00  0.00     0.133 C 
HETATM   11  N   UNL     1      23.013  47.616  49.291  1.00  0.00    -0.320 N 
HETATM   12  C   UNL     1      22.648  48.968  49.251  1.00  0.00     0.319 C 
HETATM   13  N   UNL     1      21.411  49.214  48.720  1.00  0.00    -0.338 N 
HETATM   14  O   UNL     1      23.356  49.861  49.708  1.00  0.00    -0.247 OA
HETATM   15  C   UNL     1      22.762  46.714  48.121  1.00  0.00     0.172 C 
HETATM   16  C   UNL     1      24.094  41.895  47.635  1.00  0.00     0.033 A 
HETATM   17  C   UNL     1      24.744  40.971  48.465  1.00  0.00     0.039 A 
HETATM   18  H   UNL     1      20.766  48.456  48.880  1.00  0.00     0.164 HD
ENDROOT
BRANCH  15  19
HETATM   19  C   UNL     1      21.285  46.458  47.821  1.00  0.00    -0.029 A 
HETATM   20  C   UNL     1      20.738  46.849  46.585  1.00  0.00     0.012 A 
HETATM   21  C   UNL     1      19.392  46.611  46.302  1.00  0.00     0.043 A 
HETATM   22  C   UNL     1      18.593  45.978  47.246  1.00  0.00     0.116 A 
HETATM   23  F   UNL     1      17.302  45.750  46.969  1.00  0.00    -0.206 F 
HETATM   24  C   UNL     1      19.111  45.578  48.471  1.00  0.00     0.043 A 
HETATM   25  C   UNL     1      20.455  45.816  48.760  1.00  0.00     0.012 A 
ENDBRANCH  15  19
BRANCH  13  26
HETATM   26  C   UNL     1      20.766  50.513  48.713  1.00  0.00     0.086 C 
HETATM   27  C   UNL     1      19.733  50.706  47.607  1.00  0.00     0.025 C 
HETATM   28  C   UNL     1      19.048  52.002  48.013  1.00  0.00     0.002 C 
HETATM   29  C   UNL     1      19.019  51.978  49.542  1.00  0.00     0.002 C 
HETATM   30  C   UNL     1      20.022  50.910  49.985  1.00  0.00     0.025 C 
ENDBRANCH  13  26
BRANCH   1  31
HETATM   31  O   UNL     1      25.907  40.527  50.585  1.00  0.00    -0.356 OA
HETATM   32  C   UNL     1      26.996  41.089  51.306  1.00  0.00     0.210 C 
ENDBRANCH   1  31
TORSDOF 3
ENDMDL
MODEL 9
REMARK VINA RESULT:      -8.2      3.353      5.188
REMARK  3 active torsions:
REMARK  status: ('A' for Active; 'I' for Inactive)
REMARK    1  A    between atoms: O_2  and  C_3 
REMARK       I    between atoms: N_13  and  C_14 
REMARK       I    between atoms: C_14  and  N_15 
REMARK    2  A    between atoms: N_15  and  C_16 
REMARK    3  A    between atoms: C_22  and  C_23 
ROOT
HETATM    1  C   UNL     1      20.149  48.306  48.225  1.00  0.00     0.069 A 
HETATM    2  C   UNL     1      20.863  47.102  48.173  1.00  0.00     0.051 A 
HETATM    3  C   UNL     1      22.178  47.044  48.676  1.00  0.00     0.002 A 
HETATM    4  C   UNL     1      22.752  48.208  49.190  1.00  0.00     0.043 A 
HETATM    5  N   UNL     1      24.019  47.884  49.627  1.00  0.00    -0.356 N 
HETATM    6  H   UNL     1      24.649  48.532  50.081  1.00  0.00     0.166 HD
HETATM    7  C   UNL     1      24.239  46.540  49.468  1.00  0.00     0.045 A 
HETATM    8  C   UNL     1      23.133  46.009  48.838  1.00  0.00    -0.019 A 
HETATM    9  C   UNL     1      23.061  44.565  48.520  1.00  0.00     0.061 C 
HETATM   10  C   UNL     1      24.482  43.988  48.481  1.00  0.00     0.133 C 
HETATM   11  N   UNL     1      25.309  44.335  49.662  1.00  0.00    -0.320 N 
HETATM   12  C   UNL     1      26.376  43.447  49.854  1.00  0.00     0.319 C 
HETATM   13  N   UNL     1      27.065  43.620  51.024  1.00  0.00    -0.338 N 
HETATM   14  O   UNL     1      26.640  42.545  49.064  1.00  0.00    -0.247 OA
HETATM   15  C   UNL     1      25.457  45.795  49.967  1.00  0.00     0.172 C 
HETATM   16  C   UNL     1      22.069  49.428  49.222  1.00  0.00     0.033 A 
HETATM   17  C   UNL     1      20.755  49.456  48.734  1.00  0.00     0.039 A 
HETATM   18  H   UNL     1      26.482  43.976  51.764  1.00  0.00     0.164 HD
ENDROOT
BRANCH  15  19
HETATM   19  C   UNL     1      25.653  46.119  51.447  1.00  0.00    -0.029 A 
HETATM   20  C   UNL     1      26.480  47.192  51.830  1.00  0.00     0.012 A 
HETATM   21  C   UNL     1      26.657  47.499  53.180  1.00  0.00     0.043 A 
HETATM   22  C   UNL     1      26.006  46.742  54.148  1.00  0.00     0.116 A 
HETATM   23  F   UNL     1      26.177  47.041  55.442  1.00  0.00    -0.206 F 
HETATM   24  C   UNL     1      25.181  45.682  53.794  1.00  0.00     0.043 A 
HETATM   25  C   UNL     1      25.003  45.370  52.446  1.00  0.00     0.012 A 
ENDBRANCH  15  19
BRANCH  13  26
HETATM   26  C   UNL     1      28.107  42.730  51.501  1.00  0.00     0.086 C 
HETATM   27  C   UNL     1      29.088  43.364  52.482  1.00  0.00     0.025 C 
HETATM   28  C   UNL     1      29.858  42.162  53.006  1.00  0.00     0.002 C 
HETATM   29  C   UNL     1      28.838  41.025  53.063  1.00  0.00     0.002 C 
HETATM   30  C   UNL     1      27.643  41.461  52.211  1.00  0.00     0.025 C 
ENDBRANCH  13  26
BRANCH   1  31
HETATM   31  O   UNL     1      18.871  48.228  47.740  1.00  0.00    -0.356 OA
HETATM   32  C   UNL     1      17.827  48.235  48.705  1.00  0.00     0.210 C 
ENDBRANCH   1  31
TORSDOF 3
ENDMDL
MODEL 10
REMARK VINA RESULT:      -8.1      3.069      4.402
REMARK  3 active torsions:
REMARK  status: ('A' for Active; 'I' for Inactive)
REMARK    1  A    between atoms: O_2  and  C_3 
REMARK       I    between atoms: N_13  and  C_14 
REMARK       I    between atoms: C_14  and  N_15 
REMARK    2  A    between atoms: N_15  and  C_16 
REMARK    3  A    between atoms: C_22  and  C_23 
ROOT
HETATM    1  C   UNL     1      22.426  41.581  47.601  1.00  0.00     0.069 A 
HETATM    2  C   UNL     1      23.468  41.147  48.431  1.00  0.00     0.051 A 
HETATM    3  C   UNL     1      24.418  42.072  48.905  1.00  0.00     0.002 A 
HETATM    4  C   UNL     1      24.314  43.406  48.505  1.00  0.00     0.043 A 
HETATM    5  N   UNL     1      25.339  44.099  49.113  1.00  0.00    -0.356 N 
HETATM    6  H   UNL     1      25.482  45.097  49.028  1.00  0.00     0.166 HD
HETATM    7  C   UNL     1      26.048  43.261  49.935  1.00  0.00     0.045 A 
HETATM    8  C   UNL     1      25.525  41.994  49.786  1.00  0.00    -0.019 A 
HETATM    9  C   UNL     1      26.079  40.850  50.547  1.00  0.00     0.061 C 
HETATM   10  C   UNL     1      27.508  41.189  50.993  1.00  0.00     0.133 C 
HETATM   11  N   UNL     1      27.639  42.510  51.652  1.00  0.00    -0.320 N 
HETATM   12  C   UNL     1      28.781  42.600  52.459  1.00  0.00     0.319 C 
HETATM   13  N   UNL     1      28.859  43.733  53.222  1.00  0.00    -0.338 N 
HETATM   14  O   UNL     1      29.621  41.706  52.524  1.00  0.00    -0.247 OA
HETATM   15  C   UNL     1      27.150  43.695  50.874  1.00  0.00     0.172 C 
HETATM   16  C   UNL     1      23.301  43.854  47.651  1.00  0.00     0.033 A 
HETATM   17  C   UNL     1      22.356  42.918  47.209  1.00  0.00     0.039 A 
HETATM   18  H   UNL     1      27.951  44.085  53.481  1.00  0.00     0.164 HD
ENDROOT
BRANCH  15  19
HETATM   19  C   UNL     1      26.634  44.849  51.731  1.00  0.00    -0.029 A 
HETATM   20  C   UNL     1      25.974  44.584  52.947  1.00  0.00     0.012 A 
HETATM   21  C   UNL     1      25.507  45.634  53.739  1.00  0.00     0.043 A 
HETATM   22  C   UNL     1      25.701  46.947  53.325  1.00  0.00     0.116 A 
HETATM   23  F   UNL     1      25.253  47.951  54.090  1.00  0.00    -0.206 F 
HETATM   24  C   UNL     1      26.353  47.233  52.133  1.00  0.00     0.043 A 
HETATM   25  C   UNL     1      26.820  46.187  51.336  1.00  0.00     0.012 A 
ENDBRANCH  15  19
BRANCH  13  26
HETATM   26  C   UNL     1      29.868  43.971  54.236  1.00  0.00     0.086 C 
HETATM   27  C   UNL     1      29.509  45.049  55.254  1.00  0.00     0.025 C 
HETATM   28  C   UNL     1      30.587  44.879  56.314  1.00  0.00     0.002 C 
HETATM   29  C   UNL     1      30.865  43.377  56.366  1.00  0.00     0.002 C 
HETATM   30  C   UNL     1      30.267  42.773  55.093  1.00  0.00     0.025 C 
ENDBRANCH  13  26
BRANCH   1  31
HETATM   31  O   UNL     1      21.546  40.597  47.235  1.00  0.00    -0.356 OA
HETATM   32  C   UNL     1      20.897  40.764  45.981  1.00  0.00     0.210 C 
ENDBRANCH   1  31
TORSDOF 3
ENDMDL
