MODEL 1
REMARK VINA RESULT:     -10.2      0.000      0.000
REMARK  8 active torsions:
REMARK  status: ('A' for Active; 'I' for Inactive)
REMARK    1  A    between atoms: C_3  and  S_4 
REMARK    2  A    between atoms: S_4  and  C_5 
REMARK    3  A    between atoms: C_5  and  C_6 
REMARK       I    between atoms: C_6  and  N_7 
REMARK    4  A    between atoms: N_7  and  C_8 
REMARK    5  A    between atoms: C_8  and  C_9 
REMARK    6  A    between atoms: C_17  and  C_18 
REMARK    7  A    between atoms: C_18  and  O_19 
REMARK    8  A    between atoms: O_19  and  C_20 
ROOT
HETATM    1  C   UNL     1      25.037  45.366  52.442  1.00  0.00     0.160 C 
HETATM    2  N   UNL     1      25.928  45.292  51.313  1.00  0.00    -0.314 N 
HETATM    3  C   UNL     1      25.991  46.107  50.218  1.00  0.00     0.191 A 
HETATM    4  N   UNL     1      26.945  45.697  49.416  1.00  0.00    -0.123 NA
HETATM    5  N   UNL     1      27.546  44.612  49.995  1.00  0.00    -0.132 NA
HETATM    6  C   UNL     1      26.931  44.363  51.135  1.00  0.00     0.154 A 
ENDROOT
BRANCH   3   7
HETATM    7  S   UNL     1      24.981  47.485  49.960  1.00  0.00    -0.081 SA
BRANCH   7   8
HETATM    8  C   UNL     1      26.157  48.658  49.223  1.00  0.00     0.185 C 
BRANCH   8   9
HETATM    9  C   UNL     1      25.430  49.691  48.379  1.00  0.00     0.227 C 
HETATM   10  N   UNL     1      24.160  49.996  48.814  1.00  0.00    -0.354 N 
HETATM   11  H   UNL     1      23.705  49.315  49.422  1.00  0.00     0.162 HD
HETATM   12  O   UNL     1      25.940  50.210  47.388  1.00  0.00    -0.273 OA
BRANCH  10  13
HETATM   13  C   UNL     1      23.314  50.870  48.036  1.00  0.00     0.187 C 
BRANCH  13  14
HETATM   14  C   UNL     1      21.999  51.016  48.706  1.00  0.00     0.070 A 
HETATM   15  O   UNL     1      21.961  50.785  50.051  1.00  0.00    -0.325 OA
HETATM   16  C   UNL     1      20.677  50.980  50.450  1.00  0.00     0.142 A 
HETATM   17  C   UNL     1      19.887  51.338  49.384  1.00  0.00     0.027 A 
HETATM   18  C   UNL     1      20.740  51.366  48.256  1.00  0.00     0.036 A 
ENDBRANCH  13  14
ENDBRANCH  10  13
ENDBRANCH   8   9
ENDBRANCH   7   8
ENDBRANCH   3   7
BRANCH   6  19
HETATM   19  C   UNL     1      27.271  43.277  52.094  1.00  0.00     0.256 C 
BRANCH  19  20
HETATM   20  O   UNL     1      28.678  43.350  52.317  1.00  0.00    -0.344 OA
BRANCH  20  21
HETATM   21  C   UNL     1      29.073  43.786  53.552  1.00  0.00     0.070 A 
HETATM   22  C   UNL     1      30.076  43.211  54.335  1.00  0.00     0.049 A 
HETATM   23  C   UNL     1      30.398  43.744  55.597  1.00  0.00    -0.023 A 
HETATM   24  C   UNL     1      29.702  44.879  56.071  1.00  0.00    -0.026 A 
HETATM   25  C   UNL     1      31.399  43.173  56.400  1.00  0.00     0.012 A 
HETATM   26  C   UNL     1      28.708  45.457  55.268  1.00  0.00     0.015 A 
HETATM   27  C   UNL     1      30.018  45.405  57.333  1.00  0.00     0.012 A 
HETATM   28  C   UNL     1      28.403  44.917  54.018  1.00  0.00     0.037 A 
HETATM   29  C   UNL     1      31.013  44.822  58.120  1.00  0.00     0.001 A 
HETATM   30  C   UNL     1      31.703  43.707  57.653  1.00  0.00     0.001 A 
ENDBRANCH  20  21
ENDBRANCH  19  20
ENDBRANCH   6  19
TORSDOF 8
ENDMDL
MODEL 2
REMARK VINA RESULT:     -10.1      2.234      3.275
REMARK  8 active torsions:
REMARK  status: ('A' for Active; 'I' for Inactive)
REMARK    1  A    between atoms: C_3  and  S_4 
REMARK    2  A    between atoms: S_4  and  C_5 
REMARK    3  A    between atoms: C_5  and  C_6 
REMARK       I    between atoms: C_6  and  N_7 
REMARK    4  A    between atoms: N_7  and  C_8 
REMARK    5  A    between atoms: C_8  and  C_9 
REMARK    6  A    between atoms: C_17  and  C_18 
REMARK    7  A    between atoms: C_18  and  O_19 
REMARK    8  A    between atoms: O_19  and  C_20 
ROOT
HETATM    1  C   UNL     1      26.618  42.879  49.584  1.00  0.00     0.160 C 
HETATM    2  N   UNL     1      25.631  43.495  50.433  1.00  0.00    -0.314 N 
HETATM    3  C   UNL     1      24.418  44.023  50.091  1.00  0.00     0.191 A 
HETATM    4  N   UNL     1      23.821  44.488  51.163  1.00  0.00    -0.123 NA
HETATM    5  N   UNL     1      24.632  44.243  52.238  1.00  0.00    -0.132 NA
HETATM    6  C   UNL     1      25.726  43.649  51.800  1.00  0.00     0.154 A 
ENDROOT
BRANCH   3   7
HETATM    7  S   UNL     1      23.769  44.038  48.490  1.00  0.00    -0.081 SA
BRANCH   7   8
HETATM    8  C   UNL     1      22.260  45.022  48.724  1.00  0.00     0.185 C 
BRANCH   8   9
HETATM    9  C   UNL     1      22.505  46.479  48.369  1.00  0.00     0.227 C 
HETATM   10  N   UNL     1      22.999  47.244  49.402  1.00  0.00    -0.354 N 
HETATM   11  H   UNL     1      22.856  46.890  50.348  1.00  0.00     0.162 HD
HETATM   12  O   UNL     1      22.280  46.932  47.250  1.00  0.00    -0.273 OA
BRANCH  10  13
HETATM   13  C   UNL     1      23.162  48.669  49.238  1.00  0.00     0.187 C 
BRANCH  13  14
HETATM   14  C   UNL     1      24.594  48.984  49.010  1.00  0.00     0.070 A 
HETATM   15  O   UNL     1      25.505  48.298  49.760  1.00  0.00    -0.325 OA
HETATM   16  C   UNL     1      26.735  48.733  49.386  1.00  0.00     0.142 A 
HETATM   17  C   UNL     1      26.632  49.688  48.402  1.00  0.00     0.027 A 
HETATM   18  C   UNL     1      25.249  49.848  48.154  1.00  0.00     0.036 A 
ENDBRANCH  13  14
ENDBRANCH  10  13
ENDBRANCH   8   9
ENDBRANCH   7   8
ENDBRANCH   3   7
BRANCH   6  19
HETATM   19  C   UNL     1      26.869  43.192  52.636  1.00  0.00     0.256 C 
BRANCH  19  20
HETATM   20  O   UNL     1      27.830  44.247  52.630  1.00  0.00    -0.344 OA
BRANCH  20  21
HETATM   21  C   UNL     1      28.476  44.483  53.812  1.00  0.00     0.070 A 
HETATM   22  C   UNL     1      29.503  43.702  54.347  1.00  0.00     0.049 A 
HETATM   23  C   UNL     1      30.096  44.040  55.578  1.00  0.00    -0.023 A 
HETATM   24  C   UNL     1      29.650  45.186  56.274  1.00  0.00    -0.026 A 
HETATM   25  C   UNL     1      31.125  43.261  56.133  1.00  0.00     0.012 A 
HETATM   26  C   UNL     1      28.629  45.970  55.718  1.00  0.00     0.015 A 
HETATM   27  C   UNL     1      30.237  45.517  57.506  1.00  0.00     0.012 A 
HETATM   28  C   UNL     1      28.053  45.623  54.495  1.00  0.00     0.037 A 
HETATM   29  C   UNL     1      31.256  44.730  58.044  1.00  0.00     0.001 A 
HETATM   30  C   UNL     1      31.700  43.603  57.359  1.00  0.00     0.001 A 
ENDBRANCH  20  21
ENDBRANCH  19  20
ENDBRANCH   6  19
TORSDOF 8
ENDMDL
MODEL 3
REMARK VINA RESULT:     -10.1      2.114      2.766
REMARK  8 active torsions:
REMARK  status: ('A' for Active; 'I' for Inactive)
REMARK    1  A    between atoms: C_3  and  S_4 
REMARK    2  A    between atoms: S_4  and  C_5 
REMARK    3  A    between atoms: C_5  and  C_6 
REMARK       I    between atoms: C_6  and  N_7 
REMARK    4  A    between atoms: N_7  and  C_8 
REMARK    5  A    between atoms: C_8  and  C_9 
REMARK    6  A    between atoms: C_17  and  C_18 
REMARK    7  A    between atoms: C_18  and  O_19 
REMARK    8  A    between atoms: O_19  and  C_20 
ROOT
HETATM    1  C   UNL     1      24.810  44.028  50.839  1.00  0.00     0.160 C 
HETATM    2  N   UNL     1      25.002  45.402  51.226  1.00  0.00    -0.314 N 
HETATM    3  C   UNL     1      24.576  46.536  50.594  1.00  0.00     0.191 A 
HETATM    4  N   UNL     1      24.959  47.592  51.273  1.00  0.00    -0.123 NA
HETATM    5  N   UNL     1      25.625  47.157  52.388  1.00  0.00    -0.132 NA
HETATM    6  C   UNL     1      25.657  45.838  52.359  1.00  0.00     0.154 A 
ENDROOT
BRANCH   3   7
HETATM    7  S   UNL     1      23.646  46.559  49.138  1.00  0.00    -0.081 SA
BRANCH   7   8
HETATM    8  C   UNL     1      23.150  48.305  49.056  1.00  0.00     0.185 C 
BRANCH   8   9
HETATM    9  C   UNL     1      21.660  48.431  48.790  1.00  0.00     0.227 C 
HETATM   10  N   UNL     1      20.937  48.978  49.826  1.00  0.00    -0.354 N 
HETATM   11  H   UNL     1      21.363  48.947  50.752  1.00  0.00     0.162 HD
HETATM   12  O   UNL     1      21.147  48.073  47.732  1.00  0.00    -0.273 OA
BRANCH  10  13
HETATM   13  C   UNL     1      19.496  49.042  49.754  1.00  0.00     0.187 C 
BRANCH  13  14
HETATM   14  C   UNL     1      19.074  50.434  49.463  1.00  0.00     0.070 A 
HETATM   15  O   UNL     1      18.076  50.951  50.238  1.00  0.00    -0.325 OA
HETATM   16  C   UNL     1      17.859  52.221  49.808  1.00  0.00     0.142 A 
HETATM   17  C   UNL     1      18.705  52.532  48.770  1.00  0.00     0.027 A 
HETATM   18  C   UNL     1      19.494  51.380  48.548  1.00  0.00     0.036 A 
ENDBRANCH  13  14
ENDBRANCH  10  13
ENDBRANCH   8   9
ENDBRANCH   7   8
ENDBRANCH   3   7
BRANCH   6  19
HETATM   19  C   UNL     1      26.272  44.954  53.385  1.00  0.00     0.256 C 
BRANCH  19  20
HETATM   20  O   UNL     1      27.616  44.717  52.972  1.00  0.00    -0.344 OA
BRANCH  20  21
HETATM   21  C   UNL     1      28.531  44.526  53.970  1.00  0.00     0.070 A 
HETATM   22  C   UNL     1      28.648  45.304  55.125  1.00  0.00     0.049 A 
HETATM   23  C   UNL     1      29.633  45.016  56.088  1.00  0.00    -0.023 A 
HETATM   24  C   UNL     1      30.507  43.924  55.886  1.00  0.00    -0.026 A 
HETATM   25  C   UNL     1      29.769  45.793  57.251  1.00  0.00     0.012 A 
HETATM   26  C   UNL     1      30.367  43.141  54.731  1.00  0.00     0.015 A 
HETATM   27  C   UNL     1      31.493  43.642  56.844  1.00  0.00     0.012 A 
HETATM   28  C   UNL     1      29.383  43.439  53.786  1.00  0.00     0.037 A 
HETATM   29  C   UNL     1      31.617  44.427  57.992  1.00  0.00     0.001 A 
HETATM   30  C   UNL     1      30.755  45.501  58.195  1.00  0.00     0.001 A 
ENDBRANCH  20  21
ENDBRANCH  19  20
ENDBRANCH   6  19
TORSDOF 8
ENDMDL
MODEL 4
REMARK VINA RESULT:     -10.0      2.172      2.622
REMARK  8 active torsions:
REMARK  status: ('A' for Active; 'I' for Inactive)
REMARK    1  A    between atoms: C_3  and  S_4 
REMARK    2  A    between atoms: S_4  and  C_5 
REMARK    3  A    between atoms: C_5  and  C_6 
REMARK       I    between atoms: C_6  and  N_7 
REMARK    4  A    between atoms: N_7  and  C_8 
REMARK    5  A    between atoms: C_8  and  C_9 
REMARK    6  A    between atoms: C_17  and  C_18 
REMARK    7  A    between atoms: C_18  and  O_19 
REMARK    8  A    between atoms: O_19  and  C_20 
ROOT
HETATM    1  C   UNL     1      24.260  44.221  51.017  1.00  0.00     0.160 C 
HETATM    2  N   UNL     1      24.746  45.559  51.235  1.00  0.00    -0.314 N 
HETATM    3  C   UNL     1      24.510  46.686  50.499  1.00  0.00     0.191 A 
HETATM    4  N   UNL     1      25.141  47.705  51.035  1.00  0.00    -0.123 NA
HETATM    5  N   UNL     1      25.783  47.259  52.159  1.00  0.00    -0.132 NA
HETATM    6  C   UNL     1      25.552  45.965  52.278  1.00  0.00     0.154 A 
ENDROOT
BRANCH   3   7
HETATM    7  S   UNL     1      23.504  46.750  49.097  1.00  0.00    -0.081 SA
BRANCH   7   8
HETATM    8  C   UNL     1      22.987  48.492  49.105  1.00  0.00     0.185 C 
BRANCH   8   9
HETATM    9  C   UNL     1      21.495  48.614  48.843  1.00  0.00     0.227 C 
HETATM   10  N   UNL     1      20.761  49.071  49.914  1.00  0.00    -0.354 N 
HETATM   11  H   UNL     1      21.185  48.979  50.837  1.00  0.00     0.162 HD
HETATM   12  O   UNL     1      20.991  48.325  47.760  1.00  0.00    -0.273 OA
BRANCH  10  13
HETATM   13  C   UNL     1      19.320  49.117  49.841  1.00  0.00     0.187 C 
BRANCH  13  14
HETATM   14  C   UNL     1      18.881  50.501  49.538  1.00  0.00     0.070 A 
HETATM   15  O   UNL     1      17.813  50.979  50.241  1.00  0.00    -0.325 OA
HETATM   16  C   UNL     1      17.592  52.249  49.813  1.00  0.00     0.142 A 
HETATM   17  C   UNL     1      18.505  52.599  48.846  1.00  0.00     0.027 A 
HETATM   18  C   UNL     1      19.341  51.472  48.669  1.00  0.00     0.036 A 
ENDBRANCH  13  14
ENDBRANCH  10  13
ENDBRANCH   8   9
ENDBRANCH   7   8
ENDBRANCH   3   7
BRANCH   6  19
HETATM   19  C   UNL     1      26.050  45.083  53.368  1.00  0.00     0.256 C 
BRANCH  19  20
HETATM   20  O   UNL     1      27.444  44.889  53.136  1.00  0.00    -0.344 OA
BRANCH  20  21
HETATM   21  C   UNL     1      28.254  44.946  54.237  1.00  0.00     0.070 A 
HETATM   22  C   UNL     1      29.266  44.036  54.548  1.00  0.00     0.049 A 
HETATM   23  C   UNL     1      30.039  44.192  55.714  1.00  0.00    -0.023 A 
HETATM   24  C   UNL     1      29.791  45.287  56.572  1.00  0.00    -0.026 A 
HETATM   25  C   UNL     1      31.056  43.281  56.046  1.00  0.00     0.012 A 
HETATM   26  C   UNL     1      28.783  46.203  56.239  1.00  0.00     0.015 A 
HETATM   27  C   UNL     1      30.558  45.438  57.738  1.00  0.00     0.012 A 
HETATM   28  C   UNL     1      28.027  46.035  55.077  1.00  0.00     0.037 A 
HETATM   29  C   UNL     1      31.561  44.520  58.055  1.00  0.00     0.001 A 
HETATM   30  C   UNL     1      31.810  43.443  57.210  1.00  0.00     0.001 A 
ENDBRANCH  20  21
ENDBRANCH  19  20
ENDBRANCH   6  19
TORSDOF 8
ENDMDL
MODEL 5
REMARK VINA RESULT:      -9.4      2.400      3.140
REMARK  8 active torsions:
REMARK  status: ('A' for Active; 'I' for Inactive)
REMARK    1  A    between atoms: C_3  and  S_4 
REMARK    2  A    between atoms: S_4  and  C_5 
REMARK    3  A    between atoms: C_5  and  C_6 
REMARK       I    between atoms: C_6  and  N_7 
REMARK    4  A    between atoms: N_7  and  C_8 
REMARK    5  A    between atoms: C_8  and  C_9 
REMARK    6  A    between atoms: C_17  and  C_18 
REMARK    7  A    between atoms: C_18  and  O_19 
REMARK    8  A    between atoms: O_19  and  C_20 
ROOT
HETATM    1  C   UNL     1      24.276  44.438  51.087  1.00  0.00     0.160 C 
HETATM    2  N   UNL     1      24.876  45.738  51.244  1.00  0.00    -0.314 N 
HETATM    3  C   UNL     1      24.688  46.864  50.493  1.00  0.00     0.191 A 
HETATM    4  N   UNL     1      25.424  47.840  50.969  1.00  0.00    -0.123 NA
HETATM    5  N   UNL     1      26.091  47.369  52.068  1.00  0.00    -0.132 NA
HETATM    6  C   UNL     1      25.767  46.101  52.232  1.00  0.00     0.154 A 
ENDROOT
BRANCH   3   7
HETATM    7  S   UNL     1      23.614  46.976  49.145  1.00  0.00    -0.081 SA
BRANCH   7   8
HETATM    8  C   UNL     1      23.585  48.771  48.858  1.00  0.00     0.185 C 
BRANCH   8   9
HETATM    9  C   UNL     1      22.291  49.378  49.372  1.00  0.00     0.227 C 
HETATM   10  N   UNL     1      21.156  48.670  49.046  1.00  0.00    -0.354 N 
HETATM   11  H   UNL     1      21.225  48.025  48.258  1.00  0.00     0.162 HD
HETATM   12  O   UNL     1      22.265  50.418  50.026  1.00  0.00    -0.273 OA
BRANCH  10  13
HETATM   13  C   UNL     1      19.851  49.199  49.366  1.00  0.00     0.187 C 
BRANCH  13  14
HETATM   14  C   UNL     1      18.810  48.204  49.009  1.00  0.00     0.070 A 
HETATM   15  O   UNL     1      17.509  48.598  49.140  1.00  0.00    -0.325 OA
HETATM   16  C   UNL     1      16.737  47.548  48.757  1.00  0.00     0.142 A 
HETATM   17  C   UNL     1      17.521  46.484  48.376  1.00  0.00     0.027 A 
HETATM   18  C   UNL     1      18.861  46.908  48.534  1.00  0.00     0.036 A 
ENDBRANCH  13  14
ENDBRANCH  10  13
ENDBRANCH   8   9
ENDBRANCH   7   8
ENDBRANCH   3   7
BRANCH   6  19
HETATM   19  C   UNL     1      26.254  45.207  53.317  1.00  0.00     0.256 C 
BRANCH  19  20
HETATM   20  O   UNL     1      27.538  44.734  52.914  1.00  0.00    -0.344 OA
BRANCH  20  21
HETATM   21  C   UNL     1      28.453  44.544  53.914  1.00  0.00     0.070 A 
HETATM   22  C   UNL     1      28.568  45.321  55.069  1.00  0.00     0.049 A 
HETATM   23  C   UNL     1      29.553  45.034  56.033  1.00  0.00    -0.023 A 
HETATM   24  C   UNL     1      30.428  43.944  55.830  1.00  0.00    -0.026 A 
HETATM   25  C   UNL     1      29.686  45.810  57.196  1.00  0.00     0.012 A 
HETATM   26  C   UNL     1      30.291  43.162  54.674  1.00  0.00     0.015 A 
HETATM   27  C   UNL     1      31.415  43.663  56.788  1.00  0.00     0.012 A 
HETATM   28  C   UNL     1      29.307  43.459  53.729  1.00  0.00     0.037 A 
HETATM   29  C   UNL     1      31.536  44.448  57.937  1.00  0.00     0.001 A 
HETATM   30  C   UNL     1      30.672  45.520  58.141  1.00  0.00     0.001 A 
ENDBRANCH  20  21
ENDBRANCH  19  20
ENDBRANCH   6  19
TORSDOF 8
ENDMDL
MODEL 6
REMARK VINA RESULT:      -9.4      1.605      2.388
REMARK  8 active torsions:
REMARK  status: ('A' for Active; 'I' for Inactive)
REMARK    1  A    between atoms: C_3  and  S_4 
REMARK    2  A    between atoms: S_4  and  C_5 
REMARK    3  A    between atoms: C_5  and  C_6 
REMARK       I    between atoms: C_6  and  N_7 
REMARK    4  A    between atoms: N_7  and  C_8 
REMARK    5  A    between atoms: C_8  and  C_9 
REMARK    6  A    between atoms: C_17  and  C_18 
REMARK    7  A    between atoms: C_18  and  O_19 
REMARK    8  A    between atoms: O_19  and  C_20 
ROOT
HETATM    1  C   UNL     1      24.242  44.504  50.649  1.00  0.00     0.160 C 
HETATM    2  N   UNL     1      25.425  45.156  50.148  1.00  0.00    -0.314 N 
HETATM    3  C   UNL     1      25.623  46.481  49.878  1.00  0.00     0.191 A 
HETATM    4  N   UNL     1      26.845  46.664  49.436  1.00  0.00    -0.123 NA
HETATM    5  N   UNL     1      27.480  45.452  49.436  1.00  0.00    -0.132 NA
HETATM    6  C   UNL     1      26.625  44.540  49.860  1.00  0.00     0.154 A 
ENDROOT
BRANCH   3   7
HETATM    7  S   UNL     1      24.443  47.718  50.121  1.00  0.00    -0.081 SA
BRANCH   7   8
HETATM    8  C   UNL     1      24.883  48.897  48.809  1.00  0.00     0.185 C 
BRANCH   8   9
HETATM    9  C   UNL     1      23.677  49.725  48.400  1.00  0.00     0.227 C 
HETATM   10  N   UNL     1      22.779  49.968  49.415  1.00  0.00    -0.354 N 
HETATM   11  H   UNL     1      22.811  49.342  50.220  1.00  0.00     0.162 HD
HETATM   12  O   UNL     1      23.521  50.140  47.255  1.00  0.00    -0.273 OA
BRANCH  10  13
HETATM   13  C   UNL     1      21.530  50.637  49.137  1.00  0.00     0.187 C 
BRANCH  13  14
HETATM   14  C   UNL     1      20.398  49.768  49.540  1.00  0.00     0.070 A 
HETATM   15  O   UNL     1      19.618  50.206  50.571  1.00  0.00    -0.325 OA
HETATM   16  C   UNL     1      18.652  49.271  50.763  1.00  0.00     0.142 A 
HETATM   17  C   UNL     1      18.795  48.237  49.868  1.00  0.00     0.027 A 
HETATM   18  C   UNL     1      19.921  48.558  49.074  1.00  0.00     0.036 A 
ENDBRANCH  13  14
ENDBRANCH  10  13
ENDBRANCH   8   9
ENDBRANCH   7   8
ENDBRANCH   3   7
BRANCH   6  19
HETATM   19  C   UNL     1      26.905  43.089  50.028  1.00  0.00     0.256 C 
BRANCH  19  20
HETATM   20  O   UNL     1      26.580  42.761  51.378  1.00  0.00    -0.344 OA
BRANCH  20  21
HETATM   21  C   UNL     1      27.554  42.995  52.309  1.00  0.00     0.070 A 
HETATM   22  C   UNL     1      27.537  44.013  53.265  1.00  0.00     0.049 A 
HETATM   23  C   UNL     1      28.600  44.162  54.175  1.00  0.00    -0.023 A 
HETATM   24  C   UNL     1      29.691  43.265  54.124  1.00  0.00    -0.026 A 
HETATM   25  C   UNL     1      28.602  45.185  55.138  1.00  0.00     0.012 A 
HETATM   26  C   UNL     1      29.688  42.237  53.170  1.00  0.00     0.015 A 
HETATM   27  C   UNL     1      30.754  43.418  55.027  1.00  0.00     0.012 A 
HETATM   28  C   UNL     1      28.624  42.102  52.276  1.00  0.00     0.037 A 
HETATM   29  C   UNL     1      30.742  44.444  55.975  1.00  0.00     0.001 A 
HETATM   30  C   UNL     1      29.667  45.326  56.030  1.00  0.00     0.001 A 
ENDBRANCH  20  21
ENDBRANCH  19  20
ENDBRANCH   6  19
TORSDOF 8
ENDMDL
MODEL 7
REMARK VINA RESULT:      -9.3      2.342      3.289
REMARK  8 active torsions:
REMARK  status: ('A' for Active; 'I' for Inactive)
REMARK    1  A    between atoms: C_3  and  S_4 
REMARK    2  A    between atoms: S_4  and  C_5 
REMARK    3  A    between atoms: C_5  and  C_6 
REMARK       I    between atoms: C_6  and  N_7 
REMARK    4  A    between atoms: N_7  and  C_8 
REMARK    5  A    between atoms: C_8  and  C_9 
REMARK    6  A    between atoms: C_17  and  C_18 
REMARK    7  A    between atoms: C_18  and  O_19 
REMARK    8  A    between atoms: O_19  and  C_20 
ROOT
HETATM    1  C   UNL     1      24.422  44.766  49.102  1.00  0.00     0.160 C 
HETATM    2  N   UNL     1      24.675  46.028  49.748  1.00  0.00    -0.314 N 
HETATM    3  C   UNL     1      24.051  47.228  49.555  1.00  0.00     0.191 A 
HETATM    4  N   UNL     1      24.581  48.133  50.344  1.00  0.00    -0.123 NA
HETATM    5  N   UNL     1      25.552  47.524  51.093  1.00  0.00    -0.132 NA
HETATM    6  C   UNL     1      25.614  46.257  50.732  1.00  0.00     0.154 A 
ENDROOT
BRANCH   3   7
HETATM    7  S   UNL     1      22.741  47.489  48.460  1.00  0.00    -0.081 SA
BRANCH   7   8
HETATM    8  C   UNL     1      22.049  49.045  49.092  1.00  0.00     0.185 C 
BRANCH   8   9
HETATM    9  C   UNL     1      20.536  48.959  49.199  1.00  0.00     0.227 C 
HETATM   10  N   UNL     1      19.997  49.638  50.268  1.00  0.00    -0.354 N 
HETATM   11  H   UNL     1      20.625  49.851  51.043  1.00  0.00     0.162 HD
HETATM   12  O   UNL     1      19.854  48.331  48.392  1.00  0.00    -0.273 OA
BRANCH  10  13
HETATM   13  C   UNL     1      18.586  49.538  50.557  1.00  0.00     0.187 C 
BRANCH  13  14
HETATM   14  C   UNL     1      17.859  50.635  49.873  1.00  0.00     0.070 A 
HETATM   15  O   UNL     1      18.108  51.906  50.304  1.00  0.00    -0.325 OA
HETATM   16  C   UNL     1      17.351  52.738  49.543  1.00  0.00     0.142 A 
HETATM   17  C   UNL     1      16.620  52.023  48.624  1.00  0.00     0.027 A 
HETATM   18  C   UNL     1      16.950  50.663  48.832  1.00  0.00     0.036 A 
ENDBRANCH  13  14
ENDBRANCH  10  13
ENDBRANCH   8   9
ENDBRANCH   7   8
ENDBRANCH   3   7
BRANCH   6  19
HETATM   19  C   UNL     1      26.525  45.228  51.302  1.00  0.00     0.256 C 
BRANCH  19  20
HETATM   20  O   UNL     1      26.149  45.057  52.667  1.00  0.00    -0.344 OA
BRANCH  20  21
HETATM   21  C   UNL     1      27.167  45.069  53.581  1.00  0.00     0.070 A 
HETATM   22  C   UNL     1      28.103  44.049  53.769  1.00  0.00     0.049 A 
HETATM   23  C   UNL     1      29.110  44.168  54.745  1.00  0.00    -0.023 A 
HETATM   24  C   UNL     1      29.178  45.337  55.536  1.00  0.00    -0.026 A 
HETATM   25  C   UNL     1      30.053  43.148  54.952  1.00  0.00     0.012 A 
HETATM   26  C   UNL     1      28.243  46.361  55.325  1.00  0.00     0.015 A 
HETATM   27  C   UNL     1      30.178  45.453  56.513  1.00  0.00     0.012 A 
HETATM   28  C   UNL     1      27.251  46.228  54.351  1.00  0.00     0.037 A 
HETATM   29  C   UNL     1      31.105  44.427  56.709  1.00  0.00     0.001 A 
HETATM   30  C   UNL     1      31.043  43.276  55.929  1.00  0.00     0.001 A 
ENDBRANCH  20  21
ENDBRANCH  19  20
ENDBRANCH   6  19
TORSDOF 8
ENDMDL
MODEL 8
REMARK VINA RESULT:      -9.3      2.422      2.858
REMARK  8 active torsions:
REMARK  status: ('A' for Active; 'I' for Inactive)
REMARK    1  A    between atoms: C_3  and  S_4 
REMARK    2  A    between atoms: S_4  and  C_5 
REMARK    3  A    between atoms: C_5  and  C_6 
REMARK       I    between atoms: C_6  and  N_7 
REMARK    4  A    between atoms: N_7  and  C_8 
REMARK    5  A    between atoms: C_8  and  C_9 
REMARK    6  A    between atoms: C_17  and  C_18 
REMARK    7  A    between atoms: C_18  and  O_19 
REMARK    8  A    between atoms: O_19  and  C_20 
ROOT
HETATM    1  C   UNL     1      25.909  41.791  50.355  1.00  0.00     0.160 C 
HETATM    2  N   UNL     1      25.250  42.925  50.951  1.00  0.00    -0.314 N 
HETATM    3  C   UNL     1      24.096  43.546  50.563  1.00  0.00     0.191 A 
HETATM    4  N   UNL     1      23.837  44.543  51.376  1.00  0.00    -0.123 NA
HETATM    5  N   UNL     1      24.814  44.572  52.334  1.00  0.00    -0.132 NA
HETATM    6  C   UNL     1      25.669  43.601  52.077  1.00  0.00     0.154 A 
ENDROOT
BRANCH   3   7
HETATM    7  S   UNL     1      23.121  43.057  49.224  1.00  0.00    -0.081 SA
BRANCH   7   8
HETATM    8  C   UNL     1      21.859  44.365  49.203  1.00  0.00     0.185 C 
BRANCH   8   9
HETATM    9  C   UNL     1      22.348  45.574  48.424  1.00  0.00     0.227 C 
HETATM   10  N   UNL     1      22.605  46.686  49.194  1.00  0.00    -0.354 N 
HETATM   11  H   UNL     1      22.162  46.724  50.112  1.00  0.00     0.162 HD
HETATM   12  O   UNL     1      22.500  45.555  47.205  1.00  0.00    -0.273 OA
BRANCH  10  13
HETATM   13  C   UNL     1      22.958  47.938  48.568  1.00  0.00     0.187 C 
BRANCH  13  14
HETATM   14  C   UNL     1      22.095  49.021  49.100  1.00  0.00     0.070 A 
HETATM   15  O   UNL     1      20.770  48.735  49.257  1.00  0.00    -0.325 OA
HETATM   16  C   UNL     1      20.179  49.852  49.756  1.00  0.00     0.142 A 
HETATM   17  C   UNL     1      21.105  50.853  49.927  1.00  0.00     0.027 A 
HETATM   18  C   UNL     1      22.345  50.318  49.508  1.00  0.00     0.036 A 
ENDBRANCH  13  14
ENDBRANCH  10  13
ENDBRANCH   8   9
ENDBRANCH   7   8
ENDBRANCH   3   7
BRANCH   6  19
HETATM   19  C   UNL     1      26.878  43.265  52.878  1.00  0.00     0.256 C 
BRANCH  19  20
HETATM   20  O   UNL     1      27.693  44.435  52.905  1.00  0.00    -0.344 OA
BRANCH  20  21
HETATM   21  C   UNL     1      28.423  44.637  54.044  1.00  0.00     0.070 A 
HETATM   22  C   UNL     1      29.438  43.803  54.517  1.00  0.00     0.049 A 
HETATM   23  C   UNL     1      30.124  44.110  55.707  1.00  0.00    -0.023 A 
HETATM   24  C   UNL     1      29.785  45.279  56.424  1.00  0.00    -0.026 A 
HETATM   25  C   UNL     1      31.142  43.277  56.200  1.00  0.00     0.012 A 
HETATM   26  C   UNL     1      28.776  46.117  55.929  1.00  0.00     0.015 A 
HETATM   27  C   UNL     1      30.465  45.580  57.615  1.00  0.00     0.012 A 
HETATM   28  C   UNL     1      28.106  45.799  54.746  1.00  0.00     0.037 A 
HETATM   29  C   UNL     1      31.471  44.739  58.093  1.00  0.00     0.001 A 
HETATM   30  C   UNL     1      31.810  43.589  57.387  1.00  0.00     0.001 A 
ENDBRANCH  20  21
ENDBRANCH  19  20
ENDBRANCH   6  19
TORSDOF 8
ENDMDL
MODEL 9
REMARK VINA RESULT:      -9.2      2.800      3.401
REMARK  8 active torsions:
REMARK  status: ('A' for Active; 'I' for Inactive)
REMARK    1  A    between atoms: C_3  and  S_4 
REMARK    2  A    between atoms: S_4  and  C_5 
REMARK    3  A    between atoms: C_5  and  C_6 
REMARK       I    between atoms: C_6  and  N_7 
REMARK    4  A    between atoms: N_7  and  C_8 
REMARK    5  A    between atoms: C_8  and  C_9 
REMARK    6  A    between atoms: C_17  and  C_18 
REMARK    7  A    between atoms: C_18  and  O_19 
REMARK    8  A    between atoms: O_19  and  C_20 
ROOT
HETATM    1  C   UNL     1      25.058  47.203  50.901  1.00  0.00     0.160 C 
HETATM    2  N   UNL     1      24.699  45.835  51.175  1.00  0.00    -0.314 N 
HETATM    3  C   UNL     1      23.940  44.983  50.422  1.00  0.00     0.191 A 
HETATM    4  N   UNL     1      23.849  43.822  51.027  1.00  0.00    -0.123 NA
HETATM    5  N   UNL     1      24.579  43.890  52.183  1.00  0.00    -0.132 NA
HETATM    6  C   UNL     1      25.087  45.104  52.277  1.00  0.00     0.154 A 
ENDROOT
BRANCH   3   7
HETATM    7  S   UNL     1      23.242  45.380  48.893  1.00  0.00    -0.081 SA
BRANCH   7   8
HETATM    8  C   UNL     1      21.739  44.358  48.908  1.00  0.00     0.185 C 
BRANCH   8   9
HETATM    9  C   UNL     1      20.526  45.178  48.504  1.00  0.00     0.227 C 
HETATM   10  N   UNL     1      20.812  46.460  48.091  1.00  0.00    -0.354 N 
HETATM   11  H   UNL     1      21.708  46.850  48.385  1.00  0.00     0.162 HD
HETATM   12  O   UNL     1      19.384  44.728  48.545  1.00  0.00    -0.273 OA
BRANCH  10  13
HETATM   13  C   UNL     1      19.743  47.385  47.796  1.00  0.00     0.187 C 
BRANCH  13  14
HETATM   14  C   UNL     1      19.586  48.340  48.920  1.00  0.00     0.070 A 
HETATM   15  O   UNL     1      18.774  47.957  49.948  1.00  0.00    -0.325 OA
HETATM   16  C   UNL     1      18.783  48.966  50.858  1.00  0.00     0.142 A 
HETATM   17  C   UNL     1      19.592  49.993  50.433  1.00  0.00     0.027 A 
HETATM   18  C   UNL     1      20.116  49.588  49.183  1.00  0.00     0.036 A 
ENDBRANCH  13  14
ENDBRANCH  10  13
ENDBRANCH   8   9
ENDBRANCH   7   8
ENDBRANCH   3   7
BRANCH   6  19
HETATM   19  C   UNL     1      25.959  45.605  53.374  1.00  0.00     0.256 C 
BRANCH  19  20
HETATM   20  O   UNL     1      27.253  45.044  53.160  1.00  0.00    -0.344 OA
BRANCH  20  21
HETATM   21  C   UNL     1      28.102  45.056  54.233  1.00  0.00     0.070 A 
HETATM   22  C   UNL     1      29.098  44.112  54.492  1.00  0.00     0.049 A 
HETATM   23  C   UNL     1      29.915  44.224  55.633  1.00  0.00    -0.023 A 
HETATM   24  C   UNL     1      29.728  45.309  56.519  1.00  0.00    -0.026 A 
HETATM   25  C   UNL     1      30.915  43.278  55.912  1.00  0.00     0.012 A 
HETATM   26  C   UNL     1      28.736  46.259  56.238  1.00  0.00     0.015 A 
HETATM   27  C   UNL     1      30.538  45.415  57.660  1.00  0.00     0.012 A 
HETATM   28  C   UNL     1      27.935  46.134  55.101  1.00  0.00     0.037 A 
HETATM   29  C   UNL     1      31.525  44.464  57.924  1.00  0.00     0.001 A 
HETATM   30  C   UNL     1      31.714  43.397  57.051  1.00  0.00     0.001 A 
ENDBRANCH  20  21
ENDBRANCH  19  20
ENDBRANCH   6  19
TORSDOF 8
ENDMDL
MODEL 10
REMARK VINA RESULT:      -9.2      2.678      3.659
REMARK  8 active torsions:
REMARK  status: ('A' for Active; 'I' for Inactive)
REMARK    1  A    between atoms: C_3  and  S_4 
REMARK    2  A    between atoms: S_4  and  C_5 
REMARK    3  A    between atoms: C_5  and  C_6 
REMARK       I    between atoms: C_6  and  N_7 
REMARK    4  A    between atoms: N_7  and  C_8 
REMARK    5  A    between atoms: C_8  and  C_9 
REMARK    6  A    between atoms: C_17  and  C_18 
REMARK    7  A    between atoms: C_18  and  O_19 
REMARK    8  A    between atoms: O_19  and  C_20 
ROOT
HETATM    1  C   UNL     1      26.012  44.963  49.568  1.00  0.00     0.160 C 
HETATM    2  N   UNL     1      26.052  43.627  50.104  1.00  0.00    -0.314 N 
HETATM    3  C   UNL     1      25.213  42.578  49.851  1.00  0.00     0.191 A 
HETATM    4  N   UNL     1      25.594  41.531  50.543  1.00  0.00    -0.123 NA
HETATM    5  N   UNL     1      26.717  41.875  51.247  1.00  0.00    -0.132 NA
HETATM    6  C   UNL     1      26.991  43.140  50.988  1.00  0.00     0.154 A 
ENDROOT
BRANCH   3   7
HETATM    7  S   UNL     1      23.879  42.631  48.755  1.00  0.00    -0.081 SA
BRANCH   7   8
HETATM    8  C   UNL     1      22.630  43.495  49.752  1.00  0.00     0.185 C 
BRANCH   8   9
HETATM    9  C   UNL     1      21.976  44.608  48.951  1.00  0.00     0.227 C 
HETATM   10  N   UNL     1      22.542  45.850  49.127  1.00  0.00    -0.354 N 
HETATM   11  H   UNL     1      23.097  45.988  49.972  1.00  0.00     0.162 HD
HETATM   12  O   UNL     1      21.018  44.409  48.207  1.00  0.00    -0.273 OA
BRANCH  10  13
HETATM   13  C   UNL     1      21.944  47.016  48.521  1.00  0.00     0.187 C 
BRANCH  13  14
HETATM   14  C   UNL     1      22.927  48.126  48.498  1.00  0.00     0.070 A 
HETATM   15  O   UNL     1      22.700  49.134  47.606  1.00  0.00    -0.325 OA
HETATM   16  C   UNL     1      23.706  50.034  47.760  1.00  0.00     0.142 A 
HETATM   17  C   UNL     1      24.577  49.622  48.741  1.00  0.00     0.027 A 
HETATM   18  C   UNL     1      24.073  48.391  49.222  1.00  0.00     0.036 A 
ENDBRANCH  13  14
ENDBRANCH  10  13
ENDBRANCH   8   9
ENDBRANCH   7   8
ENDBRANCH   3   7
BRANCH   6  19
HETATM   19  C   UNL     1      28.137  43.916  51.533  1.00  0.00     0.256 C 
BRANCH  19  20
HETATM   20  O   UNL     1      27.714  44.449  52.787  1.00  0.00    -0.344 OA
BRANCH  20  21
HETATM   21  C   UNL     1      28.597  44.329  53.825  1.00  0.00     0.070 A 
HETATM   22  C   UNL     1      28.632  45.141  54.960  1.00  0.00     0.049 A 
HETATM   23  C   UNL     1      29.591  44.926  55.968  1.00  0.00    -0.023 A 
HETATM   24  C   UNL     1      30.521  43.872  55.831  1.00  0.00    -0.026 A 
HETATM   25  C   UNL     1      29.644  45.739  57.113  1.00  0.00     0.012 A 
HETATM   26  C   UNL     1      30.464  43.053  54.694  1.00  0.00     0.015 A 
HETATM   27  C   UNL     1      31.481  43.663  56.833  1.00  0.00     0.012 A 
HETATM   28  C   UNL     1      29.505  43.278  53.704  1.00  0.00     0.037 A 
HETATM   29  C   UNL     1      31.523  44.483  57.962  1.00  0.00     0.001 A 
HETATM   30  C   UNL     1      30.605  45.520  58.102  1.00  0.00     0.001 A 
ENDBRANCH  20  21
ENDBRANCH  19  20
ENDBRANCH   6  19
TORSDOF 8
ENDMDL
