MODEL 1
REMARK VINA RESULT:      -9.2      0.000      0.000
REMARK  5 active torsions:
REMARK  status: ('A' for Active; 'I' for Inactive)
REMARK    1  A    between atoms: C_4  and  C_5 
REMARK    2  A    between atoms: C_5  and  N_6 
REMARK       I    between atoms: N_6  and  C_7 
REMARK    3  A    between atoms: C_7  and  C_8 
REMARK    4  A    between atoms: C_11  and  N_12 
REMARK       I    between atoms: N_12  and  C_13 
REMARK    5  A    between atoms: C_13  and  C_14 
ROOT
HETATM    1  C   UNL     1      24.497  48.596  49.098  1.00  0.00     0.032 A 
HETATM    2  C   UNL     1      25.876  48.700  49.308  1.00  0.00     0.019 A 
HETATM    3  C   UNL     1      26.567  47.692  49.994  1.00  0.00     0.030 A 
HETATM    4  C   UNL     1      25.891  46.572  50.485  1.00  0.00     0.035 A 
HETATM    5  C   UNL     1      24.509  46.476  50.282  1.00  0.00     0.030 A 
HETATM    6  C   UNL     1      23.816  47.480  49.598  1.00  0.00     0.019 A 
ENDROOT
BRANCH   4   7
HETATM    7  N   UNL     1      26.509  45.531  51.205  1.00  0.00    -0.323 N 
HETATM    8  C   UNL     1      27.165  44.427  50.691  1.00  0.00     0.257 C 
HETATM    9  O   UNL     1      27.232  44.095  49.513  1.00  0.00    -0.267 OA
HETATM   10  H   UNL     1      26.432  45.585  52.213  1.00  0.00     0.169 HD
BRANCH   8  11
HETATM   11  C   UNL     1      27.789  43.540  51.698  1.00  0.00     0.047 A 
HETATM   12  C   UNL     1      28.071  42.181  51.458  1.00  0.00     0.027 A 
HETATM   13  C   UNL     1      28.675  41.481  52.500  1.00  0.00     0.138 A 
HETATM   14  C   UNL     1      27.883  41.236  50.404  1.00  0.00     0.033 A 
HETATM   15  N   UNL     1      28.879  40.192  52.092  1.00  0.00    -0.350 N 
HETATM   16  N   UNL     1      29.010  41.946  53.716  1.00  0.00    -0.242 NA
HETATM   17  H   UNL     1      29.301  39.482  52.675  1.00  0.00     0.166 HD
HETATM   18  C   UNL     1      28.401  40.028  50.818  1.00  0.00     0.090 A 
HETATM   19  C   UNL     1      28.683  43.243  53.903  1.00  0.00     0.120 A 
HETATM   20  C   UNL     1      28.087  44.066  52.961  1.00  0.00     0.037 A 
ENDBRANCH   8  11
ENDBRANCH   4   7
BRANCH   1  21
HETATM   21  C   UNL     1      23.709  49.646  48.390  1.00  0.00     0.251 C 
HETATM   22  N   UNL     1      22.598  50.134  49.040  1.00  0.00    -0.352 N 
HETATM   23  H   UNL     1      22.487  49.965  50.030  1.00  0.00     0.163 HD
HETATM   24  O   UNL     1      24.073  50.054  47.293  1.00  0.00    -0.268 OA
BRANCH  22  25
HETATM   25  C   UNL     1      21.857  51.241  48.481  1.00  0.00     0.169 C 
BRANCH  25  26
HETATM   26  C   UNL     1      20.460  51.194  49.008  1.00  0.00     0.000 A 
HETATM   27  S   UNL     1      19.933  49.861  49.951  1.00  0.00    -0.105 SA
HETATM   28  C   UNL     1      18.370  50.527  50.135  1.00  0.00     0.050 A 
HETATM   29  C   UNL     1      18.246  51.740  49.496  1.00  0.00     0.008 A 
HETATM   30  C   UNL     1      19.452  52.125  48.844  1.00  0.00     0.017 A 
ENDBRANCH  25  26
ENDBRANCH  22  25
ENDBRANCH   1  21
TORSDOF 5
ENDMDL
MODEL 2
REMARK VINA RESULT:      -9.2      4.136      7.442
REMARK  5 active torsions:
REMARK  status: ('A' for Active; 'I' for Inactive)
REMARK    1  A    between atoms: C_4  and  C_5 
REMARK    2  A    between atoms: C_5  and  N_6 
REMARK       I    between atoms: N_6  and  C_7 
REMARK    3  A    between atoms: C_7  and  C_8 
REMARK    4  A    between atoms: C_11  and  N_12 
REMARK       I    between atoms: N_12  and  C_13 
REMARK    5  A    between atoms: C_13  and  C_14 
ROOT
HETATM    1  C   UNL     1      18.012  51.621  49.476  1.00  0.00     0.032 A 
HETATM    2  C   UNL     1      18.885  52.301  48.619  1.00  0.00     0.019 A 
HETATM    3  C   UNL     1      20.229  51.916  48.526  1.00  0.00     0.030 A 
HETATM    4  C   UNL     1      20.722  50.855  49.290  1.00  0.00     0.035 A 
HETATM    5  C   UNL     1      19.848  50.183  50.154  1.00  0.00     0.030 A 
HETATM    6  C   UNL     1      18.505  50.565  50.250  1.00  0.00     0.019 A 
ENDROOT
BRANCH   4   7
HETATM    7  N   UNL     1      22.063  50.425  49.270  1.00  0.00    -0.323 N 
HETATM    8  C   UNL     1      22.606  49.399  48.519  1.00  0.00     0.257 C 
HETATM    9  O   UNL     1      21.997  48.603  47.814  1.00  0.00    -0.267 OA
HETATM   10  H   UNL     1      22.689  50.905  49.905  1.00  0.00     0.169 HD
BRANCH   8  11
HETATM   11  C   UNL     1      24.072  49.232  48.648  1.00  0.00     0.047 A 
HETATM   12  C   UNL     1      24.666  48.221  49.428  1.00  0.00     0.027 A 
HETATM   13  C   UNL     1      26.058  48.184  49.437  1.00  0.00     0.138 A 
HETATM   14  C   UNL     1      24.237  47.172  50.296  1.00  0.00     0.033 A 
HETATM   15  N   UNL     1      26.457  47.146  50.233  1.00  0.00    -0.350 N 
HETATM   16  N   UNL     1      26.906  49.008  48.796  1.00  0.00    -0.242 NA
HETATM   17  H   UNL     1      27.425  46.915  50.404  1.00  0.00     0.166 HD
HETATM   18  C   UNL     1      25.359  46.522  50.764  1.00  0.00     0.090 A 
HETATM   19  C   UNL     1      26.282  49.979  48.093  1.00  0.00     0.120 A 
HETATM   20  C   UNL     1      24.910  50.139  47.987  1.00  0.00     0.037 A 
ENDBRANCH   8  11
ENDBRANCH   4   7
BRANCH   1  21
HETATM   21  C   UNL     1      16.577  51.998  49.628  1.00  0.00     0.251 C 
HETATM   22  N   UNL     1      16.301  53.090  50.421  1.00  0.00    -0.352 N 
HETATM   23  H   UNL     1      17.046  53.728  50.666  1.00  0.00     0.163 HD
HETATM   24  O   UNL     1      15.708  51.364  49.041  1.00  0.00    -0.268 OA
BRANCH  22  25
HETATM   25  C   UNL     1      14.951  53.597  50.515  1.00  0.00     0.169 C 
BRANCH  25  26
HETATM   26  C   UNL     1      15.009  55.027  50.942  1.00  0.00     0.000 A 
HETATM   27  S   UNL     1      14.688  55.461  52.571  1.00  0.00    -0.105 SA
HETATM   28  C   UNL     1      14.939  57.120  52.245  1.00  0.00     0.050 A 
HETATM   29  C   UNL     1      15.264  57.345  50.926  1.00  0.00     0.008 A 
HETATM   30  C   UNL     1      15.303  56.137  50.173  1.00  0.00     0.017 A 
ENDBRANCH  25  26
ENDBRANCH  22  25
ENDBRANCH   1  21
TORSDOF 5
ENDMDL
MODEL 3
REMARK VINA RESULT:      -9.0      2.072      3.205
REMARK  5 active torsions:
REMARK  status: ('A' for Active; 'I' for Inactive)
REMARK    1  A    between atoms: C_4  and  C_5 
REMARK    2  A    between atoms: C_5  and  N_6 
REMARK       I    between atoms: N_6  and  C_7 
REMARK    3  A    between atoms: C_7  and  C_8 
REMARK    4  A    between atoms: C_11  and  N_12 
REMARK       I    between atoms: N_12  and  C_13 
REMARK    5  A    between atoms: C_13  and  C_14 
ROOT
HETATM    1  C   UNL     1      23.453  46.846  49.252  1.00  0.00     0.032 A 
HETATM    2  C   UNL     1      24.262  47.748  49.951  1.00  0.00     0.019 A 
HETATM    3  C   UNL     1      25.357  47.288  50.695  1.00  0.00     0.030 A 
HETATM    4  C   UNL     1      25.654  45.924  50.758  1.00  0.00     0.035 A 
HETATM    5  C   UNL     1      24.837  45.023  50.065  1.00  0.00     0.030 A 
HETATM    6  C   UNL     1      23.742  45.479  49.321  1.00  0.00     0.019 A 
ENDROOT
BRANCH   4   7
HETATM    7  N   UNL     1      26.721  45.383  51.503  1.00  0.00    -0.323 N 
HETATM    8  C   UNL     1      26.656  44.767  52.739  1.00  0.00     0.257 C 
HETATM    9  O   UNL     1      25.672  44.678  53.464  1.00  0.00    -0.267 OA
HETATM   10  H   UNL     1      27.642  45.491  51.096  1.00  0.00     0.169 HD
BRANCH   8  11
HETATM   11  C   UNL     1      27.938  44.222  53.239  1.00  0.00     0.047 A 
HETATM   12  C   UNL     1      28.570  44.690  54.408  1.00  0.00     0.027 A 
HETATM   13  C   UNL     1      29.765  44.066  54.757  1.00  0.00     0.138 A 
HETATM   14  C   UNL     1      28.351  45.702  55.391  1.00  0.00     0.033 A 
HETATM   15  N   UNL     1      30.230  44.637  55.910  1.00  0.00    -0.350 N 
HETATM   16  N   UNL     1      30.396  43.074  54.103  1.00  0.00    -0.242 NA
HETATM   17  H   UNL     1      31.088  44.358  56.364  1.00  0.00     0.166 HD
HETATM   18  C   UNL     1      29.379  45.636  56.306  1.00  0.00     0.090 A 
HETATM   19  C   UNL     1      29.764  42.692  52.972  1.00  0.00     0.120 A 
HETATM   20  C   UNL     1      28.571  43.214  52.501  1.00  0.00     0.037 A 
ENDBRANCH   8  11
ENDBRANCH   4   7
BRANCH   1  21
HETATM   21  C   UNL     1      22.266  47.277  48.459  1.00  0.00     0.251 C 
HETATM   22  N   UNL     1      21.083  47.438  49.146  1.00  0.00    -0.352 N 
HETATM   23  H   UNL     1      21.099  47.502  50.154  1.00  0.00     0.163 HD
HETATM   24  O   UNL     1      22.374  47.497  47.257  1.00  0.00    -0.268 OA
BRANCH  22  25
HETATM   25  C   UNL     1      19.921  47.977  48.477  1.00  0.00     0.169 C 
BRANCH  25  26
HETATM   26  C   UNL     1      19.830  49.436  48.783  1.00  0.00     0.000 A 
HETATM   27  S   UNL     1      19.124  49.972  50.252  1.00  0.00    -0.105 SA
HETATM   28  C   UNL     1      19.388  51.613  49.853  1.00  0.00     0.050 A 
HETATM   29  C   UNL     1      20.002  51.756  48.630  1.00  0.00     0.008 A 
HETATM   30  C   UNL     1      20.256  50.499  48.010  1.00  0.00     0.017 A 
ENDBRANCH  25  26
ENDBRANCH  22  25
ENDBRANCH   1  21
TORSDOF 5
ENDMDL
MODEL 4
REMARK VINA RESULT:      -8.7      2.943     10.218
REMARK  5 active torsions:
REMARK  status: ('A' for Active; 'I' for Inactive)
REMARK    1  A    between atoms: C_4  and  C_5 
REMARK    2  A    between atoms: C_5  and  N_6 
REMARK       I    between atoms: N_6  and  C_7 
REMARK    3  A    between atoms: C_7  and  C_8 
REMARK    4  A    between atoms: C_11  and  N_12 
REMARK       I    between atoms: N_12  and  C_13 
REMARK    5  A    between atoms: C_13  and  C_14 
ROOT
HETATM    1  C   UNL     1      25.706  45.283  50.011  1.00  0.00     0.032 A 
HETATM    2  C   UNL     1      25.825  46.577  50.530  1.00  0.00     0.019 A 
HETATM    3  C   UNL     1      24.811  47.521  50.319  1.00  0.00     0.030 A 
HETATM    4  C   UNL     1      23.671  47.190  49.584  1.00  0.00     0.035 A 
HETATM    5  C   UNL     1      23.559  45.898  49.058  1.00  0.00     0.030 A 
HETATM    6  C   UNL     1      24.569  44.952  49.266  1.00  0.00     0.019 A 
ENDROOT
BRANCH   4   7
HETATM    7  N   UNL     1      22.622  48.090  49.309  1.00  0.00    -0.323 N 
HETATM    8  C   UNL     1      22.585  49.065  48.329  1.00  0.00     0.257 C 
HETATM    9  O   UNL     1      23.504  49.400  47.592  1.00  0.00    -0.267 OA
HETATM   10  H   UNL     1      21.819  48.032  49.924  1.00  0.00     0.169 HD
BRANCH   8  11
HETATM   11  C   UNL     1      21.308  49.807  48.227  1.00  0.00     0.047 A 
HETATM   12  C   UNL     1      20.135  49.249  47.682  1.00  0.00     0.027 A 
HETATM   13  C   UNL     1      19.009  50.068  47.669  1.00  0.00     0.138 A 
HETATM   14  C   UNL     1      19.739  48.022  47.070  1.00  0.00     0.033 A 
HETATM   15  N   UNL     1      17.972  49.368  47.117  1.00  0.00    -0.350 N 
HETATM   16  N   UNL     1      18.910  51.336  48.106  1.00  0.00    -0.242 NA
HETATM   17  H   UNL     1      17.045  49.749  46.992  1.00  0.00     0.166 HD
HETATM   18  C   UNL     1      18.402  48.121  46.745  1.00  0.00     0.090 A 
HETATM   19  C   UNL     1      20.072  51.830  48.584  1.00  0.00     0.120 A 
HETATM   20  C   UNL     1      21.269  51.136  48.665  1.00  0.00     0.037 A 
ENDBRANCH   8  11
ENDBRANCH   4   7
BRANCH   1  21
HETATM   21  C   UNL     1      26.761  44.243  50.190  1.00  0.00     0.251 C 
HETATM   22  N   UNL     1      27.297  44.111  51.451  1.00  0.00    -0.352 N 
HETATM   23  H   UNL     1      26.817  44.521  52.240  1.00  0.00     0.163 HD
HETATM   24  O   UNL     1      27.095  43.537  49.245  1.00  0.00    -0.268 OA
BRANCH  22  25
HETATM   25  C   UNL     1      28.228  43.043  51.736  1.00  0.00     0.169 C 
BRANCH  25  26
HETATM   26  C   UNL     1      28.937  43.358  53.012  1.00  0.00     0.000 A 
HETATM   27  S   UNL     1      28.303  44.534  54.090  1.00  0.00    -0.105 SA
HETATM   28  C   UNL     1      29.591  44.309  55.192  1.00  0.00     0.050 A 
HETATM   29  C   UNL     1      30.486  43.359  54.755  1.00  0.00     0.008 A 
HETATM   30  C   UNL     1      30.110  42.811  53.496  1.00  0.00     0.017 A 
ENDBRANCH  25  26
ENDBRANCH  22  25
ENDBRANCH   1  21
TORSDOF 5
ENDMDL
MODEL 5
REMARK VINA RESULT:      -8.7      4.188      7.142
REMARK  5 active torsions:
REMARK  status: ('A' for Active; 'I' for Inactive)
REMARK    1  A    between atoms: C_4  and  C_5 
REMARK    2  A    between atoms: C_5  and  N_6 
REMARK       I    between atoms: N_6  and  C_7 
REMARK    3  A    between atoms: C_7  and  C_8 
REMARK    4  A    between atoms: C_11  and  N_12 
REMARK       I    between atoms: N_12  and  C_13 
REMARK    5  A    between atoms: C_13  and  C_14 
ROOT
HETATM    1  C   UNL     1      18.068  50.974  48.970  1.00  0.00     0.032 A 
HETATM    2  C   UNL     1      19.209  51.721  48.659  1.00  0.00     0.019 A 
HETATM    3  C   UNL     1      20.486  51.181  48.862  1.00  0.00     0.030 A 
HETATM    4  C   UNL     1      20.642  49.894  49.383  1.00  0.00     0.035 A 
HETATM    5  C   UNL     1      19.498  49.153  49.702  1.00  0.00     0.030 A 
HETATM    6  C   UNL     1      18.221  49.689  49.502  1.00  0.00     0.019 A 
ENDROOT
BRANCH   4   7
HETATM    7  N   UNL     1      21.890  49.293  49.637  1.00  0.00    -0.323 N 
HETATM    8  C   UNL     1      22.676  48.579  48.751  1.00  0.00     0.257 C 
HETATM    9  O   UNL     1      22.378  48.245  47.610  1.00  0.00    -0.267 OA
HETATM   10  H   UNL     1      22.229  49.366  50.589  1.00  0.00     0.169 HD
BRANCH   8  11
HETATM   11  C   UNL     1      23.983  48.134  49.286  1.00  0.00     0.047 A 
HETATM   12  C   UNL     1      25.192  48.806  49.021  1.00  0.00     0.027 A 
HETATM   13  C   UNL     1      26.337  48.273  49.609  1.00  0.00     0.138 A 
HETATM   14  C   UNL     1      25.628  49.927  48.252  1.00  0.00     0.033 A 
HETATM   15  N   UNL     1      27.406  49.048  49.252  1.00  0.00    -0.350 N 
HETATM   16  N   UNL     1      26.427  47.185  50.393  1.00  0.00    -0.242 NA
HETATM   17  H   UNL     1      28.353  48.864  49.551  1.00  0.00     0.166 HD
HETATM   18  C   UNL     1      26.989  50.058  48.425  1.00  0.00     0.090 A 
HETATM   19  C   UNL     1      25.244  46.561  50.583  1.00  0.00     0.120 A 
HETATM   20  C   UNL     1      24.026  46.974  50.069  1.00  0.00     0.037 A 
ENDBRANCH   8  11
ENDBRANCH   4   7
BRANCH   1  21
HETATM   21  C   UNL     1      16.685  51.504  48.792  1.00  0.00     0.251 C 
HETATM   22  N   UNL     1      16.533  52.872  48.832  1.00  0.00    -0.352 N 
HETATM   23  H   UNL     1      17.345  53.465  48.735  1.00  0.00     0.163 HD
HETATM   24  O   UNL     1      15.751  50.734  48.594  1.00  0.00    -0.268 OA
BRANCH  22  25
HETATM   25  C   UNL     1      15.250  53.469  48.540  1.00  0.00     0.169 C 
BRANCH  25  26
HETATM   26  C   UNL     1      14.807  54.254  49.731  1.00  0.00     0.000 A 
HETATM   27  S   UNL     1      14.174  55.837  49.542  1.00  0.00    -0.105 SA
HETATM   28  C   UNL     1      13.935  56.011  51.226  1.00  0.00     0.050 A 
HETATM   29  C   UNL     1      14.325  54.889  51.922  1.00  0.00     0.008 A 
HETATM   30  C   UNL     1      14.830  53.875  51.060  1.00  0.00     0.017 A 
ENDBRANCH  25  26
ENDBRANCH  22  25
ENDBRANCH   1  21
TORSDOF 5
ENDMDL
MODEL 6
REMARK VINA RESULT:      -8.5      1.375      2.355
REMARK  5 active torsions:
REMARK  status: ('A' for Active; 'I' for Inactive)
REMARK    1  A    between atoms: C_4  and  C_5 
REMARK    2  A    between atoms: C_5  and  N_6 
REMARK       I    between atoms: N_6  and  C_7 
REMARK    3  A    between atoms: C_7  and  C_8 
REMARK    4  A    between atoms: C_11  and  N_12 
REMARK       I    between atoms: N_12  and  C_13 
REMARK    5  A    between atoms: C_13  and  C_14 
ROOT
HETATM    1  C   UNL     1      24.509  48.604  49.061  1.00  0.00     0.032 A 
HETATM    2  C   UNL     1      25.894  48.724  49.214  1.00  0.00     0.019 A 
HETATM    3  C   UNL     1      26.628  47.706  49.839  1.00  0.00     0.030 A 
HETATM    4  C   UNL     1      25.990  46.563  50.326  1.00  0.00     0.035 A 
HETATM    5  C   UNL     1      24.602  46.451  50.180  1.00  0.00     0.030 A 
HETATM    6  C   UNL     1      23.866  47.465  49.557  1.00  0.00     0.019 A 
ENDROOT
BRANCH   4   7
HETATM    7  N   UNL     1      26.654  45.510  50.986  1.00  0.00    -0.323 N 
HETATM    8  C   UNL     1      26.526  45.135  52.311  1.00  0.00     0.257 C 
HETATM    9  O   UNL     1      25.892  45.719  53.182  1.00  0.00    -0.267 OA
HETATM   10  H   UNL     1      27.326  44.995  50.431  1.00  0.00     0.169 HD
BRANCH   8  11
HETATM   11  C   UNL     1      27.295  43.931  52.702  1.00  0.00     0.047 A 
HETATM   12  C   UNL     1      28.275  43.939  53.713  1.00  0.00     0.027 A 
HETATM   13  C   UNL     1      28.901  42.723  53.976  1.00  0.00     0.138 A 
HETATM   14  C   UNL     1      28.881  44.893  54.586  1.00  0.00     0.033 A 
HETATM   15  N   UNL     1      29.810  42.914  54.980  1.00  0.00    -0.350 N 
HETATM   16  N   UNL     1      28.689  41.541  53.370  1.00  0.00    -0.242 NA
HETATM   17  H   UNL     1      30.397  42.179  55.349  1.00  0.00     0.166 HD
HETATM   18  C   UNL     1      29.809  44.231  55.360  1.00  0.00     0.090 A 
HETATM   19  C   UNL     1      27.766  41.602  52.386  1.00  0.00     0.120 A 
HETATM   20  C   UNL     1      27.059  42.734  52.015  1.00  0.00     0.037 A 
ENDBRANCH   8  11
ENDBRANCH   4   7
BRANCH   1  21
HETATM   21  C   UNL     1      23.676  49.663  48.420  1.00  0.00     0.251 C 
HETATM   22  N   UNL     1      22.600  50.130  49.142  1.00  0.00    -0.352 N 
HETATM   23  H   UNL     1      22.546  49.941  50.133  1.00  0.00     0.163 HD
HETATM   24  O   UNL     1      23.975  50.096  47.313  1.00  0.00    -0.268 OA
BRANCH  22  25
HETATM   25  C   UNL     1      21.822  51.243  48.647  1.00  0.00     0.169 C 
BRANCH  25  26
HETATM   26  C   UNL     1      20.410  50.792  48.465  1.00  0.00     0.000 A 
HETATM   27  S   UNL     1      19.337  50.734  49.803  1.00  0.00    -0.105 SA
HETATM   28  C   UNL     1      18.052  50.166  48.828  1.00  0.00     0.050 A 
HETATM   29  C   UNL     1      18.425  50.025  47.511  1.00  0.00     0.008 A 
HETATM   30  C   UNL     1      19.786  50.384  47.301  1.00  0.00     0.017 A 
ENDBRANCH  25  26
ENDBRANCH  22  25
ENDBRANCH   1  21
TORSDOF 5
ENDMDL
MODEL 7
REMARK VINA RESULT:      -8.3      4.247      7.426
REMARK  5 active torsions:
REMARK  status: ('A' for Active; 'I' for Inactive)
REMARK    1  A    between atoms: C_4  and  C_5 
REMARK    2  A    between atoms: C_5  and  N_6 
REMARK       I    between atoms: N_6  and  C_7 
REMARK    3  A    between atoms: C_7  and  C_8 
REMARK    4  A    between atoms: C_11  and  N_12 
REMARK       I    between atoms: N_12  and  C_13 
REMARK    5  A    between atoms: C_13  and  C_14 
ROOT
HETATM    1  C   UNL     1      18.032  51.568  49.245  1.00  0.00     0.032 A 
HETATM    2  C   UNL     1      18.906  52.161  48.328  1.00  0.00     0.019 A 
HETATM    3  C   UNL     1      20.254  51.777  48.284  1.00  0.00     0.030 A 
HETATM    4  C   UNL     1      20.747  50.804  49.157  1.00  0.00     0.035 A 
HETATM    5  C   UNL     1      19.871  50.220  50.080  1.00  0.00     0.030 A 
HETATM    6  C   UNL     1      18.526  50.601  50.127  1.00  0.00     0.019 A 
ENDROOT
BRANCH   4   7
HETATM    7  N   UNL     1      22.091  50.383  49.190  1.00  0.00    -0.323 N 
HETATM    8  C   UNL     1      22.715  49.495  48.334  1.00  0.00     0.257 C 
HETATM    9  O   UNL     1      22.185  48.825  47.455  1.00  0.00    -0.267 OA
HETATM   10  H   UNL     1      22.649  50.751  49.950  1.00  0.00     0.169 HD
BRANCH   8  11
HETATM   11  C   UNL     1      24.165  49.308  48.568  1.00  0.00     0.047 A 
HETATM   12  C   UNL     1      24.686  48.324  49.431  1.00  0.00     0.027 A 
HETATM   13  C   UNL     1      26.073  48.263  49.534  1.00  0.00     0.138 A 
HETATM   14  C   UNL     1      24.179  47.323  50.314  1.00  0.00     0.033 A 
HETATM   15  N   UNL     1      26.398  47.257  50.401  1.00  0.00    -0.350 N 
HETATM   16  N   UNL     1      26.978  49.042  48.915  1.00  0.00    -0.242 NA
HETATM   17  H   UNL     1      27.348  47.016  50.646  1.00  0.00     0.166 HD
HETATM   18  C   UNL     1      25.254  46.676  50.884  1.00  0.00     0.090 A 
HETATM   19  C   UNL     1      26.422  49.990  48.130  1.00  0.00     0.120 A 
HETATM   20  C   UNL     1      25.064  50.169  47.925  1.00  0.00     0.037 A 
ENDBRANCH   8  11
ENDBRANCH   4   7
BRANCH   1  21
HETATM   21  C   UNL     1      16.594  51.950  49.348  1.00  0.00     0.251 C 
HETATM   22  N   UNL     1      16.307  53.296  49.365  1.00  0.00    -0.352 N 
HETATM   23  H   UNL     1      17.012  53.958  49.072  1.00  0.00     0.163 HD
HETATM   24  O   UNL     1      15.728  51.083  49.387  1.00  0.00    -0.268 OA
BRANCH  22  25
HETATM   25  C   UNL     1      14.934  53.747  49.333  1.00  0.00     0.169 C 
BRANCH  25  26
HETATM   26  C   UNL     1      14.552  54.007  47.913  1.00  0.00     0.000 A 
HETATM   27  S   UNL     1      13.674  55.420  47.494  1.00  0.00    -0.105 SA
HETATM   28  C   UNL     1      13.646  54.990  45.840  1.00  0.00     0.050 A 
HETATM   29  C   UNL     1      14.293  53.798  45.605  1.00  0.00     0.008 A 
HETATM   30  C   UNL     1      14.814  53.228  46.802  1.00  0.00     0.017 A 
ENDBRANCH  25  26
ENDBRANCH  22  25
ENDBRANCH   1  21
TORSDOF 5
ENDMDL
MODEL 8
REMARK VINA RESULT:      -8.1      6.663      8.683
REMARK  5 active torsions:
REMARK  status: ('A' for Active; 'I' for Inactive)
REMARK    1  A    between atoms: C_4  and  C_5 
REMARK    2  A    between atoms: C_5  and  N_6 
REMARK       I    between atoms: N_6  and  C_7 
REMARK    3  A    between atoms: C_7  and  C_8 
REMARK    4  A    between atoms: C_11  and  N_12 
REMARK       I    between atoms: N_12  and  C_13 
REMARK    5  A    between atoms: C_13  and  C_14 
ROOT
HETATM    1  C   UNL     1      26.662  41.422  49.357  1.00  0.00     0.032 A 
HETATM    2  C   UNL     1      26.606  42.820  49.373  1.00  0.00     0.019 A 
HETATM    3  C   UNL     1      26.999  43.531  50.515  1.00  0.00     0.030 A 
HETATM    4  C   UNL     1      27.446  42.859  51.655  1.00  0.00     0.035 A 
HETATM    5  C   UNL     1      27.492  41.459  51.638  1.00  0.00     0.030 A 
HETATM    6  C   UNL     1      27.100  40.746  50.501  1.00  0.00     0.019 A 
ENDROOT
BRANCH   4   7
HETATM    7  N   UNL     1      27.834  43.501  52.848  1.00  0.00    -0.323 N 
HETATM    8  C   UNL     1      29.121  43.704  53.313  1.00  0.00     0.257 C 
HETATM    9  O   UNL     1      30.156  43.263  52.827  1.00  0.00    -0.267 OA
HETATM   10  H   UNL     1      27.080  43.818  53.443  1.00  0.00     0.169 HD
BRANCH   8  11
HETATM   11  C   UNL     1      29.221  44.487  54.565  1.00  0.00     0.047 A 
HETATM   12  C   UNL     1      30.116  44.166  55.604  1.00  0.00     0.027 A 
HETATM   13  C   UNL     1      30.103  45.008  56.713  1.00  0.00     0.138 A 
HETATM   14  C   UNL     1      31.076  43.149  55.891  1.00  0.00     0.033 A 
HETATM   15  N   UNL     1      31.031  44.554  57.611  1.00  0.00    -0.350 N 
HETATM   16  N   UNL     1      29.328  46.088  56.917  1.00  0.00    -0.242 NA
HETATM   17  H   UNL     1      31.208  44.996  58.502  1.00  0.00     0.166 HD
HETATM   18  C   UNL     1      31.629  43.422  57.124  1.00  0.00     0.090 A 
HETATM   19  C   UNL     1      28.465  46.325  55.905  1.00  0.00     0.120 A 
HETATM   20  C   UNL     1      28.366  45.582  54.741  1.00  0.00     0.037 A 
ENDBRANCH   8  11
ENDBRANCH   4   7
BRANCH   1  21
HETATM   21  C   UNL     1      26.240  40.613  48.176  1.00  0.00     0.251 C 
HETATM   22  N   UNL     1      26.156  41.271  46.969  1.00  0.00    -0.352 N 
HETATM   23  H   UNL     1      26.598  42.173  46.863  1.00  0.00     0.163 HD
HETATM   24  O   UNL     1      26.012  39.415  48.301  1.00  0.00    -0.268 OA
BRANCH  22  25
HETATM   25  C   UNL     1      25.881  40.533  45.758  1.00  0.00     0.169 C 
BRANCH  25  26
HETATM   26  C   UNL     1      26.987  40.783  44.786  1.00  0.00     0.000 A 
HETATM   27  S   UNL     1      26.649  41.419  43.229  1.00  0.00    -0.105 SA
HETATM   28  C   UNL     1      28.302  41.401  42.793  1.00  0.00     0.050 A 
HETATM   29  C   UNL     1      29.099  40.925  43.808  1.00  0.00     0.008 A 
HETATM   30  C   UNL     1      28.341  40.565  44.959  1.00  0.00     0.017 A 
ENDBRANCH  25  26
ENDBRANCH  22  25
ENDBRANCH   1  21
TORSDOF 5
ENDMDL
MODEL 9
REMARK VINA RESULT:      -8.1     11.897     15.056
REMARK  5 active torsions:
REMARK  status: ('A' for Active; 'I' for Inactive)
REMARK    1  A    between atoms: C_4  and  C_5 
REMARK    2  A    between atoms: C_5  and  N_6 
REMARK       I    between atoms: N_6  and  C_7 
REMARK    3  A    between atoms: C_7  and  C_8 
REMARK    4  A    between atoms: C_11  and  N_12 
REMARK       I    between atoms: N_12  and  C_13 
REMARK    5  A    between atoms: C_13  and  C_14 
ROOT
HETATM    1  C   UNL     1      35.920  51.310  42.607  1.00  0.00     0.032 A 
HETATM    2  C   UNL     1      35.697  50.461  41.518  1.00  0.00     0.019 A 
HETATM    3  C   UNL     1      34.391  50.117  41.144  1.00  0.00     0.030 A 
HETATM    4  C   UNL     1      33.293  50.608  41.854  1.00  0.00     0.035 A 
HETATM    5  C   UNL     1      33.521  51.450  42.950  1.00  0.00     0.030 A 
HETATM    6  C   UNL     1      34.823  51.795  43.326  1.00  0.00     0.019 A 
ENDROOT
BRANCH   4   7
HETATM    7  N   UNL     1      31.954  50.289  41.555  1.00  0.00    -0.323 N 
HETATM    8  C   UNL     1      31.081  49.529  42.313  1.00  0.00     0.257 C 
HETATM    9  O   UNL     1      31.348  48.901  43.330  1.00  0.00    -0.267 OA
HETATM   10  H   UNL     1      31.607  50.630  40.667  1.00  0.00     0.169 HD
BRANCH   8  11
HETATM   11  C   UNL     1      29.704  49.433  41.779  1.00  0.00     0.047 A 
HETATM   12  C   UNL     1      28.888  50.559  41.547  1.00  0.00     0.027 A 
HETATM   13  C   UNL     1      27.621  50.307  41.027  1.00  0.00     0.138 A 
HETATM   14  C   UNL     1      28.968  51.972  41.728  1.00  0.00     0.033 A 
HETATM   15  N   UNL     1      26.977  51.502  40.862  1.00  0.00    -0.350 N 
HETATM   16  N   UNL     1      27.077  49.114  40.730  1.00  0.00    -0.242 NA
HETATM   17  H   UNL     1      26.037  51.584  40.502  1.00  0.00     0.166 HD
HETATM   18  C   UNL     1      27.785  52.525  41.286  1.00  0.00     0.090 A 
HETATM   19  C   UNL     1      27.889  48.070  41.006  1.00  0.00     0.120 A 
HETATM   20  C   UNL     1      29.173  48.164  41.518  1.00  0.00     0.037 A 
ENDBRANCH   8  11
ENDBRANCH   4   7
BRANCH   1  21
HETATM   21  C   UNL     1      37.288  51.695  43.060  1.00  0.00     0.251 C 
HETATM   22  N   UNL     1      37.558  51.566  44.404  1.00  0.00    -0.352 N 
HETATM   23  H   UNL     1      36.945  51.009  44.983  1.00  0.00     0.163 HD
HETATM   24  O   UNL     1      38.121  52.080  42.247  1.00  0.00    -0.268 OA
BRANCH  22  25
HETATM   25  C   UNL     1      38.896  51.795  44.902  1.00  0.00     0.169 C 
BRANCH  25  26
HETATM   26  C   UNL     1      38.895  53.053  45.707  1.00  0.00     0.000 A 
HETATM   27  S   UNL     1      39.432  54.527  45.013  1.00  0.00    -0.105 SA
HETATM   28  C   UNL     1      39.138  55.389  46.459  1.00  0.00     0.050 A 
HETATM   29  C   UNL     1      38.638  54.577  47.452  1.00  0.00     0.008 A 
HETATM   30  C   UNL     1      38.499  53.228  47.019  1.00  0.00     0.017 A 
ENDBRANCH  25  26
ENDBRANCH  22  25
ENDBRANCH   1  21
TORSDOF 5
ENDMDL
MODEL 10
REMARK VINA RESULT:      -8.0      3.282     10.479
REMARK  5 active torsions:
REMARK  status: ('A' for Active; 'I' for Inactive)
REMARK    1  A    between atoms: C_4  and  C_5 
REMARK    2  A    between atoms: C_5  and  N_6 
REMARK       I    between atoms: N_6  and  C_7 
REMARK    3  A    between atoms: C_7  and  C_8 
REMARK    4  A    between atoms: C_11  and  N_12 
REMARK       I    between atoms: N_12  and  C_13 
REMARK    5  A    between atoms: C_13  and  C_14 
ROOT
HETATM    1  C   UNL     1      25.462  45.968  49.773  1.00  0.00     0.032 A 
HETATM    2  C   UNL     1      25.308  47.342  49.985  1.00  0.00     0.019 A 
HETATM    3  C   UNL     1      24.113  47.984  49.631  1.00  0.00     0.030 A 
HETATM    4  C   UNL     1      23.062  47.267  49.056  1.00  0.00     0.035 A 
HETATM    5  C   UNL     1      23.223  45.893  48.836  1.00  0.00     0.030 A 
HETATM    6  C   UNL     1      24.414  45.249  49.187  1.00  0.00     0.019 A 
ENDROOT
BRANCH   4   7
HETATM    7  N   UNL     1      21.842  47.844  48.651  1.00  0.00    -0.323 N 
HETATM    8  C   UNL     1      21.662  48.920  47.801  1.00  0.00     0.257 C 
HETATM    9  O   UNL     1      22.535  49.639  47.331  1.00  0.00    -0.267 OA
HETATM   10  H   UNL     1      21.007  47.442  49.059  1.00  0.00     0.169 HD
BRANCH   8  11
HETATM   11  C   UNL     1      20.252  49.251  47.495  1.00  0.00     0.047 A 
HETATM   12  C   UNL     1      19.660  50.485  47.829  1.00  0.00     0.027 A 
HETATM   13  C   UNL     1      18.328  50.652  47.460  1.00  0.00     0.138 A 
HETATM   14  C   UNL     1      20.037  51.684  48.506  1.00  0.00     0.033 A 
HETATM   15  N   UNL     1      17.924  51.898  47.854  1.00  0.00    -0.350 N 
HETATM   16  N   UNL     1      17.532  49.770  46.832  1.00  0.00    -0.242 NA
HETATM   17  H   UNL     1      16.992  52.256  47.703  1.00  0.00     0.166 HD
HETATM   18  C   UNL     1      18.954  52.538  48.494  1.00  0.00     0.090 A 
HETATM   19  C   UNL     1      18.141  48.592  46.569  1.00  0.00     0.120 A 
HETATM   20  C   UNL     1      19.457  48.282  46.870  1.00  0.00     0.037 A 
ENDBRANCH   8  11
ENDBRANCH   4   7
BRANCH   1  21
HETATM   21  C   UNL     1      26.716  45.236  50.114  1.00  0.00     0.251 C 
HETATM   22  N   UNL     1      26.613  44.221  51.039  1.00  0.00    -0.352 N 
HETATM   23  H   UNL     1      25.702  43.847  51.267  1.00  0.00     0.163 HD
HETATM   24  O   UNL     1      27.770  45.529  49.560  1.00  0.00    -0.268 OA
BRANCH  22  25
HETATM   25  C   UNL     1      27.753  43.381  51.327  1.00  0.00     0.169 C 
BRANCH  25  26
HETATM   26  C   UNL     1      28.259  43.717  52.692  1.00  0.00     0.000 A 
HETATM   27  S   UNL     1      29.695  42.992  53.288  1.00  0.00    -0.105 SA
HETATM   28  C   UNL     1      29.578  43.833  54.772  1.00  0.00     0.050 A 
HETATM   29  C   UNL     1      28.473  44.652  54.817  1.00  0.00     0.008 A 
HETATM   30  C   UNL     1      27.710  44.584  53.617  1.00  0.00     0.017 A 
ENDBRANCH  25  26
ENDBRANCH  22  25
ENDBRANCH   1  21
TORSDOF 5
ENDMDL
