MODEL 1
REMARK VINA RESULT:      -8.8      0.000      0.000
REMARK  6 active torsions:
REMARK  status: ('A' for Active; 'I' for Inactive)
REMARK    1  A    between atoms: C_2  and  C_3 
REMARK    2  A    between atoms: C_7  and  C_8 
REMARK       I    between atoms: C_8  and  N_9 
REMARK    3  A    between atoms: N_9  and  C_10 
REMARK    4  A    between atoms: C_10  and  C_11 
REMARK    5  A    between atoms: C_10  and  C_19 
REMARK    6  A    between atoms: C_14  and  O_15 
ROOT
HETATM    1  C   UNL     1      27.370  43.492  53.172  1.00  0.00     0.151 C 
ENDROOT
BRANCH   1   2
HETATM    2  N   UNL     1      27.009  44.564  52.261  1.00  0.00    -0.343 N 
HETATM    3  C   UNL     1      25.733  45.055  52.178  1.00  0.00     0.270 C 
HETATM    4  O   UNL     1      24.796  44.605  52.829  1.00  0.00    -0.266 OA
HETATM    5  H   UNL     1      27.679  44.814  51.551  1.00  0.00     0.163 HD
BRANCH   3   6
HETATM    6  C   UNL     1      25.574  46.168  51.281  1.00  0.00     0.119 A 
HETATM    7  N   UNL     1      24.390  46.846  51.176  1.00  0.00    -0.273 N 
HETATM    8  N   UNL     1      24.432  47.901  50.345  1.00  0.00    -0.179 NA
HETATM    9  H   UNL     1      23.525  46.640  51.668  1.00  0.00     0.189 HD
HETATM   10  C   UNL     1      25.693  47.911  49.901  1.00  0.00     0.056 A 
HETATM   11  C   UNL     1      26.441  46.835  50.435  1.00  0.00     0.065 A 
BRANCH  10  12
HETATM   12  C   UNL     1      26.167  48.987  48.984  1.00  0.00     0.056 C 
HETATM   13  C   UNL     1      27.676  49.175  49.054  1.00  0.00     0.011 C 
ENDBRANCH  10  12
ENDBRANCH   3   6
ENDBRANCH   1   2
BRANCH   1  14
HETATM   14  C   UNL     1      27.801  42.276  52.357  1.00  0.00    -0.031 A 
HETATM   15  C   UNL     1      28.475  41.195  52.945  1.00  0.00     0.012 A 
HETATM   16  C   UNL     1      28.828  40.080  52.180  1.00  0.00     0.037 A 
HETATM   17  C   UNL     1      28.522  40.021  50.818  1.00  0.00     0.068 A 
HETATM   18  C   UNL     1      27.880  41.104  50.219  1.00  0.00     0.037 A 
HETATM   19  C   UNL     1      27.527  42.223  50.981  1.00  0.00     0.012 A 
BRANCH  17  20
HETATM   20  O   UNL     1      28.905  38.867  50.193  1.00  0.00    -0.356 OA
HETATM   21  C   UNL     1      29.873  38.069  50.862  1.00  0.00     0.210 C 
ENDBRANCH  17  20
ENDBRANCH   1  14
BRANCH   1  22
HETATM   22  C   UNL     1      28.403  43.948  54.211  1.00  0.00    -0.031 A 
HETATM   23  C   UNL     1      29.615  43.263  54.407  1.00  0.00     0.009 A 
HETATM   24  C   UNL     1      30.557  43.712  55.338  1.00  0.00     0.001 A 
HETATM   25  C   UNL     1      30.314  44.867  56.075  1.00  0.00     0.000 A 
HETATM   26  C   UNL     1      29.136  45.581  55.874  1.00  0.00     0.001 A 
HETATM   27  C   UNL     1      28.194  45.132  54.944  1.00  0.00     0.009 A 
ENDBRANCH   1  22
TORSDOF 6
ENDMDL
MODEL 2
REMARK VINA RESULT:      -8.7      1.514      2.067
REMARK  6 active torsions:
REMARK  status: ('A' for Active; 'I' for Inactive)
REMARK    1  A    between atoms: C_2  and  C_3 
REMARK    2  A    between atoms: C_7  and  C_8 
REMARK       I    between atoms: C_8  and  N_9 
REMARK    3  A    between atoms: N_9  and  C_10 
REMARK    4  A    between atoms: C_10  and  C_11 
REMARK    5  A    between atoms: C_10  and  C_19 
REMARK    6  A    between atoms: C_14  and  O_15 
ROOT
HETATM    1  C   UNL     1      26.674  43.107  51.768  1.00  0.00     0.151 C 
ENDROOT
BRANCH   1   2
HETATM    2  N   UNL     1      26.445  44.378  51.105  1.00  0.00    -0.343 N 
HETATM    3  C   UNL     1      25.247  45.039  51.179  1.00  0.00     0.270 C 
HETATM    4  O   UNL     1      24.270  44.593  51.772  1.00  0.00    -0.266 OA
HETATM    5  H   UNL     1      27.129  44.677  50.428  1.00  0.00     0.163 HD
BRANCH   3   6
HETATM    6  C   UNL     1      25.226  46.321  50.528  1.00  0.00     0.119 A 
HETATM    7  N   UNL     1      24.139  47.150  50.605  1.00  0.00    -0.273 N 
HETATM    8  N   UNL     1      24.310  48.337  49.999  1.00  0.00    -0.179 NA
HETATM    9  H   UNL     1      23.261  46.960  51.077  1.00  0.00     0.189 HD
HETATM   10  C   UNL     1      25.556  48.278  49.519  1.00  0.00     0.056 A 
HETATM   11  C   UNL     1      26.162  47.030  49.800  1.00  0.00     0.065 A 
BRANCH  10  12
HETATM   12  C   UNL     1      26.157  49.448  48.817  1.00  0.00     0.056 C 
HETATM   13  C   UNL     1      27.669  49.500  48.981  1.00  0.00     0.011 C 
ENDBRANCH  10  12
ENDBRANCH   3   6
ENDBRANCH   1   2
BRANCH   1  14
HETATM   14  C   UNL     1      26.748  42.006  50.714  1.00  0.00    -0.031 A 
HETATM   15  C   UNL     1      27.141  42.274  49.394  1.00  0.00     0.012 A 
HETATM   16  C   UNL     1      27.231  41.239  48.458  1.00  0.00     0.037 A 
HETATM   17  C   UNL     1      26.928  39.924  48.816  1.00  0.00     0.068 A 
HETATM   18  C   UNL     1      26.507  39.653  50.117  1.00  0.00     0.037 A 
HETATM   19  C   UNL     1      26.413  40.686  51.056  1.00  0.00     0.012 A 
BRANCH  17  20
HETATM   20  O   UNL     1      27.077  39.007  47.812  1.00  0.00    -0.356 OA
HETATM   21  C   UNL     1      28.015  37.962  48.036  1.00  0.00     0.210 C 
ENDBRANCH  17  20
ENDBRANCH   1  14
BRANCH   1  22
HETATM   22  C   UNL     1      27.888  43.161  52.704  1.00  0.00    -0.031 A 
HETATM   23  C   UNL     1      29.104  42.530  52.384  1.00  0.00     0.009 A 
HETATM   24  C   UNL     1      30.209  42.616  53.237  1.00  0.00     0.001 A 
HETATM   25  C   UNL     1      30.125  43.351  54.415  1.00  0.00     0.000 A 
HETATM   26  C   UNL     1      28.943  44.012  54.737  1.00  0.00     0.001 A 
HETATM   27  C   UNL     1      27.838  43.926  53.885  1.00  0.00     0.009 A 
ENDBRANCH   1  22
TORSDOF 6
ENDMDL
MODEL 3
REMARK VINA RESULT:      -8.6      2.691      6.594
REMARK  6 active torsions:
REMARK  status: ('A' for Active; 'I' for Inactive)
REMARK    1  A    between atoms: C_2  and  C_3 
REMARK    2  A    between atoms: C_7  and  C_8 
REMARK       I    between atoms: C_8  and  N_9 
REMARK    3  A    between atoms: N_9  and  C_10 
REMARK    4  A    between atoms: C_10  and  C_11 
REMARK    5  A    between atoms: C_10  and  C_19 
REMARK    6  A    between atoms: C_14  and  O_15 
ROOT
HETATM    1  C   UNL     1      26.952  43.465  52.718  1.00  0.00     0.151 C 
ENDROOT
BRANCH   1   2
HETATM    2  N   UNL     1      27.286  42.244  52.006  1.00  0.00    -0.343 N 
HETATM    3  C   UNL     1      26.389  41.601  51.194  1.00  0.00     0.270 C 
HETATM    4  O   UNL     1      25.232  41.979  51.039  1.00  0.00    -0.266 OA
HETATM    5  H   UNL     1      28.136  41.772  52.270  1.00  0.00     0.163 HD
BRANCH   3   6
HETATM    6  C   UNL     1      26.916  40.453  50.506  1.00  0.00     0.119 A 
HETATM    7  N   UNL     1      26.168  39.324  50.309  1.00  0.00    -0.273 N 
HETATM    8  N   UNL     1      26.787  38.373  49.590  1.00  0.00    -0.179 NA
HETATM    9  H   UNL     1      25.218  39.161  50.630  1.00  0.00     0.189 HD
HETATM   10  C   UNL     1      27.977  38.909  49.304  1.00  0.00     0.056 A 
HETATM   11  C   UNL     1      28.119  40.196  49.875  1.00  0.00     0.065 A 
BRANCH  10  12
HETATM   12  C   UNL     1      28.956  38.174  48.451  1.00  0.00     0.056 C 
HETATM   13  C   UNL     1      30.326  38.077  49.107  1.00  0.00     0.011 C 
ENDBRANCH  10  12
ENDBRANCH   3   6
ENDBRANCH   1   2
BRANCH   1  14
HETATM   14  C   UNL     1      28.049  43.758  53.737  1.00  0.00    -0.031 A 
HETATM   15  C   UNL     1      29.129  42.884  53.931  1.00  0.00     0.012 A 
HETATM   16  C   UNL     1      30.136  43.194  54.848  1.00  0.00     0.037 A 
HETATM   17  C   UNL     1      30.087  44.375  55.592  1.00  0.00     0.068 A 
HETATM   18  C   UNL     1      29.001  45.235  55.429  1.00  0.00     0.037 A 
HETATM   19  C   UNL     1      27.989  44.927  54.513  1.00  0.00     0.012 A 
BRANCH  17  20
HETATM   20  O   UNL     1      31.144  44.567  56.437  1.00  0.00    -0.356 OA
HETATM   21  C   UNL     1      31.675  43.408  57.069  1.00  0.00     0.210 C 
ENDBRANCH  17  20
ENDBRANCH   1  14
BRANCH   1  22
HETATM   22  C   UNL     1      26.662  44.626  51.758  1.00  0.00    -0.031 A 
HETATM   23  C   UNL     1      27.371  44.793  50.555  1.00  0.00     0.009 A 
HETATM   24  C   UNL     1      27.072  45.841  49.679  1.00  0.00     0.001 A 
HETATM   25  C   UNL     1      26.043  46.729  49.979  1.00  0.00     0.000 A 
HETATM   26  C   UNL     1      25.305  46.564  51.147  1.00  0.00     0.001 A 
HETATM   27  C   UNL     1      25.605  45.517  52.024  1.00  0.00     0.009 A 
ENDBRANCH   1  22
TORSDOF 6
ENDMDL
MODEL 4
REMARK VINA RESULT:      -8.6      2.981      6.916
REMARK  6 active torsions:
REMARK  status: ('A' for Active; 'I' for Inactive)
REMARK    1  A    between atoms: C_2  and  C_3 
REMARK    2  A    between atoms: C_7  and  C_8 
REMARK       I    between atoms: C_8  and  N_9 
REMARK    3  A    between atoms: N_9  and  C_10 
REMARK    4  A    between atoms: C_10  and  C_11 
REMARK    5  A    between atoms: C_10  and  C_19 
REMARK    6  A    between atoms: C_14  and  O_15 
ROOT
HETATM    1  C   UNL     1      27.274  42.881  52.597  1.00  0.00     0.151 C 
ENDROOT
BRANCH   1   2
HETATM    2  N   UNL     1      27.889  41.825  51.813  1.00  0.00    -0.343 N 
HETATM    3  C   UNL     1      27.153  40.942  51.067  1.00  0.00     0.270 C 
HETATM    4  O   UNL     1      25.926  40.949  51.036  1.00  0.00    -0.266 OA
HETATM    5  H   UNL     1      28.865  41.634  51.977  1.00  0.00     0.163 HD
BRANCH   3   6
HETATM    6  C   UNL     1      27.931  40.015  50.291  1.00  0.00     0.119 A 
HETATM    7  N   UNL     1      28.950  39.288  50.845  1.00  0.00    -0.273 N 
HETATM    8  N   UNL     1      29.528  38.419  49.999  1.00  0.00    -0.179 NA
HETATM    9  H   UNL     1      29.278  39.334  51.805  1.00  0.00     0.189 HD
HETATM   10  C   UNL     1      28.853  38.583  48.857  1.00  0.00     0.056 A 
HETATM   11  C   UNL     1      27.862  39.586  48.978  1.00  0.00     0.065 A 
BRANCH  10  12
HETATM   12  C   UNL     1      29.159  37.740  47.666  1.00  0.00     0.056 C 
HETATM   13  C   UNL     1      27.900  37.333  46.914  1.00  0.00     0.011 C 
ENDBRANCH  10  12
ENDBRANCH   3   6
ENDBRANCH   1   2
BRANCH   1  14
HETATM   14  C   UNL     1      28.268  43.352  53.655  1.00  0.00    -0.031 A 
HETATM   15  C   UNL     1      29.374  42.574  54.027  1.00  0.00     0.012 A 
HETATM   16  C   UNL     1      30.285  43.046  54.976  1.00  0.00     0.037 A 
HETATM   17  C   UNL     1      30.111  44.296  55.574  1.00  0.00     0.068 A 
HETATM   18  C   UNL     1      28.998  45.063  55.233  1.00  0.00     0.037 A 
HETATM   19  C   UNL     1      28.082  44.593  54.286  1.00  0.00     0.012 A 
BRANCH  17  20
HETATM   20  O   UNL     1      31.085  44.645  56.469  1.00  0.00    -0.356 OA
HETATM   21  C   UNL     1      31.734  43.581  57.154  1.00  0.00     0.210 C 
ENDBRANCH  17  20
ENDBRANCH   1  14
BRANCH   1  22
HETATM   22  C   UNL     1      26.723  44.005  51.711  1.00  0.00    -0.031 A 
HETATM   23  C   UNL     1      27.449  44.520  50.622  1.00  0.00     0.009 A 
HETATM   24  C   UNL     1      26.916  45.524  49.808  1.00  0.00     0.001 A 
HETATM   25  C   UNL     1      25.639  46.017  50.053  1.00  0.00     0.000 A 
HETATM   26  C   UNL     1      24.887  45.499  51.104  1.00  0.00     0.001 A 
HETATM   27  C   UNL     1      25.420  44.496  51.919  1.00  0.00     0.009 A 
ENDBRANCH   1  22
TORSDOF 6
ENDMDL
MODEL 5
REMARK VINA RESULT:      -8.3      2.804      7.443
REMARK  6 active torsions:
REMARK  status: ('A' for Active; 'I' for Inactive)
REMARK    1  A    between atoms: C_2  and  C_3 
REMARK    2  A    between atoms: C_7  and  C_8 
REMARK       I    between atoms: C_8  and  N_9 
REMARK    3  A    between atoms: N_9  and  C_10 
REMARK    4  A    between atoms: C_10  and  C_11 
REMARK    5  A    between atoms: C_10  and  C_19 
REMARK    6  A    between atoms: C_14  and  O_15 
ROOT
HETATM    1  C   UNL     1      25.356  45.409  51.382  1.00  0.00     0.151 C 
ENDROOT
BRANCH   1   2
HETATM    2  N   UNL     1      26.436  45.568  52.340  1.00  0.00    -0.343 N 
HETATM    3  C   UNL     1      26.300  45.226  53.660  1.00  0.00     0.270 C 
HETATM    4  O   UNL     1      25.253  44.802  54.140  1.00  0.00    -0.266 OA
HETATM    5  H   UNL     1      27.233  46.113  52.054  1.00  0.00     0.163 HD
BRANCH   3   6
HETATM    6  C   UNL     1      27.495  45.374  54.446  1.00  0.00     0.119 A 
HETATM    7  N   UNL     1      27.654  46.408  55.329  1.00  0.00    -0.273 N 
HETATM    8  N   UNL     1      28.798  46.359  56.031  1.00  0.00    -0.179 NA
HETATM    9  H   UNL     1      27.000  47.164  55.504  1.00  0.00     0.189 HD
HETATM   10  C   UNL     1      29.399  45.249  55.593  1.00  0.00     0.056 A 
HETATM   11  C   UNL     1      28.639  44.610  54.584  1.00  0.00     0.065 A 
BRANCH  10  12
HETATM   12  C   UNL     1      30.694  44.802  56.183  1.00  0.00     0.056 C 
HETATM   13  C   UNL     1      30.933  43.313  55.977  1.00  0.00     0.011 C 
ENDBRANCH  10  12
ENDBRANCH   3   6
ENDBRANCH   1   2
BRANCH   1  14
HETATM   14  C   UNL     1      25.293  46.653  50.499  1.00  0.00    -0.031 A 
HETATM   15  C   UNL     1      24.086  47.107  49.949  1.00  0.00     0.012 A 
HETATM   16  C   UNL     1      24.053  48.268  49.172  1.00  0.00     0.037 A 
HETATM   17  C   UNL     1      25.220  48.995  48.925  1.00  0.00     0.068 A 
HETATM   18  C   UNL     1      26.430  48.534  49.441  1.00  0.00     0.037 A 
HETATM   19  C   UNL     1      26.467  47.371  50.218  1.00  0.00     0.012 A 
BRANCH  17  20
HETATM   20  O   UNL     1      25.046  50.121  48.167  1.00  0.00    -0.356 OA
HETATM   21  C   UNL     1      23.706  50.546  47.954  1.00  0.00     0.210 C 
ENDBRANCH  17  20
ENDBRANCH   1  14
BRANCH   1  22
HETATM   22  C   UNL     1      25.471  44.093  50.602  1.00  0.00    -0.031 A 
HETATM   23  C   UNL     1      26.658  43.715  49.950  1.00  0.00     0.009 A 
HETATM   24  C   UNL     1      26.752  42.497  49.270  1.00  0.00     0.001 A 
HETATM   25  C   UNL     1      25.668  41.625  49.248  1.00  0.00     0.000 A 
HETATM   26  C   UNL     1      24.494  41.962  49.915  1.00  0.00     0.001 A 
HETATM   27  C   UNL     1      24.400  43.180  50.594  1.00  0.00     0.009 A 
ENDBRANCH   1  22
TORSDOF 6
ENDMDL
MODEL 6
REMARK VINA RESULT:      -8.2      2.329      6.959
REMARK  6 active torsions:
REMARK  status: ('A' for Active; 'I' for Inactive)
REMARK    1  A    between atoms: C_2  and  C_3 
REMARK    2  A    between atoms: C_7  and  C_8 
REMARK       I    between atoms: C_8  and  N_9 
REMARK    3  A    between atoms: N_9  and  C_10 
REMARK    4  A    between atoms: C_10  and  C_11 
REMARK    5  A    between atoms: C_10  and  C_19 
REMARK    6  A    between atoms: C_14  and  O_15 
ROOT
HETATM    1  C   UNL     1      25.428  45.877  51.457  1.00  0.00     0.151 C 
ENDROOT
BRANCH   1   2
HETATM    2  N   UNL     1      25.992  44.703  50.815  1.00  0.00    -0.343 N 
HETATM    3  C   UNL     1      25.320  43.511  50.745  1.00  0.00     0.270 C 
HETATM    4  O   UNL     1      24.216  43.332  51.252  1.00  0.00    -0.266 OA
HETATM    5  H   UNL     1      26.973  44.727  50.583  1.00  0.00     0.163 HD
BRANCH   3   6
HETATM    6  C   UNL     1      25.995  42.481  50.003  1.00  0.00     0.119 A 
HETATM    7  N   UNL     1      26.586  42.732  48.794  1.00  0.00    -0.273 N 
HETATM    8  N   UNL     1      27.232  41.677  48.269  1.00  0.00    -0.179 NA
HETATM    9  H   UNL     1      26.594  43.615  48.293  1.00  0.00     0.189 HD
HETATM   10  C   UNL     1      27.059  40.710  49.175  1.00  0.00     0.056 A 
HETATM   11  C   UNL     1      26.272  41.152  50.265  1.00  0.00     0.065 A 
BRANCH  10  12
HETATM   12  C   UNL     1      27.689  39.371  48.985  1.00  0.00     0.056 C 
HETATM   13  C   UNL     1      28.699  39.054  50.078  1.00  0.00     0.011 C 
ENDBRANCH  10  12
ENDBRANCH   3   6
ENDBRANCH   1   2
BRANCH   1  14
HETATM   14  C   UNL     1      26.137  46.098  52.791  1.00  0.00    -0.031 A 
HETATM   15  C   UNL     1      27.072  45.179  53.290  1.00  0.00     0.012 A 
HETATM   16  C   UNL     1      27.730  45.424  54.499  1.00  0.00     0.037 A 
HETATM   17  C   UNL     1      27.467  46.583  55.233  1.00  0.00     0.068 A 
HETATM   18  C   UNL     1      26.517  47.487  54.760  1.00  0.00     0.037 A 
HETATM   19  C   UNL     1      25.854  47.243  53.551  1.00  0.00     0.012 A 
BRANCH  17  20
HETATM   20  O   UNL     1      28.193  46.710  56.385  1.00  0.00    -0.356 OA
HETATM   21  C   UNL     1      29.402  45.965  56.464  1.00  0.00     0.210 C 
ENDBRANCH  17  20
ENDBRANCH   1  14
BRANCH   1  22
HETATM   22  C   UNL     1      25.443  47.099  50.530  1.00  0.00    -0.031 A 
HETATM   23  C   UNL     1      26.642  47.676  50.077  1.00  0.00     0.009 A 
HETATM   24  C   UNL     1      26.634  48.772  49.207  1.00  0.00     0.001 A 
HETATM   25  C   UNL     1      25.426  49.296  48.758  1.00  0.00     0.000 A 
HETATM   26  C   UNL     1      24.226  48.720  49.165  1.00  0.00     0.001 A 
HETATM   27  C   UNL     1      24.234  47.626  50.035  1.00  0.00     0.009 A 
ENDBRANCH   1  22
TORSDOF 6
ENDMDL
MODEL 7
REMARK VINA RESULT:      -8.0      6.220     10.251
REMARK  6 active torsions:
REMARK  status: ('A' for Active; 'I' for Inactive)
REMARK    1  A    between atoms: C_2  and  C_3 
REMARK    2  A    between atoms: C_7  and  C_8 
REMARK       I    between atoms: C_8  and  N_9 
REMARK    3  A    between atoms: N_9  and  C_10 
REMARK    4  A    between atoms: C_10  and  C_11 
REMARK    5  A    between atoms: C_10  and  C_19 
REMARK    6  A    between atoms: C_14  and  O_15 
ROOT
HETATM    1  C   UNL     1      20.848  48.809  47.678  1.00  0.00     0.151 C 
ENDROOT
BRANCH   1   2
HETATM    2  N   UNL     1      21.993  48.328  48.430  1.00  0.00    -0.343 N 
HETATM    3  C   UNL     1      23.253  48.836  48.251  1.00  0.00     0.270 C 
HETATM    4  O   UNL     1      23.517  49.700  47.420  1.00  0.00    -0.266 OA
HETATM    5  H   UNL     1      21.877  47.476  48.956  1.00  0.00     0.163 HD
BRANCH   3   6
HETATM    6  C   UNL     1      24.250  48.298  49.137  1.00  0.00     0.119 A 
HETATM    7  N   UNL     1      25.520  48.808  49.188  1.00  0.00    -0.273 N 
HETATM    8  N   UNL     1      26.304  48.236  50.116  1.00  0.00    -0.179 NA
HETATM    9  H   UNL     1      25.895  49.562  48.621  1.00  0.00     0.189 HD
HETATM   10  C   UNL     1      25.511  47.328  50.694  1.00  0.00     0.056 A 
HETATM   11  C   UNL     1      24.226  47.308  50.101  1.00  0.00     0.065 A 
BRANCH  10  12
HETATM   12  C   UNL     1      26.003  46.508  51.838  1.00  0.00     0.056 C 
HETATM   13  C   UNL     1      25.739  47.179  53.178  1.00  0.00     0.011 C 
ENDBRANCH  10  12
ENDBRANCH   3   6
ENDBRANCH   1   2
BRANCH   1  14
HETATM   14  C   UNL     1      19.951  47.623  47.333  1.00  0.00    -0.031 A 
HETATM   15  C   UNL     1      20.100  46.378  47.962  1.00  0.00     0.012 A 
HETATM   16  C   UNL     1      19.242  45.319  47.649  1.00  0.00     0.037 A 
HETATM   17  C   UNL     1      18.226  45.478  46.704  1.00  0.00     0.068 A 
HETATM   18  C   UNL     1      18.091  46.703  46.051  1.00  0.00     0.037 A 
HETATM   19  C   UNL     1      18.949  47.764  46.360  1.00  0.00     0.012 A 
BRANCH  17  20
HETATM   20  O   UNL     1      17.447  44.371  46.507  1.00  0.00    -0.356 OA
HETATM   21  C   UNL     1      16.957  44.162  45.188  1.00  0.00     0.210 C 
ENDBRANCH  17  20
ENDBRANCH   1  14
BRANCH   1  22
HETATM   22  C   UNL     1      20.125  49.950  48.404  1.00  0.00    -0.031 A 
HETATM   23  C   UNL     1      20.072  51.253  47.878  1.00  0.00     0.009 A 
HETATM   24  C   UNL     1      19.382  52.273  48.540  1.00  0.00     0.001 A 
HETATM   25  C   UNL     1      18.714  52.004  49.730  1.00  0.00     0.000 A 
HETATM   26  C   UNL     1      18.723  50.714  50.254  1.00  0.00     0.001 A 
HETATM   27  C   UNL     1      19.414  49.695  49.592  1.00  0.00     0.009 A 
ENDBRANCH   1  22
TORSDOF 6
ENDMDL
MODEL 8
REMARK VINA RESULT:      -8.0      7.718     10.977
REMARK  6 active torsions:
REMARK  status: ('A' for Active; 'I' for Inactive)
REMARK    1  A    between atoms: C_2  and  C_3 
REMARK    2  A    between atoms: C_7  and  C_8 
REMARK       I    between atoms: C_8  and  N_9 
REMARK    3  A    between atoms: N_9  and  C_10 
REMARK    4  A    between atoms: C_10  and  C_11 
REMARK    5  A    between atoms: C_10  and  C_19 
REMARK    6  A    between atoms: C_14  and  O_15 
ROOT
HETATM    1  C   UNL     1      20.746  49.223  49.214  1.00  0.00     0.151 C 
ENDROOT
BRANCH   1   2
HETATM    2  N   UNL     1      20.245  48.064  48.498  1.00  0.00    -0.343 N 
HETATM    3  C   UNL     1      19.091  47.421  48.861  1.00  0.00     0.270 C 
HETATM    4  O   UNL     1      18.420  47.745  49.836  1.00  0.00    -0.266 OA
HETATM    5  H   UNL     1      20.866  47.623  47.838  1.00  0.00     0.163 HD
BRANCH   3   6
HETATM    6  C   UNL     1      18.704  46.342  47.993  1.00  0.00     0.119 A 
HETATM    7  N   UNL     1      19.001  45.038  48.284  1.00  0.00    -0.273 N 
HETATM    8  N   UNL     1      18.507  44.152  47.404  1.00  0.00    -0.179 NA
HETATM    9  H   UNL     1      19.523  44.699  49.086  1.00  0.00     0.189 HD
HETATM   10  C   UNL     1      17.859  44.909  46.513  1.00  0.00     0.056 A 
HETATM   11  C   UNL     1      17.973  46.286  46.820  1.00  0.00     0.065 A 
BRANCH  10  12
HETATM   12  C   UNL     1      17.108  44.283  45.387  1.00  0.00     0.056 C 
HETATM   13  C   UNL     1      17.967  44.137  44.139  1.00  0.00     0.011 C 
ENDBRANCH  10  12
ENDBRANCH   3   6
ENDBRANCH   1   2
BRANCH   1  14
HETATM   14  C   UNL     1      22.212  49.436  48.845  1.00  0.00    -0.031 A 
HETATM   15  C   UNL     1      22.617  50.484  48.006  1.00  0.00     0.012 A 
HETATM   16  C   UNL     1      23.970  50.674  47.712  1.00  0.00     0.037 A 
HETATM   17  C   UNL     1      24.943  49.823  48.242  1.00  0.00     0.068 A 
HETATM   18  C   UNL     1      24.547  48.759  49.051  1.00  0.00     0.037 A 
HETATM   19  C   UNL     1      23.193  48.565  49.346  1.00  0.00     0.012 A 
BRANCH  17  20
HETATM   20  O   UNL     1      26.228  50.132  47.892  1.00  0.00    -0.356 OA
HETATM   21  C   UNL     1      27.258  49.631  48.736  1.00  0.00     0.210 C 
ENDBRANCH  17  20
ENDBRANCH   1  14
BRANCH   1  22
HETATM   22  C   UNL     1      19.861  50.457  48.997  1.00  0.00    -0.031 A 
HETATM   23  C   UNL     1      19.447  50.861  47.715  1.00  0.00     0.009 A 
HETATM   24  C   UNL     1      18.614  51.971  47.541  1.00  0.00     0.001 A 
HETATM   25  C   UNL     1      18.163  52.685  48.646  1.00  0.00     0.000 A 
HETATM   26  C   UNL     1      18.531  52.283  49.927  1.00  0.00     0.001 A 
HETATM   27  C   UNL     1      19.364  51.175  50.102  1.00  0.00     0.009 A 
ENDBRANCH   1  22
TORSDOF 6
ENDMDL
MODEL 9
REMARK VINA RESULT:      -7.9      7.866     13.137
REMARK  6 active torsions:
REMARK  status: ('A' for Active; 'I' for Inactive)
REMARK    1  A    between atoms: C_2  and  C_3 
REMARK    2  A    between atoms: C_7  and  C_8 
REMARK       I    between atoms: C_8  and  N_9 
REMARK    3  A    between atoms: N_9  and  C_10 
REMARK    4  A    between atoms: C_10  and  C_11 
REMARK    5  A    between atoms: C_10  and  C_19 
REMARK    6  A    between atoms: C_14  and  O_15 
ROOT
HETATM    1  C   UNL     1      18.702  49.529  47.462  1.00  0.00     0.151 C 
ENDROOT
BRANCH   1   2
HETATM    2  N   UNL     1      20.111  49.658  47.785  1.00  0.00    -0.343 N 
HETATM    3  C   UNL     1      20.781  48.724  48.529  1.00  0.00     0.270 C 
HETATM    4  O   UNL     1      20.238  47.735  49.013  1.00  0.00    -0.266 OA
HETATM    5  H   UNL     1      20.547  50.550  47.608  1.00  0.00     0.163 HD
BRANCH   3   6
HETATM    6  C   UNL     1      22.189  48.973  48.683  1.00  0.00     0.119 A 
HETATM    7  N   UNL     1      22.920  48.392  49.684  1.00  0.00    -0.273 N 
HETATM    8  N   UNL     1      24.232  48.676  49.643  1.00  0.00    -0.179 NA
HETATM    9  H   UNL     1      22.571  47.774  50.411  1.00  0.00     0.189 HD
HETATM   10  C   UNL     1      24.358  49.465  48.571  1.00  0.00     0.056 A 
HETATM   11  C   UNL     1      23.108  49.702  47.951  1.00  0.00     0.065 A 
BRANCH  10  12
HETATM   12  C   UNL     1      25.699  49.955  48.142  1.00  0.00     0.056 C 
HETATM   13  C   UNL     1      26.830  49.203  48.828  1.00  0.00     0.011 C 
ENDBRANCH  10  12
ENDBRANCH   3   6
ENDBRANCH   1   2
BRANCH   1  14
HETATM   14  C   UNL     1      17.917  50.575  48.250  1.00  0.00    -0.031 A 
HETATM   15  C   UNL     1      16.514  50.595  48.256  1.00  0.00     0.012 A 
HETATM   16  C   UNL     1      15.823  51.545  49.013  1.00  0.00     0.037 A 
HETATM   17  C   UNL     1      16.512  52.492  49.773  1.00  0.00     0.068 A 
HETATM   18  C   UNL     1      17.906  52.500  49.748  1.00  0.00     0.037 A 
HETATM   19  C   UNL     1      18.602  51.552  48.989  1.00  0.00     0.012 A 
BRANCH  17  20
HETATM   20  O   UNL     1      15.716  53.349  50.482  1.00  0.00    -0.356 OA
HETATM   21  C   UNL     1      14.319  53.081  50.469  1.00  0.00     0.210 C 
ENDBRANCH  17  20
ENDBRANCH   1  14
BRANCH   1  22
HETATM   22  C   UNL     1      18.455  49.569  45.949  1.00  0.00    -0.031 A 
HETATM   23  C   UNL     1      18.609  50.750  45.200  1.00  0.00     0.009 A 
HETATM   24  C   UNL     1      18.409  50.758  43.816  1.00  0.00     0.001 A 
HETATM   25  C   UNL     1      18.072  49.583  43.152  1.00  0.00     0.000 A 
HETATM   26  C   UNL     1      17.947  48.395  43.867  1.00  0.00     0.001 A 
HETATM   27  C   UNL     1      18.146  48.386  45.250  1.00  0.00     0.009 A 
ENDBRANCH   1  22
TORSDOF 6
ENDMDL
MODEL 10
REMARK VINA RESULT:      -7.9      3.023      5.690
REMARK  6 active torsions:
REMARK  status: ('A' for Active; 'I' for Inactive)
REMARK    1  A    between atoms: C_2  and  C_3 
REMARK    2  A    between atoms: C_7  and  C_8 
REMARK       I    between atoms: C_8  and  N_9 
REMARK    3  A    between atoms: N_9  and  C_10 
REMARK    4  A    between atoms: C_10  and  C_11 
REMARK    5  A    between atoms: C_10  and  C_19 
REMARK    6  A    between atoms: C_14  and  O_15 
ROOT
HETATM    1  C   UNL     1      26.538  45.491  50.968  1.00  0.00     0.151 C 
ENDROOT
BRANCH   1   2
HETATM    2  N   UNL     1      25.551  46.493  50.609  1.00  0.00    -0.343 N 
HETATM    3  C   UNL     1      25.803  47.472  49.684  1.00  0.00     0.270 C 
HETATM    4  O   UNL     1      26.887  47.603  49.123  1.00  0.00    -0.266 OA
HETATM    5  H   UNL     1      24.734  46.570  51.194  1.00  0.00     0.163 HD
BRANCH   3   6
HETATM    6  C   UNL     1      24.685  48.329  49.393  1.00  0.00     0.119 A 
HETATM    7  N   UNL     1      23.424  48.047  49.845  1.00  0.00    -0.273 N 
HETATM    8  N   UNL     1      22.511  48.984  49.543  1.00  0.00    -0.179 NA
HETATM    9  H   UNL     1      23.138  47.235  50.383  1.00  0.00     0.189 HD
HETATM   10  C   UNL     1      23.207  49.911  48.878  1.00  0.00     0.056 A 
HETATM   11  C   UNL     1      24.564  49.538  48.735  1.00  0.00     0.065 A 
BRANCH  10  12
HETATM   12  C   UNL     1      22.550  51.168  48.414  1.00  0.00     0.056 C 
HETATM   13  C   UNL     1      21.056  51.173  48.705  1.00  0.00     0.011 C 
ENDBRANCH  10  12
ENDBRANCH   3   6
ENDBRANCH   1   2
BRANCH   1  14
HETATM   14  C   UNL     1      26.887  45.650  52.446  1.00  0.00    -0.031 A 
HETATM   15  C   UNL     1      27.637  44.686  53.134  1.00  0.00     0.012 A 
HETATM   16  C   UNL     1      27.970  44.874  54.479  1.00  0.00     0.037 A 
HETATM   17  C   UNL     1      27.560  46.021  55.162  1.00  0.00     0.068 A 
HETATM   18  C   UNL     1      26.788  46.971  54.494  1.00  0.00     0.037 A 
HETATM   19  C   UNL     1      26.451  46.784  53.149  1.00  0.00     0.012 A 
BRANCH  17  20
HETATM   20  O   UNL     1      27.970  46.090  56.465  1.00  0.00    -0.356 OA
HETATM   21  C   UNL     1      29.362  45.927  56.707  1.00  0.00     0.210 C 
ENDBRANCH  17  20
ENDBRANCH   1  14
BRANCH   1  22
HETATM   22  C   UNL     1      26.087  44.078  50.580  1.00  0.00    -0.031 A 
HETATM   23  C   UNL     1      26.950  43.169  49.942  1.00  0.00     0.009 A 
HETATM   24  C   UNL     1      26.529  41.874  49.624  1.00  0.00     0.001 A 
HETATM   25  C   UNL     1      25.244  41.457  49.956  1.00  0.00     0.000 A 
HETATM   26  C   UNL     1      24.382  42.327  50.618  1.00  0.00     0.001 A 
HETATM   27  C   UNL     1      24.803  43.622  50.935  1.00  0.00     0.009 A 
ENDBRANCH   1  22
TORSDOF 6
ENDMDL
