MODEL 1
REMARK VINA RESULT:      -9.1      0.000      0.000
REMARK  4 active torsions:
REMARK  status: ('A' for Active; 'I' for Inactive)
REMARK    1  A    between atoms: C_2  and  C_3 
REMARK       I    between atoms: N_10  and  C_11 
REMARK    2  A    between atoms: C_11  and  C_12 
REMARK    3  A    between atoms: C_16  and  C_17 
REMARK    4  A    between atoms: C_18  and  O_19 
ROOT
HETATM    1  C   UNL     1      25.686  45.747  49.983  1.00  0.00     0.068 A 
HETATM    2  N   UNL     1      24.482  45.925  49.416  1.00  0.00    -0.178 NA
HETATM    3  N   UNL     1      24.057  44.682  49.125  1.00  0.00    -0.281 N 
HETATM    4  H   UNL     1      23.142  44.573  48.700  1.00  0.00     0.189 HD
HETATM    5  C   UNL     1      24.943  43.725  49.502  1.00  0.00     0.039 A 
HETATM    6  C   UNL     1      26.033  44.374  50.030  1.00  0.00     0.011 A 
HETATM    7  C   UNL     1      27.229  43.677  50.563  1.00  0.00     0.169 C 
HETATM    8  N   UNL     1      26.904  42.259  50.834  1.00  0.00    -0.342 N 
HETATM    9  C   UNL     1      27.762  41.448  51.593  1.00  0.00     0.272 C 
HETATM   10  O   UNL     1      27.831  40.235  51.397  1.00  0.00    -0.266 OA
HETATM   11  C   UNL     1      26.109  41.571  49.787  1.00  0.00     0.132 C 
HETATM   12  C   UNL     1      24.763  42.258  49.458  1.00  0.00     0.079 C 
ENDROOT
BRANCH   9  13
HETATM   13  C   UNL     1      28.618  42.053  52.585  1.00  0.00     0.120 C 
HETATM   14  N   UNL     1      29.972  42.122  52.408  1.00  0.00    -0.272 N 
HETATM   15  H   UNL     1      30.501  41.749  51.624  1.00  0.00     0.189 HD
HETATM   16  N   UNL     1      30.615  42.823  53.357  1.00  0.00    -0.174 NA
HETATM   17  C   UNL     1      29.655  43.147  54.243  1.00  0.00     0.092 C 
HETATM   18  C   UNL     1      28.414  42.582  53.842  1.00  0.00     0.071 C 
BRANCH  17  19
HETATM   19  C   UNL     1      29.944  43.993  55.409  1.00  0.00     0.028 A 
HETATM   20  C   UNL     1      29.286  45.219  55.619  1.00  0.00     0.078 A 
HETATM   21  C   UNL     1      29.538  45.995  56.751  1.00  0.00     0.037 A 
HETATM   22  C   UNL     1      30.449  45.552  57.707  1.00  0.00     0.003 A 
HETATM   23  C   UNL     1      31.109  44.339  57.526  1.00  0.00     0.001 A 
HETATM   24  C   UNL     1      30.861  43.567  56.386  1.00  0.00     0.017 A 
BRANCH  20  25
HETATM   25  O   UNL     1      28.355  45.719  54.744  1.00  0.00    -0.360 OA
HETATM   26  H   UNL     1      28.168  46.640  55.040  1.00  0.00     0.217 HD
ENDBRANCH  20  25
ENDBRANCH  17  19
ENDBRANCH   9  13
BRANCH   1  27
HETATM   27  C   UNL     1      26.465  46.909  50.540  1.00  0.00     0.032 C 
HETATM   28  C   UNL     1      26.088  47.164  52.002  1.00  0.00     0.016 C 
HETATM   29  C   UNL     1      26.305  48.186  49.713  1.00  0.00     0.016 C 
ENDBRANCH   1  27
TORSDOF 4
ENDMDL
MODEL 2
REMARK VINA RESULT:      -9.0      2.852      7.387
REMARK  4 active torsions:
REMARK  status: ('A' for Active; 'I' for Inactive)
REMARK    1  A    between atoms: C_2  and  C_3 
REMARK       I    between atoms: N_10  and  C_11 
REMARK    2  A    between atoms: C_11  and  C_12 
REMARK    3  A    between atoms: C_16  and  C_17 
REMARK    4  A    between atoms: C_18  and  O_19 
ROOT
HETATM    1  C   UNL     1      28.789  45.010  54.778  1.00  0.00     0.068 A 
HETATM    2  N   UNL     1      29.718  44.313  55.451  1.00  0.00    -0.178 NA
HETATM    3  N   UNL     1      29.906  43.200  54.719  1.00  0.00    -0.281 N 
HETATM    4  H   UNL     1      30.593  42.525  55.036  1.00  0.00     0.189 HD
HETATM    5  C   UNL     1      29.138  43.177  53.599  1.00  0.00     0.039 A 
HETATM    6  C   UNL     1      28.370  44.316  53.616  1.00  0.00     0.011 A 
HETATM    7  C   UNL     1      27.393  44.666  52.557  1.00  0.00     0.169 C 
HETATM    8  N   UNL     1      27.675  43.882  51.334  1.00  0.00    -0.342 N 
HETATM    9  C   UNL     1      27.083  44.212  50.105  1.00  0.00     0.272 C 
HETATM   10  O   UNL     1      26.848  43.350  49.259  1.00  0.00    -0.266 OA
HETATM   11  C   UNL     1      27.978  42.445  51.549  1.00  0.00     0.132 C 
HETATM   12  C   UNL     1      29.168  42.185  52.503  1.00  0.00     0.079 C 
ENDROOT
BRANCH   9  13
HETATM   13  C   UNL     1      26.696  45.578  49.848  1.00  0.00     0.120 C 
HETATM   14  N   UNL     1      27.618  46.521  49.487  1.00  0.00    -0.272 N 
HETATM   15  H   UNL     1      28.622  46.385  49.399  1.00  0.00     0.189 HD
HETATM   16  N   UNL     1      27.088  47.712  49.161  1.00  0.00    -0.174 NA
HETATM   17  C   UNL     1      25.772  47.572  49.408  1.00  0.00     0.092 C 
HETATM   18  C   UNL     1      25.513  46.281  49.945  1.00  0.00     0.071 C 
BRANCH  17  19
HETATM   19  C   UNL     1      24.817  48.646  49.103  1.00  0.00     0.028 A 
HETATM   20  C   UNL     1      25.144  49.709  48.241  1.00  0.00     0.078 A 
HETATM   21  C   UNL     1      24.215  50.702  47.926  1.00  0.00     0.037 A 
HETATM   22  C   UNL     1      22.931  50.645  48.462  1.00  0.00     0.003 A 
HETATM   23  C   UNL     1      22.581  49.602  49.315  1.00  0.00     0.001 A 
HETATM   24  C   UNL     1      23.516  48.612  49.635  1.00  0.00     0.017 A 
BRANCH  20  25
HETATM   25  O   UNL     1      26.375  49.828  47.647  1.00  0.00    -0.360 OA
HETATM   26  H   UNL     1      26.454  49.067  47.027  1.00  0.00     0.217 HD
ENDBRANCH  20  25
ENDBRANCH  17  19
ENDBRANCH   9  13
BRANCH   1  27
HETATM   27  C   UNL     1      28.362  46.381  55.231  1.00  0.00     0.032 C 
HETATM   28  C   UNL     1      28.445  46.498  56.756  1.00  0.00     0.016 C 
HETATM   29  C   UNL     1      26.966  46.766  54.738  1.00  0.00     0.016 C 
ENDBRANCH   1  27
TORSDOF 4
ENDMDL
MODEL 3
REMARK VINA RESULT:      -9.0      2.366      7.139
REMARK  4 active torsions:
REMARK  status: ('A' for Active; 'I' for Inactive)
REMARK    1  A    between atoms: C_2  and  C_3 
REMARK       I    between atoms: N_10  and  C_11 
REMARK    2  A    between atoms: C_11  and  C_12 
REMARK    3  A    between atoms: C_16  and  C_17 
REMARK    4  A    between atoms: C_18  and  O_19 
ROOT
HETATM    1  C   UNL     1      28.986  45.045  55.366  1.00  0.00     0.068 A 
HETATM    2  N   UNL     1      30.141  44.763  55.990  1.00  0.00    -0.178 NA
HETATM    3  N   UNL     1      30.656  43.728  55.302  1.00  0.00    -0.281 N 
HETATM    4  H   UNL     1      31.555  43.356  55.592  1.00  0.00     0.189 HD
HETATM    5  C   UNL     1      29.874  43.355  54.257  1.00  0.00     0.039 A 
HETATM    6  C   UNL     1      28.761  44.160  54.283  1.00  0.00     0.011 A 
HETATM    7  C   UNL     1      27.657  44.069  53.297  1.00  0.00     0.169 C 
HETATM    8  N   UNL     1      28.114  43.335  52.096  1.00  0.00    -0.342 N 
HETATM    9  C   UNL     1      27.366  43.345  50.909  1.00  0.00     0.272 C 
HETATM   10  O   UNL     1      27.392  42.391  50.132  1.00  0.00    -0.266 OA
HETATM   11  C   UNL     1      28.911  42.112  52.358  1.00  0.00     0.132 C 
HETATM   12  C   UNL     1      30.177  42.350  53.215  1.00  0.00     0.079 C 
ENDROOT
BRANCH   9  13
HETATM   13  C   UNL     1      26.513  44.471  50.616  1.00  0.00     0.120 C 
HETATM   14  N   UNL     1      25.336  44.663  51.286  1.00  0.00    -0.272 N 
HETATM   15  H   UNL     1      24.936  44.055  51.996  1.00  0.00     0.189 HD
HETATM   16  N   UNL     1      24.717  45.818  50.990  1.00  0.00    -0.174 NA
HETATM   17  C   UNL     1      25.471  46.363  50.018  1.00  0.00     0.092 C 
HETATM   18  C   UNL     1      26.541  45.488  49.685  1.00  0.00     0.071 C 
BRANCH  17  19
HETATM   19  C   UNL     1      25.167  47.691  49.466  1.00  0.00     0.028 A 
HETATM   20  C   UNL     1      23.845  48.149  49.317  1.00  0.00     0.078 A 
HETATM   21  C   UNL     1      23.569  49.427  48.830  1.00  0.00     0.037 A 
HETATM   22  C   UNL     1      24.616  50.282  48.492  1.00  0.00     0.003 A 
HETATM   23  C   UNL     1      25.934  49.854  48.634  1.00  0.00     0.001 A 
HETATM   24  C   UNL     1      26.208  48.569  49.114  1.00  0.00     0.017 A 
BRANCH  20  25
HETATM   25  O   UNL     1      22.756  47.386  49.651  1.00  0.00    -0.360 OA
HETATM   26  H   UNL     1      22.379  47.061  48.801  1.00  0.00     0.217 HD
ENDBRANCH  20  25
ENDBRANCH  17  19
ENDBRANCH   9  13
BRANCH   1  27
HETATM   27  C   UNL     1      28.140  46.217  55.784  1.00  0.00     0.032 C 
HETATM   28  C   UNL     1      28.356  47.405  54.842  1.00  0.00     0.016 C 
HETATM   29  C   UNL     1      28.372  46.635  57.236  1.00  0.00     0.016 C 
ENDBRANCH   1  27
TORSDOF 4
ENDMDL
MODEL 4
REMARK VINA RESULT:      -8.8      2.820      7.263
REMARK  4 active torsions:
REMARK  status: ('A' for Active; 'I' for Inactive)
REMARK    1  A    between atoms: C_2  and  C_3 
REMARK       I    between atoms: N_10  and  C_11 
REMARK    2  A    between atoms: C_11  and  C_12 
REMARK    3  A    between atoms: C_16  and  C_17 
REMARK    4  A    between atoms: C_18  and  O_19 
ROOT
HETATM    1  C   UNL     1      29.666  45.085  55.787  1.00  0.00     0.068 A 
HETATM    2  N   UNL     1      29.498  45.851  56.876  1.00  0.00    -0.178 NA
HETATM    3  N   UNL     1      28.387  46.565  56.622  1.00  0.00    -0.281 N 
HETATM    4  H   UNL     1      28.056  47.209  57.333  1.00  0.00     0.189 HD
HETATM    5  C   UNL     1      27.838  46.267  55.417  1.00  0.00     0.039 A 
HETATM    6  C   UNL     1      28.657  45.336  54.824  1.00  0.00     0.011 A 
HETATM    7  C   UNL     1      28.401  44.747  53.487  1.00  0.00     0.169 C 
HETATM    8  N   UNL     1      26.988  44.962  53.105  1.00  0.00    -0.342 N 
HETATM    9  C   UNL     1      26.414  44.274  52.026  1.00  0.00     0.272 C 
HETATM   10  O   UNL     1      25.505  44.773  51.363  1.00  0.00    -0.266 OA
HETATM   11  C   UNL     1      26.448  46.316  53.381  1.00  0.00     0.132 C 
HETATM   12  C   UNL     1      26.558  46.754  54.860  1.00  0.00     0.079 C 
ENDROOT
BRANCH   9  13
HETATM   13  C   UNL     1      26.930  42.979  51.653  1.00  0.00     0.120 C 
HETATM   14  N   UNL     1      26.893  41.923  52.521  1.00  0.00    -0.272 N 
HETATM   15  H   UNL     1      26.552  41.937  53.478  1.00  0.00     0.189 HD
HETATM   16  N   UNL     1      27.295  40.758  51.986  1.00  0.00    -0.174 NA
HETATM   17  C   UNL     1      27.701  41.081  50.744  1.00  0.00     0.092 C 
HETATM   18  C   UNL     1      27.588  42.484  50.546  1.00  0.00     0.071 C 
BRANCH  17  19
HETATM   19  C   UNL     1      28.150  40.054  49.793  1.00  0.00     0.028 A 
HETATM   20  C   UNL     1      29.016  39.014  50.177  1.00  0.00     0.078 A 
HETATM   21  C   UNL     1      29.404  38.021  49.277  1.00  0.00     0.037 A 
HETATM   22  C   UNL     1      28.920  38.042  47.971  1.00  0.00     0.003 A 
HETATM   23  C   UNL     1      28.058  39.058  47.567  1.00  0.00     0.001 A 
HETATM   24  C   UNL     1      27.677  40.057  48.469  1.00  0.00     0.017 A 
BRANCH  20  25
HETATM   25  O   UNL     1      29.518  38.900  51.449  1.00  0.00    -0.360 OA
HETATM   26  H   UNL     1      28.813  38.462  51.982  1.00  0.00     0.217 HD
ENDBRANCH  20  25
ENDBRANCH  17  19
ENDBRANCH   9  13
BRANCH   1  27
HETATM   27  C   UNL     1      30.767  44.061  55.715  1.00  0.00     0.032 C 
HETATM   28  C   UNL     1      30.268  42.772  55.056  1.00  0.00     0.016 C 
HETATM   29  C   UNL     1      31.393  43.760  57.078  1.00  0.00     0.016 C 
ENDBRANCH   1  27
TORSDOF 4
ENDMDL
MODEL 5
REMARK VINA RESULT:      -8.5      2.893      7.214
REMARK  4 active torsions:
REMARK  status: ('A' for Active; 'I' for Inactive)
REMARK    1  A    between atoms: C_2  and  C_3 
REMARK       I    between atoms: N_10  and  C_11 
REMARK    2  A    between atoms: C_11  and  C_12 
REMARK    3  A    between atoms: C_16  and  C_17 
REMARK    4  A    between atoms: C_18  and  O_19 
ROOT
HETATM    1  C   UNL     1      27.659  46.185  55.167  1.00  0.00     0.068 A 
HETATM    2  N   UNL     1      28.791  46.557  55.786  1.00  0.00    -0.178 NA
HETATM    3  N   UNL     1      29.647  45.542  55.567  1.00  0.00    -0.281 N 
HETATM    4  H   UNL     1      30.589  45.619  55.935  1.00  0.00     0.189 HD
HETATM    5  C   UNL     1      29.100  44.550  54.818  1.00  0.00     0.039 A 
HETATM    6  C   UNL     1      27.798  44.909  54.568  1.00  0.00     0.011 A 
HETATM    7  C   UNL     1      26.855  44.085  53.773  1.00  0.00     0.169 C 
HETATM    8  N   UNL     1      27.607  43.099  52.966  1.00  0.00    -0.342 N 
HETATM    9  C   UNL     1      26.989  42.387  51.927  1.00  0.00     0.272 C 
HETATM   10  O   UNL     1      27.363  41.255  51.620  1.00  0.00    -0.266 OA
HETATM   11  C   UNL     1      28.712  42.403  53.670  1.00  0.00     0.132 C 
HETATM   12  C   UNL     1      29.773  43.350  54.277  1.00  0.00     0.079 C 
ENDROOT
BRANCH   9  13
HETATM   13  C   UNL     1      25.862  42.969  51.238  1.00  0.00     0.120 C 
HETATM   14  N   UNL     1      24.613  42.419  51.329  1.00  0.00    -0.272 N 
HETATM   15  H   UNL     1      24.359  41.573  51.830  1.00  0.00     0.189 HD
HETATM   16  N   UNL     1      23.650  43.145  50.736  1.00  0.00    -0.174 NA
HETATM   17  C   UNL     1      24.307  44.164  50.153  1.00  0.00     0.092 C 
HETATM   18  C   UNL     1      25.707  44.019  50.357  1.00  0.00     0.071 C 
BRANCH  17  19
HETATM   19  C   UNL     1      23.589  45.239  49.455  1.00  0.00     0.028 A 
HETATM   20  C   UNL     1      22.432  44.989  48.694  1.00  0.00     0.078 A 
HETATM   21  C   UNL     1      21.735  46.023  48.070  1.00  0.00     0.037 A 
HETATM   22  C   UNL     1      22.176  47.338  48.204  1.00  0.00     0.003 A 
HETATM   23  C   UNL     1      23.316  47.613  48.956  1.00  0.00     0.001 A 
HETATM   24  C   UNL     1      24.018  46.573  49.574  1.00  0.00     0.017 A 
BRANCH  20  25
HETATM   25  O   UNL     1      21.912  43.730  48.532  1.00  0.00    -0.360 OA
HETATM   26  H   UNL     1      21.521  43.711  47.627  1.00  0.00     0.217 HD
ENDBRANCH  20  25
ENDBRANCH  17  19
ENDBRANCH   9  13
BRANCH   1  27
HETATM   27  C   UNL     1      26.468  47.104  55.103  1.00  0.00     0.032 C 
HETATM   28  C   UNL     1      26.100  47.414  53.649  1.00  0.00     0.016 C 
HETATM   29  C   UNL     1      26.668  48.397  55.894  1.00  0.00     0.016 C 
ENDBRANCH   1  27
TORSDOF 4
ENDMDL
MODEL 6
REMARK VINA RESULT:      -8.5      2.719      7.593
REMARK  4 active torsions:
REMARK  status: ('A' for Active; 'I' for Inactive)
REMARK    1  A    between atoms: C_2  and  C_3 
REMARK       I    between atoms: N_10  and  C_11 
REMARK    2  A    between atoms: C_11  and  C_12 
REMARK    3  A    between atoms: C_16  and  C_17 
REMARK    4  A    between atoms: C_18  and  O_19 
ROOT
HETATM    1  C   UNL     1      27.964  41.328  50.497  1.00  0.00     0.068 A 
HETATM    2  N   UNL     1      28.262  40.136  51.038  1.00  0.00    -0.178 NA
HETATM    3  N   UNL     1      28.398  40.384  52.353  1.00  0.00    -0.281 N 
HETATM    4  H   UNL     1      28.609  39.607  52.971  1.00  0.00     0.189 HD
HETATM    5  C   UNL     1      28.182  41.688  52.664  1.00  0.00     0.039 A 
HETATM    6  C   UNL     1      27.933  42.345  51.483  1.00  0.00     0.011 A 
HETATM    7  C   UNL     1      27.643  43.797  51.393  1.00  0.00     0.169 C 
HETATM    8  N   UNL     1      27.245  44.313  52.721  1.00  0.00    -0.342 N 
HETATM    9  C   UNL     1      26.657  45.579  52.863  1.00  0.00     0.272 C 
HETATM   10  O   UNL     1      26.809  46.240  53.890  1.00  0.00    -0.266 OA
HETATM   11  C   UNL     1      28.063  43.838  53.865  1.00  0.00     0.132 C 
HETATM   12  C   UNL     1      28.120  42.299  54.008  1.00  0.00     0.079 C 
ENDROOT
BRANCH   9  13
HETATM   13  C   UNL     1      25.902  46.138  51.768  1.00  0.00     0.120 C 
HETATM   14  N   UNL     1      24.855  45.461  51.208  1.00  0.00    -0.272 N 
HETATM   15  H   UNL     1      24.531  44.530  51.459  1.00  0.00     0.189 HD
HETATM   16  N   UNL     1      24.176  46.163  50.285  1.00  0.00    -0.174 NA
HETATM   17  C   UNL     1      24.863  47.315  50.168  1.00  0.00     0.092 C 
HETATM   18  C   UNL     1      26.013  47.281  51.004  1.00  0.00     0.071 C 
BRANCH  17  19
HETATM   19  C   UNL     1      24.394  48.402  49.298  1.00  0.00     0.028 A 
HETATM   20  C   UNL     1      23.026  48.615  49.047  1.00  0.00     0.078 A 
HETATM   21  C   UNL     1      22.589  49.675  48.253  1.00  0.00     0.037 A 
HETATM   22  C   UNL     1      23.516  50.555  47.699  1.00  0.00     0.003 A 
HETATM   23  C   UNL     1      24.876  50.369  47.936  1.00  0.00     0.001 A 
HETATM   24  C   UNL     1      25.312  49.300  48.726  1.00  0.00     0.017 A 
BRANCH  20  25
HETATM   25  O   UNL     1      22.044  47.815  49.574  1.00  0.00    -0.360 OA
HETATM   26  H   UNL     1      21.610  47.374  48.806  1.00  0.00     0.217 HD
ENDBRANCH  20  25
ENDBRANCH  17  19
ENDBRANCH   9  13
BRANCH   1  27
HETATM   27  C   UNL     1      27.643  41.461  49.032  1.00  0.00     0.032 C 
HETATM   28  C   UNL     1      26.133  41.359  48.796  1.00  0.00     0.016 C 
HETATM   29  C   UNL     1      28.391  40.450  48.162  1.00  0.00     0.016 C 
ENDBRANCH   1  27
TORSDOF 4
ENDMDL
MODEL 7
REMARK VINA RESULT:      -8.5      1.825      2.120
REMARK  4 active torsions:
REMARK  status: ('A' for Active; 'I' for Inactive)
REMARK    1  A    between atoms: C_2  and  C_3 
REMARK       I    between atoms: N_10  and  C_11 
REMARK    2  A    between atoms: C_11  and  C_12 
REMARK    3  A    between atoms: C_16  and  C_17 
REMARK    4  A    between atoms: C_18  and  O_19 
ROOT
HETATM    1  C   UNL     1      24.549  43.611  48.761  1.00  0.00     0.068 A 
HETATM    2  N   UNL     1      23.612  43.223  47.881  1.00  0.00    -0.178 NA
HETATM    3  N   UNL     1      23.984  41.984  47.513  1.00  0.00    -0.281 N 
HETATM    4  H   UNL     1      23.398  41.481  46.854  1.00  0.00     0.189 HD
HETATM    5  C   UNL     1      25.114  41.569  48.140  1.00  0.00     0.039 A 
HETATM    6  C   UNL     1      25.536  42.609  48.933  1.00  0.00     0.011 A 
HETATM    7  C   UNL     1      26.745  42.553  49.790  1.00  0.00     0.169 C 
HETATM    8  N   UNL     1      27.152  41.145  49.994  1.00  0.00    -0.342 N 
HETATM    9  C   UNL     1      28.089  40.794  50.978  1.00  0.00     0.272 C 
HETATM   10  O   UNL     1      28.825  39.818  50.836  1.00  0.00    -0.266 OA
HETATM   11  C   UNL     1      27.119  40.287  48.784  1.00  0.00     0.132 C 
HETATM   12  C   UNL     1      25.742  40.232  48.082  1.00  0.00     0.079 C 
ENDROOT
BRANCH   9  13
HETATM   13  C   UNL     1      28.228  41.619  52.153  1.00  0.00     0.120 C 
HETATM   14  N   UNL     1      27.253  41.660  53.111  1.00  0.00    -0.272 N 
HETATM   15  H   UNL     1      26.360  41.174  53.089  1.00  0.00     0.189 HD
HETATM   16  N   UNL     1      27.582  42.375  54.200  1.00  0.00    -0.174 NA
HETATM   17  C   UNL     1      28.786  42.900  53.905  1.00  0.00     0.092 C 
HETATM   18  C   UNL     1      29.165  42.534  52.585  1.00  0.00     0.071 C 
BRANCH  17  19
HETATM   19  C   UNL     1      29.535  43.698  54.886  1.00  0.00     0.028 A 
HETATM   20  C   UNL     1      29.142  45.003  55.238  1.00  0.00     0.078 A 
HETATM   21  C   UNL     1      29.836  45.736  56.201  1.00  0.00     0.037 A 
HETATM   22  C   UNL     1      30.936  45.172  56.843  1.00  0.00     0.003 A 
HETATM   23  C   UNL     1      31.343  43.881  56.516  1.00  0.00     0.001 A 
HETATM   24  C   UNL     1      30.650  43.151  55.544  1.00  0.00     0.017 A 
BRANCH  20  25
HETATM   25  O   UNL     1      28.055  45.625  54.677  1.00  0.00    -0.360 OA
HETATM   26  H   UNL     1      28.064  46.550  55.018  1.00  0.00     0.217 HD
ENDBRANCH  20  25
ENDBRANCH  17  19
ENDBRANCH   9  13
BRANCH   1  27
HETATM   27  C   UNL     1      24.443  44.927  49.484  1.00  0.00     0.032 C 
HETATM   28  C   UNL     1      24.219  44.707  50.983  1.00  0.00     0.016 C 
HETATM   29  C   UNL     1      23.359  45.839  48.908  1.00  0.00     0.016 C 
ENDBRANCH   1  27
TORSDOF 4
ENDMDL
MODEL 8
REMARK VINA RESULT:      -8.0      2.769      6.766
REMARK  4 active torsions:
REMARK  status: ('A' for Active; 'I' for Inactive)
REMARK    1  A    between atoms: C_2  and  C_3 
REMARK       I    between atoms: N_10  and  C_11 
REMARK    2  A    between atoms: C_11  and  C_12 
REMARK    3  A    between atoms: C_16  and  C_17 
REMARK    4  A    between atoms: C_18  and  O_19 
ROOT
HETATM    1  C   UNL     1      25.430  46.285  51.858  1.00  0.00     0.068 A 
HETATM    2  N   UNL     1      25.707  47.485  52.395  1.00  0.00    -0.178 NA
HETATM    3  N   UNL     1      26.510  47.213  53.439  1.00  0.00    -0.281 N 
HETATM    4  H   UNL     1      26.864  47.988  53.989  1.00  0.00     0.189 HD
HETATM    5  C   UNL     1      26.761  45.885  53.573  1.00  0.00     0.039 A 
HETATM    6  C   UNL     1      26.050  45.242  52.589  1.00  0.00     0.011 A 
HETATM    7  C   UNL     1      26.059  43.772  52.393  1.00  0.00     0.169 C 
HETATM    8  N   UNL     1      27.224  43.180  53.087  1.00  0.00    -0.342 N 
HETATM    9  C   UNL     1      27.624  41.858  52.838  1.00  0.00     0.272 C 
HETATM   10  O   UNL     1      28.176  41.185  53.709  1.00  0.00    -0.266 OA
HETATM   11  C   UNL     1      27.490  43.699  54.451  1.00  0.00     0.132 C 
HETATM   12  C   UNL     1      27.691  45.232  54.518  1.00  0.00     0.079 C 
ENDROOT
BRANCH   9  13
HETATM   13  C   UNL     1      27.340  41.259  51.557  1.00  0.00     0.120 C 
HETATM   14  N   UNL     1      26.468  40.211  51.442  1.00  0.00    -0.272 N 
HETATM   15  H   UNL     1      25.980  39.742  52.200  1.00  0.00     0.189 HD
HETATM   16  N   UNL     1      26.213  39.846  50.174  1.00  0.00    -0.174 NA
HETATM   17  C   UNL     1      27.022  40.625  49.431  1.00  0.00     0.092 C 
HETATM   18  C   UNL     1      27.820  41.441  50.277  1.00  0.00     0.071 C 
BRANCH  17  19
HETATM   19  C   UNL     1      26.987  40.584  47.963  1.00  0.00     0.028 A 
HETATM   20  C   UNL     1      25.805  40.299  47.255  1.00  0.00     0.078 A 
HETATM   21  C   UNL     1      25.774  40.304  45.860  1.00  0.00     0.037 A 
HETATM   22  C   UNL     1      26.928  40.605  45.141  1.00  0.00     0.003 A 
HETATM   23  C   UNL     1      28.110  40.895  45.818  1.00  0.00     0.001 A 
HETATM   24  C   UNL     1      28.141  40.882  47.217  1.00  0.00     0.017 A 
BRANCH  20  25
HETATM   25  O   UNL     1      24.617  40.019  47.881  1.00  0.00    -0.360 OA
HETATM   26  H   UNL     1      24.212  40.890  48.102  1.00  0.00     0.217 HD
ENDBRANCH  20  25
ENDBRANCH  17  19
ENDBRANCH   9  13
BRANCH   1  27
HETATM   27  C   UNL     1      24.618  46.165  50.596  1.00  0.00     0.032 C 
HETATM   28  C   UNL     1      25.384  45.371  49.533  1.00  0.00     0.016 C 
HETATM   29  C   UNL     1      24.174  47.518  50.039  1.00  0.00     0.016 C 
ENDBRANCH   1  27
TORSDOF 4
ENDMDL
MODEL 9
REMARK VINA RESULT:      -8.0      2.842      6.574
REMARK  4 active torsions:
REMARK  status: ('A' for Active; 'I' for Inactive)
REMARK    1  A    between atoms: C_2  and  C_3 
REMARK       I    between atoms: N_10  and  C_11 
REMARK    2  A    between atoms: C_11  and  C_12 
REMARK    3  A    between atoms: C_16  and  C_17 
REMARK    4  A    between atoms: C_18  and  O_19 
ROOT
HETATM    1  C   UNL     1      25.247  46.019  51.502  1.00  0.00     0.068 A 
HETATM    2  N   UNL     1      25.435  47.293  51.881  1.00  0.00    -0.178 NA
HETATM    3  N   UNL     1      26.258  47.214  52.942  1.00  0.00    -0.281 N 
HETATM    4  H   UNL     1      26.555  48.076  53.387  1.00  0.00     0.189 HD
HETATM    5  C   UNL     1      26.608  45.936  53.238  1.00  0.00     0.039 A 
HETATM    6  C   UNL     1      25.945  45.124  52.350  1.00  0.00     0.011 A 
HETATM    7  C   UNL     1      26.063  43.645  52.339  1.00  0.00     0.169 C 
HETATM    8  N   UNL     1      27.271  43.233  53.088  1.00  0.00    -0.342 N 
HETATM    9  C   UNL     1      27.769  41.923  53.001  1.00  0.00     0.272 C 
HETATM   10  O   UNL     1      28.371  41.408  53.942  1.00  0.00    -0.266 OA
HETATM   11  C   UNL     1      27.501  43.937  54.373  1.00  0.00     0.132 C 
HETATM   12  C   UNL     1      27.587  45.477  54.246  1.00  0.00     0.079 C 
ENDROOT
BRANCH   9  13
HETATM   13  C   UNL     1      27.526  41.149  51.808  1.00  0.00     0.120 C 
HETATM   14  N   UNL     1      26.363  40.449  51.640  1.00  0.00    -0.272 N 
HETATM   15  H   UNL     1      25.601  40.370  52.308  1.00  0.00     0.189 HD
HETATM   16  N   UNL     1      26.234  39.881  50.429  1.00  0.00    -0.174 NA
HETATM   17  C   UNL     1      27.400  40.142  49.810  1.00  0.00     0.092 C 
HETATM   18  C   UNL     1      28.273  40.838  50.691  1.00  0.00     0.071 C 
BRANCH  17  19
HETATM   19  C   UNL     1      27.631  39.748  48.413  1.00  0.00     0.028 A 
HETATM   20  C   UNL     1      27.601  40.683  47.362  1.00  0.00     0.078 A 
HETATM   21  C   UNL     1      27.862  40.305  46.045  1.00  0.00     0.037 A 
HETATM   22  C   UNL     1      28.170  38.979  45.752  1.00  0.00     0.003 A 
HETATM   23  C   UNL     1      28.210  38.034  46.775  1.00  0.00     0.001 A 
HETATM   24  C   UNL     1      27.941  38.414  48.094  1.00  0.00     0.017 A 
BRANCH  20  25
HETATM   25  O   UNL     1      27.334  42.014  47.564  1.00  0.00    -0.360 OA
HETATM   26  H   UNL     1      27.162  42.396  46.672  1.00  0.00     0.217 HD
ENDBRANCH  20  25
ENDBRANCH  17  19
ENDBRANCH   9  13
BRANCH   1  27
HETATM   27  C   UNL     1      24.443  45.681  50.274  1.00  0.00     0.032 C 
HETATM   28  C   UNL     1      25.293  44.897  49.270  1.00  0.00     0.016 C 
HETATM   29  C   UNL     1      23.823  46.910  49.609  1.00  0.00     0.016 C 
ENDBRANCH   1  27
TORSDOF 4
ENDMDL
MODEL 10
REMARK VINA RESULT:      -8.0      3.409      4.899
REMARK  4 active torsions:
REMARK  status: ('A' for Active; 'I' for Inactive)
REMARK    1  A    between atoms: C_2  and  C_3 
REMARK       I    between atoms: N_10  and  C_11 
REMARK    2  A    between atoms: C_11  and  C_12 
REMARK    3  A    between atoms: C_16  and  C_17 
REMARK    4  A    between atoms: C_18  and  O_19 
ROOT
HETATM    1  C   UNL     1      21.978  48.690  48.624  1.00  0.00     0.068 A 
HETATM    2  N   UNL     1      20.754  49.110  48.265  1.00  0.00    -0.178 NA
HETATM    3  N   UNL     1      20.066  47.980  48.020  1.00  0.00    -0.281 N 
HETATM    4  H   UNL     1      19.092  48.059  47.747  1.00  0.00     0.189 HD
HETATM    5  C   UNL     1      20.807  46.861  48.225  1.00  0.00     0.039 A 
HETATM    6  C   UNL     1      22.067  47.277  48.583  1.00  0.00     0.011 A 
HETATM    7  C   UNL     1      23.182  46.349  48.897  1.00  0.00     0.169 C 
HETATM    8  N   UNL     1      22.646  45.000  49.186  1.00  0.00    -0.342 N 
HETATM    9  C   UNL     1      23.448  44.011  49.775  1.00  0.00     0.272 C 
HETATM   10  O   UNL     1      23.259  42.817  49.544  1.00  0.00    -0.266 OA
HETATM   11  C   UNL     1      21.585  44.522  48.267  1.00  0.00     0.132 C 
HETATM   12  C   UNL     1      20.354  45.455  48.178  1.00  0.00     0.079 C 
ENDROOT
BRANCH   9  13
HETATM   13  C   UNL     1      24.544  44.400  50.628  1.00  0.00     0.120 C 
HETATM   14  N   UNL     1      25.836  44.371  50.181  1.00  0.00    -0.272 N 
HETATM   15  H   UNL     1      26.155  44.059  49.267  1.00  0.00     0.189 HD
HETATM   16  N   UNL     1      26.729  44.879  51.047  1.00  0.00    -0.174 NA
HETATM   17  C   UNL     1      26.005  45.167  52.145  1.00  0.00     0.092 C 
HETATM   18  C   UNL     1      24.653  44.773  51.951  1.00  0.00     0.071 C 
BRANCH  17  19
HETATM   19  C   UNL     1      26.612  45.822  53.312  1.00  0.00     0.028 A 
HETATM   20  C   UNL     1      27.722  45.272  53.980  1.00  0.00     0.078 A 
HETATM   21  C   UNL     1      28.316  45.922  55.061  1.00  0.00     0.037 A 
HETATM   22  C   UNL     1      27.815  47.149  55.493  1.00  0.00     0.003 A 
HETATM   23  C   UNL     1      26.720  47.717  54.846  1.00  0.00     0.001 A 
HETATM   24  C   UNL     1      26.122  47.058  53.767  1.00  0.00     0.017 A 
BRANCH  20  25
HETATM   25  O   UNL     1      28.296  44.083  53.605  1.00  0.00    -0.360 OA
HETATM   26  H   UNL     1      29.059  44.318  53.027  1.00  0.00     0.217 HD
ENDBRANCH  20  25
ENDBRANCH  17  19
ENDBRANCH   9  13
BRANCH   1  27
HETATM   27  C   UNL     1      23.036  49.663  49.072  1.00  0.00     0.032 C 
HETATM   28  C   UNL     1      22.399  50.959  49.582  1.00  0.00     0.016 C 
HETATM   29  C   UNL     1      24.070  49.964  47.986  1.00  0.00     0.016 C 
ENDBRANCH   1  27
TORSDOF 4
ENDMDL
