MODEL 1
REMARK VINA RESULT:      -9.0      0.000      0.000
REMARK  2 active torsions:
REMARK  status: ('A' for Active; 'I' for Inactive)
REMARK    1  A    between atoms: N_9  and  N_11 
REMARK       I    between atoms: N_11  and  C_12 
REMARK    2  A    between atoms: C_12  and  C_13 
ROOT
HETATM    1  C   UNL     1      19.686  51.789  48.302  1.00  0.00     0.033 C 
HETATM    2  C   UNL     1      19.142  51.637  49.725  1.00  0.00     0.086 C 
HETATM    3  N   UNL     1      17.697  51.281  49.769  1.00  0.00    -0.379 N 
HETATM    4  C   UNL     1      16.793  52.424  49.948  1.00  0.00     0.150 C 
HETATM    5  C   UNL     1      17.252  50.255  48.905  1.00  0.00     0.052 A 
HETATM    6  C   UNL     1      17.730  48.924  49.058  1.00  0.00     0.040 A 
HETATM    7  N   UNL     1      18.667  48.606  50.104  1.00  0.00    -0.246 NA
HETATM    8  C   UNL     1      19.915  49.309  50.084  1.00  0.00     0.077 C 
HETATM    9  N   UNL     1      20.937  48.645  49.575  1.00  0.00    -0.291 N 
HETATM   10  H   UNL     1      20.701  47.697  49.256  1.00  0.00     0.188 HD
HETATM   11  C   UNL     1      19.986  50.690  50.593  1.00  0.00     0.096 C 
HETATM   12  C   UNL     1      16.309  50.475  47.890  1.00  0.00     0.031 A 
HETATM   13  C   UNL     1      15.875  49.439  47.055  1.00  0.00     0.002 A 
HETATM   14  C   UNL     1      16.370  48.148  47.219  1.00  0.00     0.002 A 
HETATM   15  C   UNL     1      17.300  47.889  48.220  1.00  0.00     0.026 A 
HETATM   16  H   UNL     1      18.146  49.011  50.895  1.00  0.00     0.135 HD
ENDROOT
BRANCH   9  17
HETATM   17  N   UNL     1      22.185  49.060  49.432  1.00  0.00    -0.265 N 
HETATM   18  C   UNL     1      23.152  48.090  49.215  1.00  0.00     0.270 C 
HETATM   19  O   UNL     1      22.877  46.898  49.122  1.00  0.00    -0.266 OA
HETATM   20  H   UNL     1      22.402  50.047  49.410  1.00  0.00     0.190 HD
BRANCH  18  21
HETATM   21  C   UNL     1      24.549  48.576  49.061  1.00  0.00     0.033 A 
HETATM   22  C   UNL     1      24.863  49.727  48.325  1.00  0.00     0.017 A 
HETATM   23  C   UNL     1      26.194  50.136  48.205  1.00  0.00     0.001 A 
HETATM   24  C   UNL     1      27.208  49.407  48.824  1.00  0.00     0.000 A 
HETATM   25  C   UNL     1      26.898  48.273  49.573  1.00  0.00     0.001 A 
HETATM   26  C   UNL     1      25.571  47.860  49.697  1.00  0.00     0.017 A 
ENDBRANCH  18  21
ENDBRANCH   9  17
TORSDOF 2
ENDMDL
MODEL 2
REMARK VINA RESULT:      -8.8      5.676      8.202
REMARK  2 active torsions:
REMARK  status: ('A' for Active; 'I' for Inactive)
REMARK    1  A    between atoms: N_9  and  N_11 
REMARK       I    between atoms: N_11  and  C_12 
REMARK    2  A    between atoms: C_12  and  C_13 
ROOT
HETATM    1  C   UNL     1      26.410  46.006  49.674  1.00  0.00     0.033 C 
HETATM    2  C   UNL     1      25.260  46.644  50.457  1.00  0.00     0.086 C 
HETATM    3  N   UNL     1      23.944  46.534  49.767  1.00  0.00    -0.379 N 
HETATM    4  C   UNL     1      23.567  47.716  48.981  1.00  0.00     0.150 C 
HETATM    5  C   UNL     1      23.598  45.277  49.222  1.00  0.00     0.052 A 
HETATM    6  C   UNL     1      23.409  44.149  50.069  1.00  0.00     0.040 A 
HETATM    7  N   UNL     1      23.559  44.280  51.494  1.00  0.00    -0.246 NA
HETATM    8  C   UNL     1      24.836  44.725  51.968  1.00  0.00     0.077 C 
HETATM    9  N   UNL     1      25.642  43.779  52.416  1.00  0.00    -0.291 N 
HETATM   10  H   UNL     1      25.242  42.833  52.367  1.00  0.00     0.188 HD
HETATM   11  C   UNL     1      25.180  46.157  51.912  1.00  0.00     0.096 C 
HETATM   12  C   UNL     1      23.392  45.078  47.848  1.00  0.00     0.031 A 
HETATM   13  C   UNL     1      23.038  43.825  47.334  1.00  0.00     0.002 A 
HETATM   14  C   UNL     1      22.873  42.736  48.185  1.00  0.00     0.002 A 
HETATM   15  C   UNL     1      23.060  42.896  49.554  1.00  0.00     0.026 A 
HETATM   16  H   UNL     1      22.930  45.083  51.635  1.00  0.00     0.135 HD
ENDROOT
BRANCH   9  17
HETATM   17  N   UNL     1      26.866  43.915  52.897  1.00  0.00    -0.265 N 
HETATM   18  C   UNL     1      27.014  43.855  54.274  1.00  0.00     0.270 C 
HETATM   19  O   UNL     1      26.067  43.652  55.028  1.00  0.00    -0.266 OA
HETATM   20  H   UNL     1      27.661  43.984  52.275  1.00  0.00     0.190 HD
BRANCH  18  21
HETATM   21  C   UNL     1      28.397  44.015  54.795  1.00  0.00     0.033 A 
HETATM   22  C   UNL     1      29.384  43.036  54.610  1.00  0.00     0.017 A 
HETATM   23  C   UNL     1      30.666  43.231  55.127  1.00  0.00     0.001 A 
HETATM   24  C   UNL     1      30.970  44.402  55.820  1.00  0.00     0.000 A 
HETATM   25  C   UNL     1      29.998  45.387  55.989  1.00  0.00     0.001 A 
HETATM   26  C   UNL     1      28.715  45.198  55.475  1.00  0.00     0.017 A 
ENDBRANCH  18  21
ENDBRANCH   9  17
TORSDOF 2
ENDMDL
MODEL 3
REMARK VINA RESULT:      -8.8      5.208      9.998
REMARK  2 active torsions:
REMARK  status: ('A' for Active; 'I' for Inactive)
REMARK    1  A    between atoms: N_9  and  N_11 
REMARK       I    between atoms: N_11  and  C_12 
REMARK    2  A    between atoms: C_12  and  C_13 
ROOT
HETATM    1  C   UNL     1      27.240  43.929  49.913  1.00  0.00     0.033 C 
HETATM    2  C   UNL     1      26.373  42.792  50.462  1.00  0.00     0.086 C 
HETATM    3  N   UNL     1      27.088  41.926  51.441  1.00  0.00    -0.379 N 
HETATM    4  C   UNL     1      27.666  40.705  50.866  1.00  0.00     0.150 C 
HETATM    5  C   UNL     1      27.843  42.569  52.448  1.00  0.00     0.052 A 
HETATM    6  C   UNL     1      27.204  43.385  53.421  1.00  0.00     0.040 A 
HETATM    7  N   UNL     1      25.775  43.557  53.397  1.00  0.00    -0.246 NA
HETATM    8  C   UNL     1      25.217  44.122  52.204  1.00  0.00     0.077 C 
HETATM    9  N   UNL     1      24.926  45.410  52.263  1.00  0.00    -0.291 N 
HETATM   10  H   UNL     1      25.140  45.845  53.170  1.00  0.00     0.188 HD
HETATM   11  C   UNL     1      25.024  43.276  51.013  1.00  0.00     0.096 C 
HETATM   12  C   UNL     1      29.234  42.416  52.565  1.00  0.00     0.031 A 
HETATM   13  C   UNL     1      29.958  43.054  53.580  1.00  0.00     0.002 A 
HETATM   14  C   UNL     1      29.307  43.858  54.511  1.00  0.00     0.002 A 
HETATM   15  C   UNL     1      27.928  44.026  54.432  1.00  0.00     0.026 A 
HETATM   16  H   UNL     1      25.507  42.563  53.369  1.00  0.00     0.135 HD
ENDROOT
BRANCH   9  17
HETATM   17  N   UNL     1      24.414  46.172  51.311  1.00  0.00    -0.265 N 
HETATM   18  C   UNL     1      25.209  47.198  50.826  1.00  0.00     0.270 C 
HETATM   19  O   UNL     1      26.354  47.386  51.226  1.00  0.00    -0.266 OA
HETATM   20  H   UNL     1      23.509  45.960  50.911  1.00  0.00     0.190 HD
BRANCH  18  21
HETATM   21  C   UNL     1      24.613  48.045  49.759  1.00  0.00     0.033 A 
HETATM   22  C   UNL     1      23.275  47.917  49.363  1.00  0.00     0.017 A 
HETATM   23  C   UNL     1      22.766  48.733  48.349  1.00  0.00     0.001 A 
HETATM   24  C   UNL     1      23.585  49.681  47.738  1.00  0.00     0.000 A 
HETATM   25  C   UNL     1      24.911  49.826  48.143  1.00  0.00     0.001 A 
HETATM   26  C   UNL     1      25.425  49.014  49.155  1.00  0.00     0.017 A 
ENDBRANCH  18  21
ENDBRANCH   9  17
TORSDOF 2
ENDMDL
MODEL 4
REMARK VINA RESULT:      -8.5     10.072     11.774
REMARK  2 active torsions:
REMARK  status: ('A' for Active; 'I' for Inactive)
REMARK    1  A    between atoms: N_9  and  N_11 
REMARK       I    between atoms: N_11  and  C_12 
REMARK    2  A    between atoms: C_12  and  C_13 
ROOT
HETATM    1  C   UNL     1      27.227  42.504  49.070  1.00  0.00     0.033 C 
HETATM    2  C   UNL     1      25.809  41.924  49.099  1.00  0.00     0.086 C 
HETATM    3  N   UNL     1      25.610  40.806  48.135  1.00  0.00    -0.379 N 
HETATM    4  C   UNL     1      25.018  41.205  46.852  1.00  0.00     0.150 C 
HETATM    5  C   UNL     1      26.606  39.804  48.086  1.00  0.00     0.052 A 
HETATM    6  C   UNL     1      26.854  38.976  49.215  1.00  0.00     0.040 A 
HETATM    7  N   UNL     1      26.085  39.143  50.420  1.00  0.00    -0.246 NA
HETATM    8  C   UNL     1      26.145  40.430  51.047  1.00  0.00     0.077 C 
HETATM    9  N   UNL     1      26.961  40.523  52.083  1.00  0.00    -0.291 N 
HETATM   10  H   UNL     1      27.451  39.648  52.308  1.00  0.00     0.188 HD
HETATM   11  C   UNL     1      25.343  41.544  50.512  1.00  0.00     0.096 C 
HETATM   12  C   UNL     1      27.369  39.550  46.935  1.00  0.00     0.031 A 
HETATM   13  C   UNL     1      28.341  38.543  46.908  1.00  0.00     0.002 A 
HETATM   14  C   UNL     1      28.572  37.757  48.033  1.00  0.00     0.002 A 
HETATM   15  C   UNL     1      27.830  37.973  49.189  1.00  0.00     0.026 A 
HETATM   16  H   UNL     1      25.145  39.096  50.001  1.00  0.00     0.135 HD
ENDROOT
BRANCH   9  17
HETATM   17  N   UNL     1      27.207  41.587  52.829  1.00  0.00    -0.265 N 
HETATM   18  C   UNL     1      28.535  41.861  53.118  1.00  0.00     0.270 C 
HETATM   19  O   UNL     1      29.457  41.179  52.682  1.00  0.00    -0.266 OA
HETATM   20  H   UNL     1      26.459  42.207  53.108  1.00  0.00     0.190 HD
BRANCH  18  21
HETATM   21  C   UNL     1      28.791  43.059  53.962  1.00  0.00     0.033 A 
HETATM   22  C   UNL     1      27.900  44.141  54.015  1.00  0.00     0.017 A 
HETATM   23  C   UNL     1      28.193  45.246  54.818  1.00  0.00     0.001 A 
HETATM   24  C   UNL     1      29.363  45.271  55.575  1.00  0.00     0.000 A 
HETATM   25  C   UNL     1      30.242  44.188  55.540  1.00  0.00     0.001 A 
HETATM   26  C   UNL     1      29.955  43.082  54.741  1.00  0.00     0.017 A 
ENDBRANCH  18  21
ENDBRANCH   9  17
TORSDOF 2
ENDMDL
MODEL 5
REMARK VINA RESULT:      -8.2      9.385     12.058
REMARK  2 active torsions:
REMARK  status: ('A' for Active; 'I' for Inactive)
REMARK    1  A    between atoms: N_9  and  N_11 
REMARK       I    between atoms: N_11  and  C_12 
REMARK    2  A    between atoms: C_12  and  C_13 
ROOT
HETATM    1  C   UNL     1      29.940  43.378  52.572  1.00  0.00     0.033 C 
HETATM    2  C   UNL     1      29.823  42.769  53.972  1.00  0.00     0.086 C 
HETATM    3  N   UNL     1      29.294  43.721  54.987  1.00  0.00    -0.379 N 
HETATM    4  C   UNL     1      30.324  44.403  55.779  1.00  0.00     0.150 C 
HETATM    5  C   UNL     1      28.161  44.488  54.632  1.00  0.00     0.052 A 
HETATM    6  C   UNL     1      26.914  43.857  54.367  1.00  0.00     0.040 A 
HETATM    7  N   UNL     1      26.791  42.426  54.468  1.00  0.00    -0.246 NA
HETATM    8  C   UNL     1      27.641  41.647  53.618  1.00  0.00     0.077 C 
HETATM    9  N   UNL     1      27.076  41.174  52.521  1.00  0.00    -0.291 N 
HETATM   10  H   UNL     1      26.085  41.429  52.419  1.00  0.00     0.188 HD
HETATM   11  C   UNL     1      29.053  41.439  53.986  1.00  0.00     0.096 C 
HETATM   12  C   UNL     1      28.189  45.889  54.554  1.00  0.00     0.031 A 
HETATM   13  C   UNL     1      27.050  46.627  54.212  1.00  0.00     0.002 A 
HETATM   14  C   UNL     1      25.846  45.981  53.944  1.00  0.00     0.002 A 
HETATM   15  C   UNL     1      25.777  44.594  54.020  1.00  0.00     0.026 A 
HETATM   16  H   UNL     1      27.183  42.311  55.413  1.00  0.00     0.135 HD
ENDROOT
BRANCH   9  17
HETATM   17  N   UNL     1      27.632  40.438  51.573  1.00  0.00    -0.265 N 
HETATM   18  C   UNL     1      26.869  40.181  50.445  1.00  0.00     0.270 C 
HETATM   19  O   UNL     1      25.738  40.635  50.299  1.00  0.00    -0.266 OA
HETATM   20  H   UNL     1      28.597  40.145  51.646  1.00  0.00     0.190 HD
BRANCH  18  21
HETATM   21  C   UNL     1      27.510  39.349  49.392  1.00  0.00     0.033 A 
HETATM   22  C   UNL     1      26.878  39.070  48.171  1.00  0.00     0.017 A 
HETATM   23  C   UNL     1      27.521  38.276  47.219  1.00  0.00     0.001 A 
HETATM   24  C   UNL     1      28.794  37.769  47.475  1.00  0.00     0.000 A 
HETATM   25  C   UNL     1      29.434  38.060  48.679  1.00  0.00     0.001 A 
HETATM   26  C   UNL     1      28.798  38.853  49.634  1.00  0.00     0.017 A 
ENDBRANCH  18  21
ENDBRANCH   9  17
TORSDOF 2
ENDMDL
MODEL 6
REMARK VINA RESULT:      -8.1     22.624     24.320
REMARK  2 active torsions:
REMARK  status: ('A' for Active; 'I' for Inactive)
REMARK    1  A    between atoms: N_9  and  N_11 
REMARK       I    between atoms: N_11  and  C_12 
REMARK    2  A    between atoms: C_12  and  C_13 
ROOT
HETATM    1  C   UNL     1      37.509  45.328  66.793  1.00  0.00     0.033 C 
HETATM    2  C   UNL     1      36.184  45.795  66.184  1.00  0.00     0.086 C 
HETATM    3  N   UNL     1      35.954  47.259  66.325  1.00  0.00    -0.379 N 
HETATM    4  C   UNL     1      35.126  47.638  67.477  1.00  0.00     0.150 C 
HETATM    5  C   UNL     1      37.030  48.120  66.011  1.00  0.00     0.052 A 
HETATM    6  C   UNL     1      37.541  48.185  64.685  1.00  0.00     0.040 A 
HETATM    7  N   UNL     1      36.959  47.378  63.644  1.00  0.00    -0.246 NA
HETATM    8  C   UNL     1      36.983  45.960  63.843  1.00  0.00     0.077 C 
HETATM    9  N   UNL     1      37.938  45.308  63.203  1.00  0.00    -0.291 N 
HETATM   10  H   UNL     1      38.548  45.912  62.638  1.00  0.00     0.188 HD
HETATM   11  C   UNL     1      35.992  45.328  64.733  1.00  0.00     0.096 C 
HETATM   12  C   UNL     1      37.622  48.969  66.959  1.00  0.00     0.031 A 
HETATM   13  C   UNL     1      38.679  49.823  66.620  1.00  0.00     0.002 A 
HETATM   14  C   UNL     1      39.168  49.855  65.317  1.00  0.00     0.002 A 
HETATM   15  C   UNL     1      38.600  49.034  64.348  1.00  0.00     0.026 A 
HETATM   16  H   UNL     1      35.976  47.649  63.781  1.00  0.00     0.135 HD
ENDROOT
BRANCH   9  17
HETATM   17  N   UNL     1      38.186  44.009  63.219  1.00  0.00    -0.265 N 
HETATM   18  C   UNL     1      39.416  43.607  63.716  1.00  0.00     0.270 C 
HETATM   19  O   UNL     1      40.238  44.404  64.158  1.00  0.00    -0.266 OA
HETATM   20  H   UNL     1      37.474  43.344  62.947  1.00  0.00     0.190 HD
BRANCH  18  21
HETATM   21  C   UNL     1      39.677  42.143  63.721  1.00  0.00     0.033 A 
HETATM   22  C   UNL     1      40.442  41.524  64.721  1.00  0.00     0.017 A 
HETATM   23  C   UNL     1      40.664  40.145  64.674  1.00  0.00     0.001 A 
HETATM   24  C   UNL     1      40.120  39.383  63.642  1.00  0.00     0.000 A 
HETATM   25  C   UNL     1      39.343  39.992  62.658  1.00  0.00     0.001 A 
HETATM   26  C   UNL     1      39.117  41.368  62.698  1.00  0.00     0.017 A 
ENDBRANCH  18  21
ENDBRANCH   9  17
TORSDOF 2
ENDMDL
MODEL 7
REMARK VINA RESULT:      -8.0      7.602     10.404
REMARK  2 active torsions:
REMARK  status: ('A' for Active; 'I' for Inactive)
REMARK    1  A    between atoms: N_9  and  N_11 
REMARK       I    between atoms: N_11  and  C_12 
REMARK    2  A    between atoms: C_12  and  C_13 
ROOT
HETATM    1  C   UNL     1      27.262  41.469  51.892  1.00  0.00     0.033 C 
HETATM    2  C   UNL     1      27.871  42.315  50.770  1.00  0.00     0.086 C 
HETATM    3  N   UNL     1      26.954  42.508  49.613  1.00  0.00    -0.379 N 
HETATM    4  C   UNL     1      27.164  41.567  48.506  1.00  0.00     0.150 C 
HETATM    5  C   UNL     1      25.615  42.862  49.895  1.00  0.00     0.052 A 
HETATM    6  C   UNL     1      25.313  44.102  50.523  1.00  0.00     0.040 A 
HETATM    7  N   UNL     1      26.370  45.016  50.870  1.00  0.00    -0.246 NA
HETATM    8  C   UNL     1      27.371  44.527  51.771  1.00  0.00     0.077 C 
HETATM    9  N   UNL     1      27.237  44.900  53.032  1.00  0.00    -0.291 N 
HETATM   10  H   UNL     1      26.421  45.501  53.205  1.00  0.00     0.188 HD
HETATM   11  C   UNL     1      28.444  43.651  51.268  1.00  0.00     0.096 C 
HETATM   12  C   UNL     1      24.527  42.046  49.550  1.00  0.00     0.031 A 
HETATM   13  C   UNL     1      23.209  42.426  49.829  1.00  0.00     0.002 A 
HETATM   14  C   UNL     1      22.943  43.639  50.457  1.00  0.00     0.002 A 
HETATM   15  C   UNL     1      23.995  44.479  50.807  1.00  0.00     0.026 A 
HETATM   16  H   UNL     1      26.835  45.056  49.953  1.00  0.00     0.135 HD
ENDROOT
BRANCH   9  17
HETATM   17  N   UNL     1      28.010  44.586  54.058  1.00  0.00    -0.265 N 
HETATM   18  C   UNL     1      28.563  45.635  54.775  1.00  0.00     0.270 C 
HETATM   19  O   UNL     1      28.329  46.810  54.507  1.00  0.00    -0.266 OA
HETATM   20  H   UNL     1      28.126  43.623  54.342  1.00  0.00     0.190 HD
BRANCH  18  21
HETATM   21  C   UNL     1      29.433  45.263  55.923  1.00  0.00     0.033 A 
HETATM   22  C   UNL     1      29.342  45.901  57.168  1.00  0.00     0.017 A 
HETATM   23  C   UNL     1      30.189  45.519  58.211  1.00  0.00     0.001 A 
HETATM   24  C   UNL     1      31.118  44.497  58.019  1.00  0.00     0.000 A 
HETATM   25  C   UNL     1      31.197  43.846  56.789  1.00  0.00     0.001 A 
HETATM   26  C   UNL     1      30.354  44.223  55.743  1.00  0.00     0.017 A 
ENDBRANCH  18  21
ENDBRANCH   9  17
TORSDOF 2
ENDMDL
MODEL 8
REMARK VINA RESULT:      -8.0      2.227      3.851
REMARK  2 active torsions:
REMARK  status: ('A' for Active; 'I' for Inactive)
REMARK    1  A    between atoms: N_9  and  N_11 
REMARK       I    between atoms: N_11  and  C_12 
REMARK    2  A    between atoms: C_12  and  C_13 
ROOT
HETATM    1  C   UNL     1      19.753  47.082  49.120  1.00  0.00     0.033 C 
HETATM    2  C   UNL     1      20.152  47.555  47.720  1.00  0.00     0.086 C 
HETATM    3  N   UNL     1      19.300  48.663  47.206  1.00  0.00    -0.379 N 
HETATM    4  C   UNL     1      18.197  48.232  46.338  1.00  0.00     0.150 C 
HETATM    5  C   UNL     1      19.029  49.736  48.085  1.00  0.00     0.052 A 
HETATM    6  C   UNL     1      20.081  50.571  48.552  1.00  0.00     0.040 A 
HETATM    7  N   UNL     1      21.436  50.337  48.126  1.00  0.00    -0.246 NA
HETATM    8  C   UNL     1      21.993  49.054  48.432  1.00  0.00     0.077 C 
HETATM    9  N   UNL     1      22.787  49.012  49.488  1.00  0.00    -0.291 N 
HETATM   10  H   UNL     1      22.905  49.919  49.957  1.00  0.00     0.188 HD
HETATM   11  C   UNL     1      21.647  47.887  47.601  1.00  0.00     0.096 C 
HETATM   12  C   UNL     1      17.730  50.055  48.513  1.00  0.00     0.031 A 
HETATM   13  C   UNL     1      17.487  51.132  49.374  1.00  0.00     0.002 A 
HETATM   14  C   UNL     1      18.538  51.924  49.827  1.00  0.00     0.002 A 
HETATM   15  C   UNL     1      19.837  51.644  49.417  1.00  0.00     0.026 A 
HETATM   16  H   UNL     1      21.268  50.318  47.110  1.00  0.00     0.135 HD
ENDROOT
BRANCH   9  17
HETATM   17  N   UNL     1      23.419  47.963  49.988  1.00  0.00    -0.265 N 
HETATM   18  C   UNL     1      24.802  47.954  49.893  1.00  0.00     0.270 C 
HETATM   19  O   UNL     1      25.432  48.885  49.401  1.00  0.00    -0.266 OA
HETATM   20  H   UNL     1      22.911  47.241  50.481  1.00  0.00     0.190 HD
BRANCH  18  21
HETATM   21  C   UNL     1      25.493  46.764  50.458  1.00  0.00     0.033 A 
HETATM   22  C   UNL     1      26.282  45.915  49.670  1.00  0.00     0.017 A 
HETATM   23  C   UNL     1      26.904  44.806  50.248  1.00  0.00     0.001 A 
HETATM   24  C   UNL     1      26.749  44.547  51.609  1.00  0.00     0.000 A 
HETATM   25  C   UNL     1      25.981  45.400  52.400  1.00  0.00     0.001 A 
HETATM   26  C   UNL     1      25.358  46.510  51.829  1.00  0.00     0.017 A 
ENDBRANCH  18  21
ENDBRANCH   9  17
TORSDOF 2
ENDMDL
MODEL 9
REMARK VINA RESULT:      -7.6     22.652     24.481
REMARK  2 active torsions:
REMARK  status: ('A' for Active; 'I' for Inactive)
REMARK    1  A    between atoms: N_9  and  N_11 
REMARK       I    between atoms: N_11  and  C_12 
REMARK    2  A    between atoms: C_12  and  C_13 
ROOT
HETATM    1  C   UNL     1      37.847  45.054  67.175  1.00  0.00     0.033 C 
HETATM    2  C   UNL     1      37.437  46.180  66.222  1.00  0.00     0.086 C 
HETATM    3  N   UNL     1      38.342  46.318  65.048  1.00  0.00    -0.379 N 
HETATM    4  C   UNL     1      39.388  47.336  65.200  1.00  0.00     0.150 C 
HETATM    5  C   UNL     1      38.707  45.135  64.366  1.00  0.00     0.052 A 
HETATM    6  C   UNL     1      37.724  44.353  63.697  1.00  0.00     0.040 A 
HETATM    7  N   UNL     1      36.345  44.766  63.699  1.00  0.00    -0.246 NA
HETATM    8  C   UNL     1      35.717  44.898  64.980  1.00  0.00     0.077 C 
HETATM    9  N   UNL     1      34.954  43.885  65.350  1.00  0.00    -0.291 N 
HETATM   10  H   UNL     1      34.908  43.123  64.661  1.00  0.00     0.188 HD
HETATM   11  C   UNL     1      35.963  46.100  65.796  1.00  0.00     0.096 C 
HETATM   12  C   UNL     1      40.035  44.689  64.280  1.00  0.00     0.031 A 
HETATM   13  C   UNL     1      40.373  43.520  63.588  1.00  0.00     0.002 A 
HETATM   14  C   UNL     1      39.388  42.767  62.954  1.00  0.00     0.002 A 
HETATM   15  C   UNL     1      38.062  43.183  63.009  1.00  0.00     0.026 A 
HETATM   16  H   UNL     1      36.480  45.732  63.369  1.00  0.00     0.135 HD
ENDROOT
BRANCH   9  17
HETATM   17  N   UNL     1      34.272  43.750  66.476  1.00  0.00    -0.265 N 
HETATM   18  C   UNL     1      33.763  42.492  66.759  1.00  0.00     0.270 C 
HETATM   19  O   UNL     1      33.955  41.526  66.027  1.00  0.00    -0.266 OA
HETATM   20  H   UNL     1      34.195  44.518  67.128  1.00  0.00     0.190 HD
BRANCH  18  21
HETATM   21  C   UNL     1      32.996  42.362  68.026  1.00  0.00     0.033 A 
HETATM   22  C   UNL     1      33.332  41.420  69.010  1.00  0.00     0.017 A 
HETATM   23  C   UNL     1      32.574  41.333  70.179  1.00  0.00     0.001 A 
HETATM   24  C   UNL     1      31.490  42.187  70.376  1.00  0.00     0.000 A 
HETATM   25  C   UNL     1      31.165  43.138  69.409  1.00  0.00     0.001 A 
HETATM   26  C   UNL     1      31.918  43.230  68.239  1.00  0.00     0.017 A 
ENDBRANCH  18  21
ENDBRANCH   9  17
TORSDOF 2
ENDMDL
MODEL 10
REMARK VINA RESULT:      -7.4      4.124      8.760
REMARK  2 active torsions:
REMARK  status: ('A' for Active; 'I' for Inactive)
REMARK    1  A    between atoms: N_9  and  N_11 
REMARK       I    between atoms: N_11  and  C_12 
REMARK    2  A    between atoms: C_12  and  C_13 
ROOT
HETATM    1  C   UNL     1      24.883  45.017  52.501  1.00  0.00     0.033 C 
HETATM    2  C   UNL     1      26.207  45.478  51.884  1.00  0.00     0.086 C 
HETATM    3  N   UNL     1      27.114  44.352  51.526  1.00  0.00    -0.379 N 
HETATM    4  C   UNL     1      28.127  44.038  52.541  1.00  0.00     0.150 C 
HETATM    5  C   UNL     1      26.548  43.254  50.840  1.00  0.00     0.052 A 
HETATM    6  C   UNL     1      26.005  43.418  49.535  1.00  0.00     0.040 A 
HETATM    7  N   UNL     1      26.035  44.707  48.895  1.00  0.00    -0.246 NA
HETATM    8  C   UNL     1      25.363  45.776  49.573  1.00  0.00     0.077 C 
HETATM    9  N   UNL     1      24.158  46.073  49.120  1.00  0.00    -0.291 N 
HETATM   10  H   UNL     1      23.855  45.491  48.329  1.00  0.00     0.188 HD
HETATM   11  C   UNL     1      26.017  46.449  50.709  1.00  0.00     0.096 C 
HETATM   12  C   UNL     1      26.519  41.957  51.378  1.00  0.00     0.031 A 
HETATM   13  C   UNL     1      25.964  40.883  50.672  1.00  0.00     0.002 A 
HETATM   14  C   UNL     1      25.427  41.077  49.402  1.00  0.00     0.002 A 
HETATM   15  C   UNL     1      25.445  42.345  48.833  1.00  0.00     0.026 A 
HETATM   16  H   UNL     1      27.038  44.907  49.014  1.00  0.00     0.135 HD
ENDROOT
BRANCH   9  17
HETATM   17  N   UNL     1      23.328  47.002  49.566  1.00  0.00    -0.265 N 
HETATM   18  C   UNL     1      22.531  47.639  48.628  1.00  0.00     0.270 C 
HETATM   19  O   UNL     1      22.555  47.345  47.437  1.00  0.00    -0.266 OA
HETATM   20  H   UNL     1      23.235  47.179  50.557  1.00  0.00     0.190 HD
BRANCH  18  21
HETATM   21  C   UNL     1      21.609  48.684  49.148  1.00  0.00     0.033 A 
HETATM   22  C   UNL     1      20.244  48.438  49.358  1.00  0.00     0.017 A 
HETATM   23  C   UNL     1      19.419  49.457  49.841  1.00  0.00     0.001 A 
HETATM   24  C   UNL     1      19.951  50.714  50.124  1.00  0.00     0.000 A 
HETATM   25  C   UNL     1      21.311  50.956  49.935  1.00  0.00     0.001 A 
HETATM   26  C   UNL     1      22.141  49.943  49.453  1.00  0.00     0.017 A 
ENDBRANCH  18  21
ENDBRANCH   9  17
TORSDOF 2
ENDMDL
