MODEL 1
REMARK VINA RESULT:      -7.7      0.000      0.000
REMARK  8 active torsions:
REMARK  status: ('A' for Active; 'I' for Inactive)
REMARK    1  A    between atoms: C_2  and  C_3 
REMARK    2  A    between atoms: C_3  and  N_4 
REMARK    3  A    between atoms: C_3  and  C_20 
REMARK    4  A    between atoms: N_4  and  C_7 
REMARK    5  A    between atoms: C_7  and  C_8 
REMARK    6  A    between atoms: C_10  and  O_11 
REMARK    7  A    between atoms: C_13  and  O_14 
REMARK    8  A    between atoms: C_16  and  O_17 
ROOT
HETATM    1  N   UNL     1      27.237  41.610  52.438  1.00  0.00    -0.060 N 
HETATM    2  H   UNL     1      26.554  42.260  52.836  1.00  0.00     0.278 HD
HETATM    3  H   UNL     1      26.761  40.693  52.371  1.00  0.00     0.278 HD
ENDROOT
BRANCH   1   4
HETATM    4  C   UNL     1      27.634  41.948  51.029  1.00  0.00     0.258 C 
BRANCH   4   5
HETATM    5  C   UNL     1      26.690  43.026  50.440  1.00  0.00     0.016 C 
HETATM    6  C   UNL     1      27.298  44.429  50.559  1.00  0.00     0.012 C 
HETATM    7  C   UNL     1      25.280  43.022  51.045  1.00  0.00     0.012 C 
ENDBRANCH   4   5
BRANCH   4   8
HETATM    8  C   UNL     1      27.606  40.682  50.227  1.00  0.00     0.136 A 
HETATM    9  N   UNL     1      28.198  40.545  49.053  1.00  0.00    -0.231 NA
HETATM   10  C   UNL     1      27.923  39.258  48.654  1.00  0.00     0.085 A 
HETATM   11  C   UNL     1      27.129  38.610  49.595  1.00  0.00     0.062 A 
HETATM   12  C   UNL     1      28.315  38.575  47.496  1.00  0.00     0.034 A 
HETATM   13  N   UNL     1      26.944  39.535  50.592  1.00  0.00    -0.341 N 
HETATM   14  C   UNL     1      26.684  37.296  49.444  1.00  0.00     0.032 A 
HETATM   15  H   UNL     1      26.413  39.374  51.439  1.00  0.00     0.167 HD
HETATM   16  C   UNL     1      27.082  36.629  48.278  1.00  0.00     0.002 A 
HETATM   17  C   UNL     1      27.884  37.254  47.321  1.00  0.00     0.002 A 
ENDBRANCH   4   8
ENDBRANCH   1   4
BRANCH   1  18
HETATM   18  C   UNL     1      28.368  41.423  53.385  1.00  0.00     0.272 C 
BRANCH  18  19
HETATM   19  C   UNL     1      28.692  42.712  54.081  1.00  0.00    -0.027 A 
HETATM   20  C   UNL     1      29.928  42.892  54.713  1.00  0.00     0.048 A 
HETATM   21  C   UNL     1      30.204  44.074  55.414  1.00  0.00     0.104 A 
HETATM   22  C   UNL     1      29.228  45.090  55.505  1.00  0.00     0.135 A 
HETATM   23  C   UNL     1      27.979  44.906  54.894  1.00  0.00     0.104 A 
HETATM   24  C   UNL     1      27.730  43.722  54.184  1.00  0.00     0.048 A 
BRANCH  21  25
HETATM   25  O   UNL     1      31.372  44.241  56.115  1.00  0.00    -0.353 OA
HETATM   26  C   UNL     1      31.610  43.303  57.161  1.00  0.00     0.210 C 
ENDBRANCH  21  25
BRANCH  22  27
HETATM   27  O   UNL     1      29.444  46.216  56.259  1.00  0.00    -0.351 OA
HETATM   28  C   UNL     1      28.988  46.105  57.607  1.00  0.00     0.210 C 
ENDBRANCH  22  27
BRANCH  23  29
HETATM   29  O   UNL     1      26.891  45.738  54.883  1.00  0.00    -0.353 OA
HETATM   30  C   UNL     1      25.877  45.533  53.908  1.00  0.00     0.210 C 
ENDBRANCH  23  29
ENDBRANCH  18  19
ENDBRANCH   1  18
TORSDOF 8
ENDMDL
MODEL 2
REMARK VINA RESULT:      -7.7      1.610      5.005
REMARK  8 active torsions:
REMARK  status: ('A' for Active; 'I' for Inactive)
REMARK    1  A    between atoms: C_2  and  C_3 
REMARK    2  A    between atoms: C_3  and  N_4 
REMARK    3  A    between atoms: C_3  and  C_20 
REMARK    4  A    between atoms: N_4  and  C_7 
REMARK    5  A    between atoms: C_7  and  C_8 
REMARK    6  A    between atoms: C_10  and  O_11 
REMARK    7  A    between atoms: C_13  and  O_14 
REMARK    8  A    between atoms: C_16  and  O_17 
ROOT
HETATM    1  N   UNL     1      28.779  41.593  51.780  1.00  0.00    -0.060 N 
HETATM    2  H   UNL     1      29.590  41.107  51.387  1.00  0.00     0.278 HD
HETATM    3  H   UNL     1      28.982  42.605  51.708  1.00  0.00     0.278 HD
ENDROOT
BRANCH   1   4
HETATM    4  C   UNL     1      27.518  41.390  50.989  1.00  0.00     0.258 C 
BRANCH   4   5
HETATM    5  C   UNL     1      27.818  40.639  49.668  1.00  0.00     0.016 C 
HETATM    6  C   UNL     1      26.529  40.288  48.916  1.00  0.00     0.012 C 
HETATM    7  C   UNL     1      28.672  39.376  49.846  1.00  0.00     0.012 C 
ENDBRANCH   4   5
BRANCH   4   8
HETATM    8  C   UNL     1      26.909  42.737  50.740  1.00  0.00     0.136 A 
HETATM    9  N   UNL     1      27.573  43.759  50.229  1.00  0.00    -0.231 NA
HETATM   10  C   UNL     1      26.670  44.794  50.181  1.00  0.00     0.085 A 
HETATM   11  C   UNL     1      25.440  44.398  50.696  1.00  0.00     0.062 A 
HETATM   12  C   UNL     1      26.832  46.105  49.714  1.00  0.00     0.034 A 
HETATM   13  N   UNL     1      25.614  43.081  51.041  1.00  0.00    -0.341 N 
HETATM   14  C   UNL     1      24.338  45.250  50.784  1.00  0.00     0.032 A 
HETATM   15  H   UNL     1      24.897  42.488  51.440  1.00  0.00     0.167 HD
HETATM   16  C   UNL     1      24.518  46.558  50.317  1.00  0.00     0.002 A 
HETATM   17  C   UNL     1      25.741  46.980  49.790  1.00  0.00     0.002 A 
ENDBRANCH   4   8
ENDBRANCH   1   4
BRANCH   1  18
HETATM   18  C   UNL     1      28.667  41.294  53.233  1.00  0.00     0.272 C 
BRANCH  18  19
HETATM   19  C   UNL     1      28.769  42.553  54.042  1.00  0.00    -0.027 A 
HETATM   20  C   UNL     1      27.698  43.453  54.102  1.00  0.00     0.048 A 
HETATM   21  C   UNL     1      27.819  44.656  54.809  1.00  0.00     0.104 A 
HETATM   22  C   UNL     1      29.031  44.984  55.455  1.00  0.00     0.135 A 
HETATM   23  C   UNL     1      30.116  44.097  55.378  1.00  0.00     0.104 A 
HETATM   24  C   UNL     1      29.968  42.890  54.678  1.00  0.00     0.048 A 
BRANCH  21  25
HETATM   25  O   UNL     1      26.817  45.594  54.813  1.00  0.00    -0.353 OA
HETATM   26  C   UNL     1      26.634  46.314  53.598  1.00  0.00     0.210 C 
ENDBRANCH  21  25
BRANCH  22  27
HETATM   27  O   UNL     1      29.200  46.194  56.077  1.00  0.00    -0.351 OA
HETATM   28  C   UNL     1      28.984  46.154  57.487  1.00  0.00     0.210 C 
ENDBRANCH  22  27
BRANCH  23  29
HETATM   29  O   UNL     1      31.377  44.227  55.896  1.00  0.00    -0.353 OA
HETATM   30  C   UNL     1      31.727  43.481  57.054  1.00  0.00     0.210 C 
ENDBRANCH  23  29
ENDBRANCH  18  19
ENDBRANCH   1  18
TORSDOF 8
ENDMDL
MODEL 3
REMARK VINA RESULT:      -7.6      0.408      2.519
REMARK  8 active torsions:
REMARK  status: ('A' for Active; 'I' for Inactive)
REMARK    1  A    between atoms: C_2  and  C_3 
REMARK    2  A    between atoms: C_3  and  N_4 
REMARK    3  A    between atoms: C_3  and  C_20 
REMARK    4  A    between atoms: N_4  and  C_7 
REMARK    5  A    between atoms: C_7  and  C_8 
REMARK    6  A    between atoms: C_10  and  O_11 
REMARK    7  A    between atoms: C_13  and  O_14 
REMARK    8  A    between atoms: C_16  and  O_17 
ROOT
HETATM    1  N   UNL     1      27.340  41.163  52.329  1.00  0.00    -0.060 N 
HETATM    2  H   UNL     1      26.573  41.716  52.720  1.00  0.00     0.278 HD
HETATM    3  H   UNL     1      26.989  40.194  52.246  1.00  0.00     0.278 HD
ENDROOT
BRANCH   1   4
HETATM    4  C   UNL     1      27.714  41.565  50.930  1.00  0.00     0.258 C 
BRANCH   4   5
HETATM    5  C   UNL     1      26.769  42.677  50.411  1.00  0.00     0.016 C 
HETATM    6  C   UNL     1      27.386  44.068  50.595  1.00  0.00     0.012 C 
HETATM    7  C   UNL     1      25.367  42.647  51.032  1.00  0.00     0.012 C 
ENDBRANCH   4   5
BRANCH   4   8
HETATM    8  C   UNL     1      27.661  40.338  50.070  1.00  0.00     0.136 A 
HETATM    9  N   UNL     1      28.301  40.222  48.920  1.00  0.00    -0.231 NA
HETATM   10  C   UNL     1      27.980  38.970  48.449  1.00  0.00     0.085 A 
HETATM   11  C   UNL     1      27.109  38.325  49.322  1.00  0.00     0.062 A 
HETATM   12  C   UNL     1      28.392  38.318  47.279  1.00  0.00     0.034 A 
HETATM   13  N   UNL     1      26.924  39.214  50.351  1.00  0.00    -0.341 N 
HETATM   14  C   UNL     1      26.606  37.044  49.090  1.00  0.00     0.032 A 
HETATM   15  H   UNL     1      26.346  39.044  51.164  1.00  0.00     0.167 HD
HETATM   16  C   UNL     1      27.025  36.408  47.914  1.00  0.00     0.002 A 
HETATM   17  C   UNL     1      27.903  37.031  47.024  1.00  0.00     0.002 A 
ENDBRANCH   4   8
ENDBRANCH   1   4
BRANCH   1  18
HETATM   18  C   UNL     1      28.470  41.115  53.295  1.00  0.00     0.272 C 
BRANCH  18  19
HETATM   19  C   UNL     1      28.589  42.416  54.034  1.00  0.00    -0.027 A 
HETATM   20  C   UNL     1      27.521  43.319  54.068  1.00  0.00     0.048 A 
HETATM   21  C   UNL     1      27.658  44.559  54.708  1.00  0.00     0.104 A 
HETATM   22  C   UNL     1      28.883  44.917  55.311  1.00  0.00     0.135 A 
HETATM   23  C   UNL     1      29.965  44.025  55.259  1.00  0.00     0.104 A 
HETATM   24  C   UNL     1      29.802  42.783  54.627  1.00  0.00     0.048 A 
BRANCH  21  25
HETATM   25  O   UNL     1      26.658  45.498  54.682  1.00  0.00    -0.353 OA
HETATM   26  C   UNL     1      25.412  45.067  54.142  1.00  0.00     0.210 C 
ENDBRANCH  21  25
BRANCH  22  27
HETATM   27  O   UNL     1      29.066  46.158  55.864  1.00  0.00    -0.351 OA
HETATM   28  C   UNL     1      28.878  46.194  57.279  1.00  0.00     0.210 C 
ENDBRANCH  22  27
BRANCH  23  29
HETATM   29  O   UNL     1      31.237  44.179  55.744  1.00  0.00    -0.353 OA
HETATM   30  C   UNL     1      31.593  43.535  56.960  1.00  0.00     0.210 C 
ENDBRANCH  23  29
ENDBRANCH  18  19
ENDBRANCH   1  18
TORSDOF 8
ENDMDL
MODEL 4
REMARK VINA RESULT:      -7.6      4.078      6.898
REMARK  8 active torsions:
REMARK  status: ('A' for Active; 'I' for Inactive)
REMARK    1  A    between atoms: C_2  and  C_3 
REMARK    2  A    between atoms: C_3  and  N_4 
REMARK    3  A    between atoms: C_3  and  C_20 
REMARK    4  A    between atoms: N_4  and  C_7 
REMARK    5  A    between atoms: C_7  and  C_8 
REMARK    6  A    between atoms: C_10  and  O_11 
REMARK    7  A    between atoms: C_13  and  O_14 
REMARK    8  A    between atoms: C_16  and  O_17 
ROOT
HETATM    1  N   UNL     1      25.652  46.027  52.070  1.00  0.00    -0.060 N 
HETATM    2  H   UNL     1      26.644  46.136  51.842  1.00  0.00     0.278 HD
HETATM    3  H   UNL     1      25.294  46.976  52.274  1.00  0.00     0.278 HD
ENDROOT
BRANCH   1   4
HETATM    4  C   UNL     1      24.823  45.537  50.917  1.00  0.00     0.258 C 
BRANCH   4   5
HETATM    5  C   UNL     1      25.627  44.531  50.056  1.00  0.00     0.016 C 
HETATM    6  C   UNL     1      25.345  43.083  50.474  1.00  0.00     0.012 C 
HETATM    7  C   UNL     1      27.141  44.781  50.052  1.00  0.00     0.012 C 
ENDBRANCH   4   5
BRANCH   4   8
HETATM    8  C   UNL     1      24.388  46.731  50.123  1.00  0.00     0.136 A 
HETATM    9  N   UNL     1      25.135  47.807  49.948  1.00  0.00    -0.231 NA
HETATM   10  C   UNL     1      24.373  48.660  49.186  1.00  0.00     0.085 A 
HETATM   11  C   UNL     1      23.129  48.099  48.913  1.00  0.00     0.062 A 
HETATM   12  C   UNL     1      24.676  49.936  48.693  1.00  0.00     0.034 A 
HETATM   13  N   UNL     1      23.163  46.866  49.516  1.00  0.00    -0.341 N 
HETATM   14  C   UNL     1      22.144  48.750  48.169  1.00  0.00     0.032 A 
HETATM   15  H   UNL     1      22.408  46.193  49.497  1.00  0.00     0.167 HD
HETATM   16  C   UNL     1      22.462  50.026  47.687  1.00  0.00     0.002 A 
HETATM   17  C   UNL     1      23.705  50.610  47.942  1.00  0.00     0.002 A 
ENDBRANCH   4   8
ENDBRANCH   1   4
BRANCH   1  18
HETATM   18  C   UNL     1      25.507  45.248  53.329  1.00  0.00     0.272 C 
BRANCH  18  19
HETATM   19  C   UNL     1      26.853  44.889  53.886  1.00  0.00    -0.027 A 
HETATM   20  C   UNL     1      27.484  45.716  54.822  1.00  0.00     0.048 A 
HETATM   21  C   UNL     1      28.766  45.408  55.294  1.00  0.00     0.104 A 
HETATM   22  C   UNL     1      29.445  44.266  54.816  1.00  0.00     0.135 A 
HETATM   23  C   UNL     1      28.828  43.445  53.860  1.00  0.00     0.104 A 
HETATM   24  C   UNL     1      27.536  43.764  53.413  1.00  0.00     0.048 A 
BRANCH  21  25
HETATM   25  O   UNL     1      29.443  46.246  56.144  1.00  0.00    -0.353 OA
HETATM   26  C   UNL     1      29.111  46.133  57.525  1.00  0.00     0.210 C 
ENDBRANCH  21  25
BRANCH  22  27
HETATM   27  O   UNL     1      30.734  43.995  55.198  1.00  0.00    -0.351 OA
HETATM   28  C   UNL     1      30.834  43.066  56.277  1.00  0.00     0.210 C 
ENDBRANCH  22  27
BRANCH  23  29
HETATM   29  O   UNL     1      29.310  42.321  53.245  1.00  0.00    -0.353 OA
HETATM   30  C   UNL     1      28.645  41.828  52.090  1.00  0.00     0.210 C 
ENDBRANCH  23  29
ENDBRANCH  18  19
ENDBRANCH   1  18
TORSDOF 8
ENDMDL
MODEL 5
REMARK VINA RESULT:      -7.5      3.713      7.707
REMARK  8 active torsions:
REMARK  status: ('A' for Active; 'I' for Inactive)
REMARK    1  A    between atoms: C_2  and  C_3 
REMARK    2  A    between atoms: C_3  and  N_4 
REMARK    3  A    between atoms: C_3  and  C_20 
REMARK    4  A    between atoms: N_4  and  C_7 
REMARK    5  A    between atoms: C_7  and  C_8 
REMARK    6  A    between atoms: C_10  and  O_11 
REMARK    7  A    between atoms: C_13  and  O_14 
REMARK    8  A    between atoms: C_16  and  O_17 
ROOT
HETATM    1  N   UNL     1      25.784  43.309  50.520  1.00  0.00    -0.060 N 
HETATM    2  H   UNL     1      25.184  42.577  50.912  1.00  0.00     0.278 HD
HETATM    3  H   UNL     1      25.769  44.091  51.196  1.00  0.00     0.278 HD
ENDROOT
BRANCH   1   4
HETATM    4  C   UNL     1      27.228  42.908  50.418  1.00  0.00     0.258 C 
BRANCH   4   5
HETATM    5  C   UNL     1      27.354  41.388  50.148  1.00  0.00     0.016 C 
HETATM    6  C   UNL     1      27.561  41.097  48.657  1.00  0.00     0.012 C 
HETATM    7  C   UNL     1      26.177  40.558  50.678  1.00  0.00     0.012 C 
ENDBRANCH   4   5
BRANCH   4   8
HETATM    8  C   UNL     1      27.908  43.309  51.692  1.00  0.00     0.136 A 
HETATM    9  N   UNL     1      28.945  42.669  52.202  1.00  0.00    -0.231 NA
HETATM   10  C   UNL     1      29.250  43.337  53.365  1.00  0.00     0.085 A 
HETATM   11  C   UNL     1      28.364  44.389  53.575  1.00  0.00     0.062 A 
HETATM   12  C   UNL     1      30.269  43.097  54.296  1.00  0.00     0.034 A 
HETATM   13  N   UNL     1      27.520  44.356  52.493  1.00  0.00    -0.341 N 
HETATM   14  C   UNL     1      28.428  45.231  54.686  1.00  0.00     0.032 A 
HETATM   15  H   UNL     1      26.759  45.003  52.334  1.00  0.00     0.167 HD
HETATM   16  C   UNL     1      29.450  44.975  55.609  1.00  0.00     0.002 A 
HETATM   17  C   UNL     1      30.356  43.930  55.419  1.00  0.00     0.002 A 
ENDBRANCH   4   8
ENDBRANCH   1   4
BRANCH   1  18
HETATM   18  C   UNL     1      25.184  43.833  49.264  1.00  0.00     0.272 C 
BRANCH  18  19
HETATM   19  C   UNL     1      24.825  45.282  49.414  1.00  0.00    -0.027 A 
HETATM   20  C   UNL     1      23.538  45.736  49.101  1.00  0.00     0.048 A 
HETATM   21  C   UNL     1      23.225  47.100  49.185  1.00  0.00     0.104 A 
HETATM   22  C   UNL     1      24.211  48.034  49.569  1.00  0.00     0.135 A 
HETATM   23  C   UNL     1      25.509  47.588  49.861  1.00  0.00     0.104 A 
HETATM   24  C   UNL     1      25.797  46.216  49.787  1.00  0.00     0.048 A 
BRANCH  21  25
HETATM   25  O   UNL     1      21.999  47.583  48.801  1.00  0.00    -0.353 OA
HETATM   26  C   UNL     1      21.141  46.654  48.146  1.00  0.00     0.210 C 
ENDBRANCH  21  25
BRANCH  22  27
HETATM   27  O   UNL     1      23.950  49.380  49.572  1.00  0.00    -0.351 OA
HETATM   28  C   UNL     1      24.263  50.032  48.341  1.00  0.00     0.210 C 
ENDBRANCH  22  27
BRANCH  23  29
HETATM   29  O   UNL     1      26.613  48.315  50.219  1.00  0.00    -0.353 OA
HETATM   30  C   UNL     1      27.565  48.659  49.221  1.00  0.00     0.210 C 
ENDBRANCH  23  29
ENDBRANCH  18  19
ENDBRANCH   1  18
TORSDOF 8
ENDMDL
MODEL 6
REMARK VINA RESULT:      -7.5      3.423      7.368
REMARK  8 active torsions:
REMARK  status: ('A' for Active; 'I' for Inactive)
REMARK    1  A    between atoms: C_2  and  C_3 
REMARK    2  A    between atoms: C_3  and  N_4 
REMARK    3  A    between atoms: C_3  and  C_20 
REMARK    4  A    between atoms: N_4  and  C_7 
REMARK    5  A    between atoms: C_7  and  C_8 
REMARK    6  A    between atoms: C_10  and  O_11 
REMARK    7  A    between atoms: C_13  and  O_14 
REMARK    8  A    between atoms: C_16  and  O_17 
ROOT
HETATM    1  N   UNL     1      26.542  43.124  50.846  1.00  0.00    -0.060 N 
HETATM    2  H   UNL     1      25.695  42.608  51.101  1.00  0.00     0.278 HD
HETATM    3  H   UNL     1      26.574  43.954  51.461  1.00  0.00     0.278 HD
ENDROOT
BRANCH   1   4
HETATM    4  C   UNL     1      27.810  42.372  51.135  1.00  0.00     0.258 C 
BRANCH   4   5
HETATM    5  C   UNL     1      27.520  40.862  51.317  1.00  0.00     0.016 C 
HETATM    6  C   UNL     1      28.594  39.999  50.643  1.00  0.00     0.012 C 
HETATM    7  C   UNL     1      26.131  40.428  50.832  1.00  0.00     0.012 C 
ENDBRANCH   4   5
BRANCH   4   8
HETATM    8  C   UNL     1      28.432  42.975  52.359  1.00  0.00     0.136 A 
HETATM    9  N   UNL     1      29.458  42.441  52.998  1.00  0.00    -0.231 NA
HETATM   10  C   UNL     1      29.706  43.282  54.057  1.00  0.00     0.085 A 
HETATM   11  C   UNL     1      28.795  44.333  54.074  1.00  0.00     0.062 A 
HETATM   12  C   UNL     1      30.690  43.207  55.052  1.00  0.00     0.034 A 
HETATM   13  N   UNL     1      27.996  44.120  52.978  1.00  0.00    -0.341 N 
HETATM   14  C   UNL     1      28.801  45.333  55.047  1.00  0.00     0.032 A 
HETATM   15  H   UNL     1      27.231  44.720  52.696  1.00  0.00     0.167 HD
HETATM   16  C   UNL     1      29.788  45.241  56.036  1.00  0.00     0.002 A 
HETATM   17  C   UNL     1      30.718  44.199  56.039  1.00  0.00     0.002 A 
ENDBRANCH   4   8
ENDBRANCH   1   4
BRANCH   1  18
HETATM   18  C   UNL     1      26.417  43.640  49.456  1.00  0.00     0.272 C 
BRANCH  18  19
HETATM   19  C   UNL     1      25.834  45.023  49.457  1.00  0.00    -0.027 A 
HETATM   20  C   UNL     1      26.631  46.135  49.752  1.00  0.00     0.048 A 
HETATM   21  C   UNL     1      26.069  47.417  49.811  1.00  0.00     0.104 A 
HETATM   22  C   UNL     1      24.687  47.599  49.590  1.00  0.00     0.135 A 
HETATM   23  C   UNL     1      23.879  46.486  49.316  1.00  0.00     0.104 A 
HETATM   24  C   UNL     1      24.465  45.212  49.247  1.00  0.00     0.048 A 
BRANCH  21  25
HETATM   25  O   UNL     1      26.808  48.512  50.183  1.00  0.00    -0.353 OA
HETATM   26  C   UNL     1      27.658  49.060  49.179  1.00  0.00     0.210 C 
ENDBRANCH  21  25
BRANCH  22  27
HETATM   27  O   UNL     1      24.102  48.832  49.729  1.00  0.00    -0.351 OA
HETATM   28  C   UNL     1      23.956  49.545  48.501  1.00  0.00     0.210 C 
ENDBRANCH  22  27
BRANCH  23  29
HETATM   29  O   UNL     1      22.527  46.430  49.104  1.00  0.00    -0.353 OA
HETATM   30  C   UNL     1      22.045  45.940  47.859  1.00  0.00     0.210 C 
ENDBRANCH  23  29
ENDBRANCH  18  19
ENDBRANCH   1  18
TORSDOF 8
ENDMDL
MODEL 7
REMARK VINA RESULT:      -7.4      1.734      4.194
REMARK  8 active torsions:
REMARK  status: ('A' for Active; 'I' for Inactive)
REMARK    1  A    between atoms: C_2  and  C_3 
REMARK    2  A    between atoms: C_3  and  N_4 
REMARK    3  A    between atoms: C_3  and  C_20 
REMARK    4  A    between atoms: N_4  and  C_7 
REMARK    5  A    between atoms: C_7  and  C_8 
REMARK    6  A    between atoms: C_10  and  O_11 
REMARK    7  A    between atoms: C_13  and  O_14 
REMARK    8  A    between atoms: C_16  and  O_17 
ROOT
HETATM    1  N   UNL     1      27.569  41.108  52.914  1.00  0.00    -0.060 N 
HETATM    2  H   UNL     1      26.983  41.724  53.484  1.00  0.00     0.278 HD
HETATM    3  H   UNL     1      27.450  40.155  53.297  1.00  0.00     0.278 HD
ENDROOT
BRANCH   1   4
HETATM    4  C   UNL     1      27.120  41.013  51.483  1.00  0.00     0.258 C 
BRANCH   4   5
HETATM    5  C   UNL     1      28.289  40.562  50.573  1.00  0.00     0.016 C 
HETATM    6  C   UNL     1      27.937  40.715  49.089  1.00  0.00     0.012 C 
HETATM    7  C   UNL     1      28.777  39.132  50.843  1.00  0.00     0.012 C 
ENDBRANCH   4   5
BRANCH   4   8
HETATM    8  C   UNL     1      26.582  42.353  51.080  1.00  0.00     0.136 A 
HETATM    9  N   UNL     1      27.322  43.311  50.552  1.00  0.00    -0.231 NA
HETATM   10  C   UNL     1      26.463  44.365  50.346  1.00  0.00     0.085 A 
HETATM   11  C   UNL     1      25.181  44.046  50.781  1.00  0.00     0.062 A 
HETATM   12  C   UNL     1      26.710  45.630  49.796  1.00  0.00     0.034 A 
HETATM   13  N   UNL     1      25.279  42.756  51.240  1.00  0.00    -0.341 N 
HETATM   14  C   UNL     1      24.107  44.934  50.707  1.00  0.00     0.032 A 
HETATM   15  H   UNL     1      24.510  42.218  51.620  1.00  0.00     0.167 HD
HETATM   16  C   UNL     1      24.371  46.195  50.158  1.00  0.00     0.002 A 
HETATM   17  C   UNL     1      25.648  46.539  49.709  1.00  0.00     0.002 A 
ENDBRANCH   4   8
ENDBRANCH   1   4
BRANCH   1  18
HETATM   18  C   UNL     1      29.002  41.458  53.104  1.00  0.00     0.272 C 
BRANCH  18  19
HETATM   19  C   UNL     1      29.136  42.724  53.898  1.00  0.00    -0.027 A 
HETATM   20  C   UNL     1      30.304  42.995  54.620  1.00  0.00     0.048 A 
HETATM   21  C   UNL     1      30.402  44.148  55.409  1.00  0.00     0.104 A 
HETATM   22  C   UNL     1      29.314  45.043  55.499  1.00  0.00     0.135 A 
HETATM   23  C   UNL     1      28.131  44.765  54.797  1.00  0.00     0.104 A 
HETATM   24  C   UNL     1      28.061  43.612  54.000  1.00  0.00     0.048 A 
BRANCH  21  25
HETATM   25  O   UNL     1      31.501  44.395  56.194  1.00  0.00    -0.353 OA
HETATM   26  C   UNL     1      31.768  43.433  57.211  1.00  0.00     0.210 C 
ENDBRANCH  21  25
BRANCH  22  27
HETATM   27  O   UNL     1      29.356  46.130  56.334  1.00  0.00    -0.351 OA
HETATM   28  C   UNL     1      28.822  45.882  57.635  1.00  0.00     0.210 C 
ENDBRANCH  22  27
BRANCH  23  29
HETATM   29  O   UNL     1      26.958  45.471  54.767  1.00  0.00    -0.353 OA
HETATM   30  C   UNL     1      26.575  46.119  53.561  1.00  0.00     0.210 C 
ENDBRANCH  23  29
ENDBRANCH  18  19
ENDBRANCH   1  18
TORSDOF 8
ENDMDL
MODEL 8
REMARK VINA RESULT:      -7.3      5.074      8.119
REMARK  8 active torsions:
REMARK  status: ('A' for Active; 'I' for Inactive)
REMARK    1  A    between atoms: C_2  and  C_3 
REMARK    2  A    between atoms: C_3  and  N_4 
REMARK    3  A    between atoms: C_3  and  C_20 
REMARK    4  A    between atoms: N_4  and  C_7 
REMARK    5  A    between atoms: C_7  and  C_8 
REMARK    6  A    between atoms: C_10  and  O_11 
REMARK    7  A    between atoms: C_13  and  O_14 
REMARK    8  A    between atoms: C_16  and  O_17 
ROOT
HETATM    1  N   UNL     1      24.106  45.661  50.932  1.00  0.00    -0.060 N 
HETATM    2  H   UNL     1      24.555  45.888  51.823  1.00  0.00     0.278 HD
HETATM    3  H   UNL     1      23.119  45.958  51.019  1.00  0.00     0.278 HD
ENDROOT
BRANCH   1   4
HETATM    4  C   UNL     1      24.649  46.446  49.772  1.00  0.00     0.258 C 
BRANCH   4   5
HETATM    5  C   UNL     1      26.050  47.016  50.107  1.00  0.00     0.016 C 
HETATM    6  C   UNL     1      27.166  46.083  49.623  1.00  0.00     0.012 C 
HETATM    7  C   UNL     1      26.255  47.340  51.592  1.00  0.00     0.012 C 
ENDBRANCH   4   5
BRANCH   4   8
HETATM    8  C   UNL     1      23.665  47.531  49.450  1.00  0.00     0.136 A 
HETATM    9  N   UNL     1      23.963  48.818  49.466  1.00  0.00    -0.231 NA
HETATM   10  C   UNL     1      22.797  49.466  49.133  1.00  0.00     0.085 A 
HETATM   11  C   UNL     1      21.766  48.553  48.935  1.00  0.00     0.062 A 
HETATM   12  C   UNL     1      22.542  50.836  48.987  1.00  0.00     0.034 A 
HETATM   13  N   UNL     1      22.344  47.324  49.136  1.00  0.00    -0.341 N 
HETATM   14  C   UNL     1      20.465  48.931  48.600  1.00  0.00     0.032 A 
HETATM   15  H   UNL     1      21.862  46.438  49.056  1.00  0.00     0.167 HD
HETATM   16  C   UNL     1      20.226  50.304  48.461  1.00  0.00     0.002 A 
HETATM   17  C   UNL     1      21.244  51.241  48.649  1.00  0.00     0.002 A 
ENDBRANCH   4   8
ENDBRANCH   1   4
BRANCH   1  18
HETATM   18  C   UNL     1      24.082  44.186  50.740  1.00  0.00     0.272 C 
BRANCH  18  19
HETATM   19  C   UNL     1      25.285  43.551  51.372  1.00  0.00    -0.027 A 
HETATM   20  C   UNL     1      25.874  42.415  50.806  1.00  0.00     0.048 A 
HETATM   21  C   UNL     1      26.960  41.789  51.433  1.00  0.00     0.104 A 
HETATM   22  C   UNL     1      27.461  42.289  52.654  1.00  0.00     0.135 A 
HETATM   23  C   UNL     1      26.860  43.413  53.239  1.00  0.00     0.104 A 
HETATM   24  C   UNL     1      25.783  44.034  52.587  1.00  0.00     0.048 A 
BRANCH  21  25
HETATM   25  O   UNL     1      27.501  40.625  50.946  1.00  0.00    -0.353 OA
HETATM   26  C   UNL     1      28.172  40.726  49.694  1.00  0.00     0.210 C 
ENDBRANCH  21  25
BRANCH  22  27
HETATM   27  O   UNL     1      28.464  41.640  53.328  1.00  0.00    -0.351 OA
HETATM   28  C   UNL     1      29.766  42.171  53.077  1.00  0.00     0.210 C 
ENDBRANCH  22  27
BRANCH  23  29
HETATM   29  O   UNL     1      27.160  44.038  54.420  1.00  0.00    -0.353 OA
HETATM   30  C   UNL     1      27.989  45.193  54.396  1.00  0.00     0.210 C 
ENDBRANCH  23  29
ENDBRANCH  18  19
ENDBRANCH   1  18
TORSDOF 8
ENDMDL
MODEL 9
REMARK VINA RESULT:      -7.3      6.050      9.039
REMARK  8 active torsions:
REMARK  status: ('A' for Active; 'I' for Inactive)
REMARK    1  A    between atoms: C_2  and  C_3 
REMARK    2  A    between atoms: C_3  and  N_4 
REMARK    3  A    between atoms: C_3  and  C_20 
REMARK    4  A    between atoms: N_4  and  C_7 
REMARK    5  A    between atoms: C_7  and  C_8 
REMARK    6  A    between atoms: C_10  and  O_11 
REMARK    7  A    between atoms: C_13  and  O_14 
REMARK    8  A    between atoms: C_16  and  O_17 
ROOT
HETATM    1  N   UNL     1      24.057  47.304  50.266  1.00  0.00    -0.060 N 
HETATM    2  H   UNL     1      24.652  47.584  51.050  1.00  0.00     0.278 HD
HETATM    3  H   UNL     1      23.081  47.448  50.576  1.00  0.00     0.278 HD
ENDROOT
BRANCH   1   4
HETATM    4  C   UNL     1      24.215  48.176  49.053  1.00  0.00     0.258 C 
BRANCH   4   5
HETATM    5  C   UNL     1      25.486  49.052  49.173  1.00  0.00     0.016 C 
HETATM    6  C   UNL     1      25.679  49.934  47.934  1.00  0.00     0.012 C 
HETATM    7  C   UNL     1      26.771  48.259  49.446  1.00  0.00     0.012 C 
ENDBRANCH   4   5
BRANCH   4   8
HETATM    8  C   UNL     1      22.974  49.006  48.918  1.00  0.00     0.136 A 
HETATM    9  N   UNL     1      22.321  49.168  47.781  1.00  0.00    -0.231 NA
HETATM   10  C   UNL     1      21.267  49.999  48.081  1.00  0.00     0.085 A 
HETATM   11  C   UNL     1      21.297  50.366  49.422  1.00  0.00     0.062 A 
HETATM   12  C   UNL     1      20.246  50.487  47.255  1.00  0.00     0.034 A 
HETATM   13  N   UNL     1      22.390  49.717  49.938  1.00  0.00    -0.341 N 
HETATM   14  C   UNL     1      20.354  51.217  50.002  1.00  0.00     0.032 A 
HETATM   15  H   UNL     1      22.689  49.766  50.904  1.00  0.00     0.167 HD
HETATM   16  C   UNL     1      19.343  51.699  49.162  1.00  0.00     0.002 A 
HETATM   17  C   UNL     1      19.287  51.341  47.813  1.00  0.00     0.002 A 
ENDBRANCH   4   8
ENDBRANCH   1   4
BRANCH   1  18
HETATM   18  C   UNL     1      24.204  45.845  50.018  1.00  0.00     0.272 C 
BRANCH  18  19
HETATM   19  C   UNL     1      25.104  45.222  51.044  1.00  0.00    -0.027 A 
HETATM   20  C   UNL     1      25.628  43.939  50.851  1.00  0.00     0.048 A 
HETATM   21  C   UNL     1      26.419  43.337  51.840  1.00  0.00     0.104 A 
HETATM   22  C   UNL     1      26.680  44.013  53.051  1.00  0.00     0.135 A 
HETATM   23  C   UNL     1      26.138  45.290  53.260  1.00  0.00     0.104 A 
HETATM   24  C   UNL     1      25.363  45.881  52.251  1.00  0.00     0.048 A 
BRANCH  21  25
HETATM   25  O   UNL     1      26.873  42.048  51.714  1.00  0.00    -0.353 OA
HETATM   26  C   UNL     1      26.183  41.234  50.771  1.00  0.00     0.210 C 
ENDBRANCH  21  25
BRANCH  22  27
HETATM   27  O   UNL     1      27.377  43.408  54.066  1.00  0.00    -0.351 OA
HETATM   28  C   UNL     1      28.759  43.763  54.110  1.00  0.00     0.210 C 
ENDBRANCH  22  27
BRANCH  23  29
HETATM   29  O   UNL     1      26.238  46.103  54.358  1.00  0.00    -0.353 OA
HETATM   30  C   UNL     1      25.982  47.493  54.212  1.00  0.00     0.210 C 
ENDBRANCH  23  29
ENDBRANCH  18  19
ENDBRANCH   1  18
TORSDOF 8
ENDMDL
MODEL 10
REMARK VINA RESULT:      -7.0      7.162     10.514
REMARK  8 active torsions:
REMARK  status: ('A' for Active; 'I' for Inactive)
REMARK    1  A    between atoms: C_2  and  C_3 
REMARK    2  A    between atoms: C_3  and  N_4 
REMARK    3  A    between atoms: C_3  and  C_20 
REMARK    4  A    between atoms: N_4  and  C_7 
REMARK    5  A    between atoms: C_7  and  C_8 
REMARK    6  A    between atoms: C_10  and  O_11 
REMARK    7  A    between atoms: C_13  and  O_14 
REMARK    8  A    between atoms: C_16  and  O_17 
ROOT
HETATM    1  N   UNL     1      21.453  45.621  47.944  1.00  0.00    -0.060 N 
HETATM    2  H   UNL     1      21.369  45.189  47.020  1.00  0.00     0.278 HD
HETATM    3  H   UNL     1      21.850  46.564  47.789  1.00  0.00     0.278 HD
ENDROOT
BRANCH   1   4
HETATM    4  C   UNL     1      20.131  45.859  48.615  1.00  0.00     0.258 C 
BRANCH   4   5
HETATM    5  C   UNL     1      18.984  45.199  47.811  1.00  0.00     0.016 C 
HETATM    6  C   UNL     1      19.325  45.107  46.319  1.00  0.00     0.012 C 
HETATM    7  C   UNL     1      17.621  45.882  47.987  1.00  0.00     0.012 C 
ENDBRANCH   4   5
BRANCH   4   8
HETATM    8  C   UNL     1      19.942  47.340  48.748  1.00  0.00     0.136 A 
HETATM    9  N   UNL     1      20.272  48.207  47.807  1.00  0.00    -0.231 NA
HETATM   10  C   UNL     1      19.957  49.442  48.324  1.00  0.00     0.085 A 
HETATM   11  C   UNL     1      19.448  49.321  49.613  1.00  0.00     0.062 A 
HETATM   12  C   UNL     1      20.083  50.714  47.749  1.00  0.00     0.034 A 
HETATM   13  N   UNL     1      19.443  47.971  49.861  1.00  0.00    -0.341 N 
HETATM   14  C   UNL     1      19.057  50.416  50.385  1.00  0.00     0.032 A 
HETATM   15  H   UNL     1      19.118  47.542  50.718  1.00  0.00     0.167 HD
HETATM   16  C   UNL     1      19.194  51.680  49.798  1.00  0.00     0.002 A 
HETATM   17  C   UNL     1      19.696  51.829  48.503  1.00  0.00     0.002 A 
ENDBRANCH   4   8
ENDBRANCH   1   4
BRANCH   1  18
HETATM   18  C   UNL     1      22.451  44.878  48.759  1.00  0.00     0.272 C 
BRANCH  18  19
HETATM   19  C   UNL     1      23.566  45.787  49.188  1.00  0.00    -0.027 A 
HETATM   20  C   UNL     1      23.399  47.176  49.179  1.00  0.00     0.048 A 
HETATM   21  C   UNL     1      24.462  48.023  49.522  1.00  0.00     0.104 A 
HETATM   22  C   UNL     1      25.720  47.481  49.864  1.00  0.00     0.135 A 
HETATM   23  C   UNL     1      25.900  46.090  49.852  1.00  0.00     0.104 A 
HETATM   24  C   UNL     1      24.818  45.260  49.521  1.00  0.00     0.048 A 
BRANCH  21  25
HETATM   25  O   UNL     1      24.353  49.388  49.439  1.00  0.00    -0.353 OA
HETATM   26  C   UNL     1      24.005  49.907  48.158  1.00  0.00     0.210 C 
ENDBRANCH  21  25
BRANCH  22  27
HETATM   27  O   UNL     1      26.796  48.293  50.118  1.00  0.00    -0.351 OA
HETATM   28  C   UNL     1      27.587  48.581  48.964  1.00  0.00     0.210 C 
ENDBRANCH  22  27
BRANCH  23  29
HETATM   29  O   UNL     1      27.030  45.362  50.117  1.00  0.00    -0.353 OA
HETATM   30  C   UNL     1      26.976  43.945  50.015  1.00  0.00     0.210 C 
ENDBRANCH  23  29
ENDBRANCH  18  19
ENDBRANCH   1  18
TORSDOF 8
ENDMDL
