MODEL 1
REMARK VINA RESULT:      -8.7      0.000      0.000
REMARK  3 active torsions:
REMARK  status: ('A' for Active; 'I' for Inactive)
REMARK    1  A    between atoms: C_3  and  C_4 
REMARK    2  A    between atoms: C_10  and  C_11 
REMARK    3  A    between atoms: C_14  and  O_15 
ROOT
HETATM    1  C   UNL     1      26.723  44.906  51.647  1.00  0.00    -0.007 A 
HETATM    2  C   UNL     1      26.130  46.173  51.762  1.00  0.00     0.047 A 
HETATM    3  C   UNL     1      25.196  46.575  50.795  1.00  0.00     0.086 A 
HETATM    4  C   UNL     1      24.877  45.722  49.749  1.00  0.00     0.063 A 
HETATM    5  N   UNL     1      23.947  46.418  49.021  1.00  0.00    -0.338 N 
HETATM    6  H   UNL     1      23.477  46.079  48.198  1.00  0.00     0.167 HD
HETATM    7  C   UNL     1      23.730  47.639  49.623  1.00  0.00     0.139 A 
HETATM    8  N   UNL     1      24.484  47.743  50.705  1.00  0.00    -0.228 NA
HETATM    9  C   UNL     1      25.442  44.459  49.594  1.00  0.00     0.033 A 
HETATM   10  C   UNL     1      26.374  44.071  50.567  1.00  0.00     0.016 A 
ENDROOT
BRANCH   1  11
HETATM   11  C   UNL     1      27.713  44.389  52.658  1.00  0.00     0.069 C 
HETATM   12  C   UNL     1      27.500  44.672  54.141  1.00  0.00     0.045 C 
HETATM   13  C   UNL     1      26.554  43.619  54.722  1.00  0.00     0.017 C 
HETATM   14  C   UNL     1      28.839  44.689  54.863  1.00  0.00     0.115 C 
HETATM   15  C   UNL     1      29.714  43.544  54.447  1.00  0.00     0.238 C 
HETATM   16  N   UNL     1      29.574  43.142  53.145  1.00  0.00    -0.247 N 
HETATM   17  O   UNL     1      30.554  43.048  55.194  1.00  0.00    -0.272 OA
HETATM   18  N   UNL     1      28.691  43.636  52.239  1.00  0.00    -0.176 NA
HETATM   19  H   UNL     1      30.228  42.442  52.807  1.00  0.00     0.192 HD
ENDBRANCH   1  11
BRANCH   7  20
HETATM   20  C   UNL     1      22.775  48.644  49.143  1.00  0.00     0.010 A 
HETATM   21  C   UNL     1      21.501  48.232  48.730  1.00  0.00     0.018 A 
HETATM   22  C   UNL     1      20.568  49.156  48.254  1.00  0.00     0.037 A 
HETATM   23  C   UNL     1      20.881  50.513  48.186  1.00  0.00     0.068 A 
HETATM   24  C   UNL     1      22.141  50.938  48.605  1.00  0.00     0.037 A 
HETATM   25  C   UNL     1      23.080  50.010  49.081  1.00  0.00     0.018 A 
BRANCH  23  26
HETATM   26  O   UNL     1      19.881  51.309  47.700  1.00  0.00    -0.356 OA
HETATM   27  C   UNL     1      19.340  52.280  48.587  1.00  0.00     0.210 C 
ENDBRANCH  23  26
ENDBRANCH   7  20
TORSDOF 3
ENDMDL
MODEL 2
REMARK VINA RESULT:      -8.6      1.598      9.420
REMARK  3 active torsions:
REMARK  status: ('A' for Active; 'I' for Inactive)
REMARK    1  A    between atoms: C_3  and  C_4 
REMARK    2  A    between atoms: C_10  and  C_11 
REMARK    3  A    between atoms: C_14  and  O_15 
ROOT
HETATM    1  C   UNL     1      23.882  46.919  49.616  1.00  0.00    -0.007 A 
HETATM    2  C   UNL     1      24.766  47.115  50.687  1.00  0.00     0.047 A 
HETATM    3  C   UNL     1      25.574  46.045  51.106  1.00  0.00     0.086 A 
HETATM    4  C   UNL     1      25.485  44.822  50.460  1.00  0.00     0.063 A 
HETATM    5  N   UNL     1      26.401  44.035  51.108  1.00  0.00    -0.338 N 
HETATM    6  H   UNL     1      26.618  43.079  50.875  1.00  0.00     0.167 HD
HETATM    7  C   UNL     1      27.006  44.776  52.101  1.00  0.00     0.139 A 
HETATM    8  N   UNL     1      26.510  46.002  52.106  1.00  0.00    -0.228 NA
HETATM    9  C   UNL     1      24.620  44.581  49.396  1.00  0.00     0.033 A 
HETATM   10  C   UNL     1      23.819  45.658  48.989  1.00  0.00     0.016 A 
ENDROOT
BRANCH   1  11
HETATM   11  C   UNL     1      23.003  48.022  49.089  1.00  0.00     0.069 C 
HETATM   12  C   UNL     1      23.457  49.473  49.202  1.00  0.00     0.045 C 
HETATM   13  C   UNL     1      24.365  49.808  48.018  1.00  0.00     0.017 C 
HETATM   14  C   UNL     1      22.246  50.392  49.263  1.00  0.00     0.115 C 
HETATM   15  C   UNL     1      21.208  50.019  48.246  1.00  0.00     0.238 C 
HETATM   16  N   UNL     1      21.115  48.682  47.966  1.00  0.00    -0.247 N 
HETATM   17  O   UNL     1      20.440  50.841  47.754  1.00  0.00    -0.272 OA
HETATM   18  N   UNL     1      21.903  47.696  48.470  1.00  0.00    -0.176 NA
HETATM   19  H   UNL     1      20.352  48.390  47.363  1.00  0.00     0.192 HD
ENDBRANCH   1  11
BRANCH   7  20
HETATM   20  C   UNL     1      28.064  44.274  52.984  1.00  0.00     0.010 A 
HETATM   21  C   UNL     1      28.231  44.855  54.247  1.00  0.00     0.018 A 
HETATM   22  C   UNL     1      29.236  44.415  55.113  1.00  0.00     0.037 A 
HETATM   23  C   UNL     1      30.092  43.379  54.740  1.00  0.00     0.068 A 
HETATM   24  C   UNL     1      29.929  42.784  53.489  1.00  0.00     0.037 A 
HETATM   25  C   UNL     1      28.923  43.228  52.619  1.00  0.00     0.018 A 
BRANCH  23  26
HETATM   26  O   UNL     1      31.031  43.047  55.675  1.00  0.00    -0.356 OA
HETATM   27  C   UNL     1      31.217  43.953  56.755  1.00  0.00     0.210 C 
ENDBRANCH  23  26
ENDBRANCH   7  20
TORSDOF 3
ENDMDL
MODEL 3
REMARK VINA RESULT:      -8.4      2.085      9.456
REMARK  3 active torsions:
REMARK  status: ('A' for Active; 'I' for Inactive)
REMARK    1  A    between atoms: C_3  and  C_4 
REMARK    2  A    between atoms: C_10  and  C_11 
REMARK    3  A    between atoms: C_14  and  O_15 
ROOT
HETATM    1  C   UNL     1      24.289  45.610  49.630  1.00  0.00    -0.007 A 
HETATM    2  C   UNL     1      24.801  46.029  50.866  1.00  0.00     0.047 A 
HETATM    3  C   UNL     1      25.876  45.323  51.430  1.00  0.00     0.086 A 
HETATM    4  C   UNL     1      26.408  44.231  50.763  1.00  0.00     0.063 A 
HETATM    5  N   UNL     1      27.423  43.803  51.578  1.00  0.00    -0.338 N 
HETATM    6  H   UNL     1      28.044  43.034  51.383  1.00  0.00     0.167 HD
HETATM    7  C   UNL     1      27.482  44.620  52.687  1.00  0.00     0.139 A 
HETATM    8  N   UNL     1      26.545  45.551  52.605  1.00  0.00    -0.228 NA
HETATM    9  C   UNL     1      25.929  43.777  49.537  1.00  0.00     0.033 A 
HETATM   10  C   UNL     1      24.855  44.491  48.986  1.00  0.00     0.016 A 
ENDROOT
BRANCH   1  11
HETATM   11  C   UNL     1      23.157  46.330  48.944  1.00  0.00     0.069 C 
HETATM   12  C   UNL     1      22.229  45.566  48.007  1.00  0.00     0.045 C 
HETATM   13  C   UNL     1      21.129  44.891  48.829  1.00  0.00     0.017 C 
HETATM   14  C   UNL     1      21.654  46.511  46.962  1.00  0.00     0.115 C 
HETATM   15  C   UNL     1      21.192  47.802  47.569  1.00  0.00     0.238 C 
HETATM   16  N   UNL     1      21.917  48.236  48.648  1.00  0.00    -0.247 N 
HETATM   17  O   UNL     1      20.279  48.468  47.090  1.00  0.00    -0.272 OA
HETATM   18  N   UNL     1      22.951  47.583  49.239  1.00  0.00    -0.176 NA
HETATM   19  H   UNL     1      21.694  49.157  49.012  1.00  0.00     0.192 HD
ENDBRANCH   1  11
BRANCH   7  20
HETATM   20  C   UNL     1      28.467  44.486  53.766  1.00  0.00     0.010 A 
HETATM   21  C   UNL     1      28.502  45.452  54.781  1.00  0.00     0.018 A 
HETATM   22  C   UNL     1      29.433  45.368  55.819  1.00  0.00     0.037 A 
HETATM   23  C   UNL     1      30.345  44.314  55.873  1.00  0.00     0.068 A 
HETATM   24  C   UNL     1      30.313  43.340  54.875  1.00  0.00     0.037 A 
HETATM   25  C   UNL     1      29.380  43.425  53.831  1.00  0.00     0.018 A 
BRANCH  23  26
HETATM   26  O   UNL     1      31.202  44.351  56.937  1.00  0.00    -0.356 OA
HETATM   27  C   UNL     1      31.921  43.159  57.229  1.00  0.00     0.210 C 
ENDBRANCH  23  26
ENDBRANCH   7  20
TORSDOF 3
ENDMDL
MODEL 4
REMARK VINA RESULT:      -8.1      2.031      2.938
REMARK  3 active torsions:
REMARK  status: ('A' for Active; 'I' for Inactive)
REMARK    1  A    between atoms: C_3  and  C_4 
REMARK    2  A    between atoms: C_10  and  C_11 
REMARK    3  A    between atoms: C_14  and  O_15 
ROOT
HETATM    1  C   UNL     1      25.733  46.330  50.023  1.00  0.00    -0.007 A 
HETATM    2  C   UNL     1      24.341  46.437  49.894  1.00  0.00     0.047 A 
HETATM    3  C   UNL     1      23.793  47.650  49.445  1.00  0.00     0.086 A 
HETATM    4  C   UNL     1      24.629  48.712  49.140  1.00  0.00     0.063 A 
HETATM    5  N   UNL     1      23.774  49.704  48.734  1.00  0.00    -0.338 N 
HETATM    6  H   UNL     1      24.052  50.617  48.410  1.00  0.00     0.167 HD
HETATM    7  C   UNL     1      22.480  49.235  48.799  1.00  0.00     0.139 A 
HETATM    8  N   UNL     1      22.481  47.984  49.229  1.00  0.00    -0.228 NA
HETATM    9  C   UNL     1      26.015  48.651  49.256  1.00  0.00     0.033 A 
HETATM   10  C   UNL     1      26.548  47.435  49.706  1.00  0.00     0.016 A 
ENDROOT
BRANCH   1  11
HETATM   11  C   UNL     1      26.401  45.056  50.471  1.00  0.00     0.069 C 
HETATM   12  C   UNL     1      26.650  44.811  51.955  1.00  0.00     0.045 C 
HETATM   13  C   UNL     1      25.389  44.218  52.585  1.00  0.00     0.017 C 
HETATM   14  C   UNL     1      27.855  43.899  52.135  1.00  0.00     0.115 C 
HETATM   15  C   UNL     1      27.822  42.736  51.189  1.00  0.00     0.238 C 
HETATM   16  N   UNL     1      27.254  42.987  49.968  1.00  0.00    -0.247 N 
HETATM   17  O   UNL     1      28.337  41.653  51.455  1.00  0.00    -0.272 OA
HETATM   18  N   UNL     1      26.676  44.151  49.573  1.00  0.00    -0.176 NA
HETATM   19  H   UNL     1      27.314  42.250  49.272  1.00  0.00     0.192 HD
ENDBRANCH   1  11
BRANCH   7  20
HETATM   20  C   UNL     1      21.295  50.008  48.410  1.00  0.00     0.010 A 
HETATM   21  C   UNL     1      20.404  49.467  47.474  1.00  0.00     0.018 A 
HETATM   22  C   UNL     1      19.272  50.177  47.068  1.00  0.00     0.037 A 
HETATM   23  C   UNL     1      18.999  51.440  47.592  1.00  0.00     0.068 A 
HETATM   24  C   UNL     1      19.871  51.985  48.533  1.00  0.00     0.037 A 
HETATM   25  C   UNL     1      21.010  51.274  48.940  1.00  0.00     0.018 A 
BRANCH  23  26
HETATM   26  O   UNL     1      17.862  52.028  47.110  1.00  0.00    -0.356 OA
HETATM   27  C   UNL     1      16.980  51.206  46.357  1.00  0.00     0.210 C 
ENDBRANCH  23  26
ENDBRANCH   7  20
TORSDOF 3
ENDMDL
MODEL 5
REMARK VINA RESULT:      -8.1      5.450      9.273
REMARK  3 active torsions:
REMARK  status: ('A' for Active; 'I' for Inactive)
REMARK    1  A    between atoms: C_3  and  C_4 
REMARK    2  A    between atoms: C_10  and  C_11 
REMARK    3  A    between atoms: C_14  and  O_15 
ROOT
HETATM    1  C   UNL     1      27.918  43.634  53.222  1.00  0.00    -0.007 A 
HETATM    2  C   UNL     1      27.328  43.127  52.056  1.00  0.00     0.047 A 
HETATM    3  C   UNL     1      27.772  41.894  51.551  1.00  0.00     0.086 A 
HETATM    4  C   UNL     1      28.779  41.204  52.208  1.00  0.00     0.063 A 
HETATM    5  N   UNL     1      28.946  40.066  51.462  1.00  0.00    -0.338 N 
HETATM    6  H   UNL     1      29.588  39.319  51.672  1.00  0.00     0.167 HD
HETATM    7  C   UNL     1      28.063  40.091  50.403  1.00  0.00     0.139 A 
HETATM    8  N   UNL     1      27.342  41.199  50.450  1.00  0.00    -0.228 NA
HETATM    9  C   UNL     1      29.395  41.671  53.365  1.00  0.00     0.033 A 
HETATM   10  C   UNL     1      28.943  42.903  53.857  1.00  0.00     0.016 A 
ENDROOT
BRANCH   1  11
HETATM   11  C   UNL     1      27.480  44.934  53.843  1.00  0.00     0.069 C 
HETATM   12  C   UNL     1      26.077  45.468  53.575  1.00  0.00     0.045 C 
HETATM   13  C   UNL     1      25.098  44.820  54.555  1.00  0.00     0.017 C 
HETATM   14  C   UNL     1      26.069  46.986  53.687  1.00  0.00     0.115 C 
HETATM   15  C   UNL     1      26.823  47.461  54.893  1.00  0.00     0.238 C 
HETATM   16  N   UNL     1      27.898  46.693  55.254  1.00  0.00    -0.247 N 
HETATM   17  O   UNL     1      26.547  48.508  55.475  1.00  0.00    -0.272 OA
HETATM   18  N   UNL     1      28.293  45.533  54.667  1.00  0.00    -0.176 NA
HETATM   19  H   UNL     1      28.488  47.049  56.000  1.00  0.00     0.192 HD
ENDBRANCH   1  11
BRANCH   7  20
HETATM   20  C   UNL     1      27.932  39.023  49.406  1.00  0.00     0.010 A 
HETATM   21  C   UNL     1      26.924  38.062  49.564  1.00  0.00     0.018 A 
HETATM   22  C   UNL     1      26.773  37.022  48.644  1.00  0.00     0.037 A 
HETATM   23  C   UNL     1      27.621  36.920  47.541  1.00  0.00     0.068 A 
HETATM   24  C   UNL     1      28.621  37.876  47.366  1.00  0.00     0.037 A 
HETATM   25  C   UNL     1      28.774  38.919  48.291  1.00  0.00     0.018 A 
BRANCH  23  26
HETATM   26  O   UNL     1      27.369  35.856  46.720  1.00  0.00    -0.356 OA
HETATM   27  C   UNL     1      26.323  34.975  47.109  1.00  0.00     0.210 C 
ENDBRANCH  23  26
ENDBRANCH   7  20
TORSDOF 3
ENDMDL
MODEL 6
REMARK VINA RESULT:      -7.9      2.546      9.944
REMARK  3 active torsions:
REMARK  status: ('A' for Active; 'I' for Inactive)
REMARK    1  A    between atoms: C_3  and  C_4 
REMARK    2  A    between atoms: C_10  and  C_11 
REMARK    3  A    between atoms: C_14  and  O_15 
ROOT
HETATM    1  C   UNL     1      21.841  50.015  48.207  1.00  0.00    -0.007 A 
HETATM    2  C   UNL     1      21.984  48.767  48.831  1.00  0.00     0.047 A 
HETATM    3  C   UNL     1      23.272  48.319  49.165  1.00  0.00     0.086 A 
HETATM    4  C   UNL     1      24.373  49.109  48.875  1.00  0.00     0.063 A 
HETATM    5  N   UNL     1      25.438  48.383  49.339  1.00  0.00    -0.338 N 
HETATM    6  H   UNL     1      26.402  48.678  49.314  1.00  0.00     0.167 HD
HETATM    7  C   UNL     1      24.974  47.205  49.884  1.00  0.00     0.139 A 
HETATM    8  N   UNL     1      23.655  47.158  49.785  1.00  0.00    -0.228 NA
HETATM    9  C   UNL     1      24.278  50.352  48.254  1.00  0.00     0.033 A 
HETATM   10  C   UNL     1      22.986  50.786  47.925  1.00  0.00     0.016 A 
ENDROOT
BRANCH   1  11
HETATM   11  C   UNL     1      20.493  50.579  47.841  1.00  0.00     0.069 C 
HETATM   12  C   UNL     1      19.550  49.776  46.952  1.00  0.00     0.045 C 
HETATM   13  C   UNL     1      18.760  48.793  47.817  1.00  0.00     0.017 C 
HETATM   14  C   UNL     1      18.634  50.718  46.184  1.00  0.00     0.115 C 
HETATM   15  C   UNL     1      18.080  51.799  47.063  1.00  0.00     0.238 C 
HETATM   16  N   UNL     1      18.909  52.221  48.069  1.00  0.00    -0.247 N 
HETATM   17  O   UNL     1      16.991  52.327  46.854  1.00  0.00    -0.272 OA
HETATM   18  N   UNL     1      20.133  51.715  48.369  1.00  0.00    -0.176 NA
HETATM   19  H   UNL     1      18.603  53.023  48.611  1.00  0.00     0.192 HD
ENDBRANCH   1  11
BRANCH   7  20
HETATM   20  C   UNL     1      25.825  46.186  50.509  1.00  0.00     0.010 A 
HETATM   21  C   UNL     1      25.919  46.139  51.906  1.00  0.00     0.018 A 
HETATM   22  C   UNL     1      26.728  45.193  52.539  1.00  0.00     0.037 A 
HETATM   23  C   UNL     1      27.457  44.267  51.793  1.00  0.00     0.068 A 
HETATM   24  C   UNL     1      27.364  44.296  50.402  1.00  0.00     0.037 A 
HETATM   25  C   UNL     1      26.553  45.247  49.765  1.00  0.00     0.018 A 
BRANCH  23  26
HETATM   26  O   UNL     1      28.210  43.399  52.533  1.00  0.00    -0.356 OA
HETATM   27  C   UNL     1      27.862  43.249  53.903  1.00  0.00     0.210 C 
ENDBRANCH  23  26
ENDBRANCH   7  20
TORSDOF 3
ENDMDL
MODEL 7
REMARK VINA RESULT:      -7.8     18.857     21.339
REMARK  3 active torsions:
REMARK  status: ('A' for Active; 'I' for Inactive)
REMARK    1  A    between atoms: C_3  and  C_4 
REMARK    2  A    between atoms: C_10  and  C_11 
REMARK    3  A    between atoms: C_14  and  O_15 
ROOT
HETATM    1  C   UNL     1      37.554  50.660  66.850  1.00  0.00    -0.007 A 
HETATM    2  C   UNL     1      38.053  49.976  65.732  1.00  0.00     0.047 A 
HETATM    3  C   UNL     1      37.971  48.574  65.701  1.00  0.00     0.086 A 
HETATM    4  C   UNL     1      37.405  47.894  66.768  1.00  0.00     0.063 A 
HETATM    5  N   UNL     1      37.480  46.576  66.401  1.00  0.00    -0.338 N 
HETATM    6  H   UNL     1      37.131  45.799  66.940  1.00  0.00     0.167 HD
HETATM    7  C   UNL     1      38.072  46.489  65.159  1.00  0.00     0.139 A 
HETATM    8  N   UNL     1      38.373  47.701  64.724  1.00  0.00    -0.228 NA
HETATM    9  C   UNL     1      36.900  48.531  67.898  1.00  0.00     0.033 A 
HETATM   10  C   UNL     1      36.989  49.930  67.916  1.00  0.00     0.016 A 
ENDROOT
BRANCH   1  11
HETATM   11  C   UNL     1      37.578  52.162  66.948  1.00  0.00     0.069 C 
HETATM   12  C   UNL     1      37.391  52.838  68.302  1.00  0.00     0.045 C 
HETATM   13  C   UNL     1      38.739  52.899  69.022  1.00  0.00     0.017 C 
HETATM   14  C   UNL     1      36.788  54.222  68.112  1.00  0.00     0.115 C 
HETATM   15  C   UNL     1      37.450  54.973  66.997  1.00  0.00     0.238 C 
HETATM   16  N   UNL     1      37.894  54.205  65.953  1.00  0.00    -0.247 N 
HETATM   17  O   UNL     1      37.524  56.199  66.978  1.00  0.00    -0.272 OA
HETATM   18  N   UNL     1      37.842  52.850  65.872  1.00  0.00    -0.176 NA
HETATM   19  H   UNL     1      38.249  54.695  65.138  1.00  0.00     0.192 HD
ENDBRANCH   1  11
BRANCH   7  20
HETATM   20  C   UNL     1      38.292  45.235  64.430  1.00  0.00     0.010 A 
HETATM   21  C   UNL     1      37.203  44.391  64.180  1.00  0.00     0.018 A 
HETATM   22  C   UNL     1      37.373  43.182  63.500  1.00  0.00     0.037 A 
HETATM   23  C   UNL     1      38.633  42.792  63.048  1.00  0.00     0.068 A 
HETATM   24  C   UNL     1      39.724  43.628  63.281  1.00  0.00     0.037 A 
HETATM   25  C   UNL     1      39.554  44.840  63.966  1.00  0.00     0.018 A 
BRANCH  23  26
HETATM   26  O   UNL     1      38.663  41.588  62.401  1.00  0.00    -0.356 OA
HETATM   27  C   UNL     1      39.427  40.550  63.003  1.00  0.00     0.210 C 
ENDBRANCH  23  26
ENDBRANCH   7  20
TORSDOF 3
ENDMDL
MODEL 8
REMARK VINA RESULT:      -7.8      5.375      9.375
REMARK  3 active torsions:
REMARK  status: ('A' for Active; 'I' for Inactive)
REMARK    1  A    between atoms: C_3  and  C_4 
REMARK    2  A    between atoms: C_10  and  C_11 
REMARK    3  A    between atoms: C_14  and  O_15 
ROOT
HETATM    1  C   UNL     1      20.149  50.473  48.280  1.00  0.00    -0.007 A 
HETATM    2  C   UNL     1      19.378  51.109  49.264  1.00  0.00     0.047 A 
HETATM    3  C   UNL     1      18.157  51.697  48.894  1.00  0.00     0.086 A 
HETATM    4  C   UNL     1      17.739  51.641  47.573  1.00  0.00     0.063 A 
HETATM    5  N   UNL     1      16.531  52.290  47.578  1.00  0.00    -0.338 N 
HETATM    6  H   UNL     1      15.931  52.412  46.778  1.00  0.00     0.167 HD
HETATM    7  C   UNL     1      16.254  52.711  48.861  1.00  0.00     0.139 A 
HETATM    8  N   UNL     1      17.237  52.352  49.670  1.00  0.00    -0.228 NA
HETATM    9  C   UNL     1      18.473  51.024  46.564  1.00  0.00     0.033 A 
HETATM   10  C   UNL     1      19.690  50.442  46.948  1.00  0.00     0.016 A 
ENDROOT
BRANCH   1  11
HETATM   11  C   UNL     1      21.455  49.794  48.600  1.00  0.00     0.069 C 
HETATM   12  C   UNL     1      22.771  50.512  48.324  1.00  0.00     0.045 C 
HETATM   13  C   UNL     1      23.104  51.422  49.507  1.00  0.00     0.017 C 
HETATM   14  C   UNL     1      23.873  49.495  48.065  1.00  0.00     0.115 C 
HETATM   15  C   UNL     1      23.839  48.369  49.056  1.00  0.00     0.238 C 
HETATM   16  N   UNL     1      22.593  48.020  49.504  1.00  0.00    -0.247 N 
HETATM   17  O   UNL     1      24.846  47.749  49.386  1.00  0.00    -0.272 OA
HETATM   18  N   UNL     1      21.422  48.630  49.186  1.00  0.00    -0.176 NA
HETATM   19  H   UNL     1      22.530  47.194  50.092  1.00  0.00     0.192 HD
ENDBRANCH   1  11
BRANCH   7  20
HETATM   20  C   UNL     1      15.030  53.416  49.258  1.00  0.00     0.010 A 
HETATM   21  C   UNL     1      14.643  53.407  50.604  1.00  0.00     0.018 A 
HETATM   22  C   UNL     1      13.478  54.055  51.021  1.00  0.00     0.037 A 
HETATM   23  C   UNL     1      12.675  54.733  50.104  1.00  0.00     0.068 A 
HETATM   24  C   UNL     1      13.054  54.759  48.762  1.00  0.00     0.037 A 
HETATM   25  C   UNL     1      14.223  54.107  48.343  1.00  0.00     0.018 A 
BRANCH  23  26
HETATM   26  O   UNL     1      11.563  55.321  50.640  1.00  0.00    -0.356 OA
HETATM   27  C   UNL     1      11.754  56.135  51.789  1.00  0.00     0.210 C 
ENDBRANCH  23  26
ENDBRANCH   7  20
TORSDOF 3
ENDMDL
MODEL 9
REMARK VINA RESULT:      -7.7     18.930     20.578
REMARK  3 active torsions:
REMARK  status: ('A' for Active; 'I' for Inactive)
REMARK    1  A    between atoms: C_3  and  C_4 
REMARK    2  A    between atoms: C_10  and  C_11 
REMARK    3  A    between atoms: C_14  and  O_15 
ROOT
HETATM    1  C   UNL     1      39.747  41.838  64.075  1.00  0.00    -0.007 A 
HETATM    2  C   UNL     1      40.241  42.987  64.712  1.00  0.00     0.047 A 
HETATM    3  C   UNL     1      39.542  44.196  64.568  1.00  0.00     0.086 A 
HETATM    4  C   UNL     1      38.386  44.237  63.804  1.00  0.00     0.063 A 
HETATM    5  N   UNL     1      37.974  45.541  63.891  1.00  0.00    -0.338 N 
HETATM    6  H   UNL     1      37.140  45.918  63.470  1.00  0.00     0.167 HD
HETATM    7  C   UNL     1      38.861  46.240  64.680  1.00  0.00     0.139 A 
HETATM    8  N   UNL     1      39.819  45.429  65.100  1.00  0.00    -0.228 NA
HETATM    9  C   UNL     1      37.862  43.124  63.153  1.00  0.00     0.033 A 
HETATM   10  C   UNL     1      38.570  41.923  63.304  1.00  0.00     0.016 A 
ENDROOT
BRANCH   1  11
HETATM   11  C   UNL     1      40.421  40.498  64.204  1.00  0.00     0.069 C 
HETATM   12  C   UNL     1      41.439  40.263  65.315  1.00  0.00     0.045 C 
HETATM   13  C   UNL     1      40.702  39.869  66.595  1.00  0.00     0.017 C 
HETATM   14  C   UNL     1      42.438  39.198  64.886  1.00  0.00     0.115 C 
HETATM   15  C   UNL     1      41.763  38.024  64.243  1.00  0.00     0.238 C 
HETATM   16  N   UNL     1      40.633  38.317  63.526  1.00  0.00    -0.247 N 
HETATM   17  O   UNL     1      42.228  36.888  64.287  1.00  0.00    -0.272 OA
HETATM   18  N   UNL     1      40.052  39.539  63.402  1.00  0.00    -0.176 NA
HETATM   19  H   UNL     1      40.217  37.560  62.992  1.00  0.00     0.192 HD
ENDBRANCH   1  11
BRANCH   7  20
HETATM   20  C   UNL     1      38.727  47.660  65.024  1.00  0.00     0.010 A 
HETATM   21  C   UNL     1      37.508  48.126  65.534  1.00  0.00     0.018 A 
HETATM   22  C   UNL     1      37.336  49.473  65.861  1.00  0.00     0.037 A 
HETATM   23  C   UNL     1      38.378  50.384  65.695  1.00  0.00     0.068 A 
HETATM   24  C   UNL     1      39.600  49.931  65.199  1.00  0.00     0.037 A 
HETATM   25  C   UNL     1      39.773  48.579  64.868  1.00  0.00     0.018 A 
BRANCH  23  26
HETATM   26  O   UNL     1      38.078  51.670  66.050  1.00  0.00    -0.356 OA
HETATM   27  C   UNL     1      38.243  52.017  67.418  1.00  0.00     0.210 C 
ENDBRANCH  23  26
ENDBRANCH   7  20
TORSDOF 3
ENDMDL
MODEL 10
REMARK VINA RESULT:      -7.6      1.600      1.952
REMARK  3 active torsions:
REMARK  status: ('A' for Active; 'I' for Inactive)
REMARK    1  A    between atoms: C_3  and  C_4 
REMARK    2  A    between atoms: C_10  and  C_11 
REMARK    3  A    between atoms: C_14  and  O_15 
ROOT
HETATM    1  C   UNL     1      27.298  44.082  51.663  1.00  0.00    -0.007 A 
HETATM    2  C   UNL     1      26.372  45.135  51.676  1.00  0.00     0.047 A 
HETATM    3  C   UNL     1      25.494  45.281  50.589  1.00  0.00     0.086 A 
HETATM    4  C   UNL     1      25.558  44.391  49.529  1.00  0.00     0.063 A 
HETATM    5  N   UNL     1      24.574  44.817  48.675  1.00  0.00    -0.338 N 
HETATM    6  H   UNL     1      24.324  44.374  47.805  1.00  0.00     0.167 HD
HETATM    7  C   UNL     1      23.956  45.922  49.220  1.00  0.00     0.139 A 
HETATM    8  N   UNL     1      24.508  46.211  50.387  1.00  0.00    -0.228 NA
HETATM    9  C   UNL     1      26.462  43.334  49.472  1.00  0.00     0.033 A 
HETATM   10  C   UNL     1      27.333  43.201  50.563  1.00  0.00     0.016 A 
ENDROOT
BRANCH   1  11
HETATM   11  C   UNL     1      28.254  43.840  52.802  1.00  0.00     0.069 C 
HETATM   12  C   UNL     1      27.886  44.296  54.210  1.00  0.00     0.045 C 
HETATM   13  C   UNL     1      27.025  43.222  54.876  1.00  0.00     0.017 C 
HETATM   14  C   UNL     1      29.150  44.583  55.008  1.00  0.00     0.115 C 
HETATM   15  C   UNL     1      30.184  43.512  54.823  1.00  0.00     0.238 C 
HETATM   16  N   UNL     1      30.201  42.919  53.588  1.00  0.00    -0.247 N 
HETATM   17  O   UNL     1      31.010  43.236  55.688  1.00  0.00    -0.272 OA
HETATM   18  N   UNL     1      29.344  43.167  52.564  1.00  0.00    -0.176 NA
HETATM   19  H   UNL     1      30.957  42.268  53.401  1.00  0.00     0.192 HD
ENDBRANCH   1  11
BRANCH   7  20
HETATM   20  C   UNL     1      22.832  46.634  48.602  1.00  0.00     0.010 A 
HETATM   21  C   UNL     1      21.705  45.907  48.194  1.00  0.00     0.018 A 
HETATM   22  C   UNL     1      20.620  46.546  47.590  1.00  0.00     0.037 A 
HETATM   23  C   UNL     1      20.630  47.925  47.385  1.00  0.00     0.068 A 
HETATM   24  C   UNL     1      21.740  48.662  47.797  1.00  0.00     0.037 A 
HETATM   25  C   UNL     1      22.832  48.021  48.401  1.00  0.00     0.018 A 
BRANCH  23  26
HETATM   26  O   UNL     1      19.509  48.424  46.783  1.00  0.00    -0.356 OA
HETATM   27  C   UNL     1      18.483  47.495  46.457  1.00  0.00     0.210 C 
ENDBRANCH  23  26
ENDBRANCH   7  20
TORSDOF 3
ENDMDL
