MODEL 1
REMARK VINA RESULT:      -9.9      0.000      0.000
REMARK  5 active torsions:
REMARK  status: ('A' for Active; 'I' for Inactive)
REMARK    1  A    between atoms: C_14  and  C_15 
REMARK       I    between atoms: C_15  and  N_16 
REMARK    2  A    between atoms: N_16  and  C_17 
REMARK    3  A    between atoms: C_18  and  C_19 
REMARK    4  A    between atoms: C_19  and  O_20 
REMARK    5  A    between atoms: O_20  and  C_21 
ROOT
HETATM    1  C   UNL     1      27.179  44.219  52.175  1.00  0.00     0.273 C 
HETATM    2  N   UNL     1      25.798  44.066  52.207  1.00  0.00    -0.321 N 
HETATM    3  O   UNL     1      27.840  44.178  51.144  1.00  0.00    -0.266 OA
HETATM    4  H   UNL     1      25.351  44.589  52.948  1.00  0.00     0.169 HD
ENDROOT
BRANCH   1   5
HETATM    5  C   UNL     1      27.763  44.532  53.476  1.00  0.00     0.104 C 
HETATM    6  N   UNL     1      28.716  43.751  54.139  1.00  0.00    -0.345 N 
HETATM    7  C   UNL     1      29.089  42.411  53.738  1.00  0.00     0.156 C 
HETATM    8  C   UNL     1      29.150  44.439  55.219  1.00  0.00     0.060 A 
HETATM    9  C   UNL     1      28.371  45.561  55.424  1.00  0.00     0.012 A 
HETATM   10  C   UNL     1      30.177  44.169  56.078  1.00  0.00     0.039 A 
HETATM   11  C   UNL     1      28.620  46.351  56.564  1.00  0.00     0.132 A 
HETATM   12  C   UNL     1      27.488  45.612  54.318  1.00  0.00     0.050 C 
HETATM   13  N   UNL     1      29.616  46.074  57.458  1.00  0.00    -0.241 NA
HETATM   14  C   UNL     1      30.362  44.998  57.160  1.00  0.00     0.139 A 
HETATM   15  N   UNL     1      31.442  44.518  57.846  1.00  0.00    -0.350 N 
HETATM   16  H   UNL     1      31.803  44.934  58.691  1.00  0.00     0.166 HD
HETATM   17  C   UNL     1      31.961  43.425  57.181  1.00  0.00     0.091 A 
HETATM   18  C   UNL     1      31.191  43.183  56.055  1.00  0.00     0.034 A 
ENDBRANCH   1   5
BRANCH   2  19
HETATM   19  C   UNL     1      25.022  43.837  51.047  1.00  0.00     0.043 A 
HETATM   20  C   UNL     1      24.307  44.838  50.364  1.00  0.00    -0.007 A 
HETATM   21  C   UNL     1      23.485  44.459  49.283  1.00  0.00     0.011 A 
HETATM   22  C   UNL     1      23.423  43.134  48.852  1.00  0.00     0.001 A 
HETATM   23  C   UNL     1      24.199  42.167  49.481  1.00  0.00     0.002 A 
HETATM   24  C   UNL     1      25.001  42.518  50.566  1.00  0.00     0.030 A 
BRANCH  20  25
HETATM   25  C   UNL     1      24.477  46.321  50.623  1.00  0.00     0.216 C 
BRANCH  25  26
HETATM   26  O   UNL     1      25.841  46.709  50.435  1.00  0.00    -0.347 OA
BRANCH  26  27
HETATM   27  C   UNL     1      25.967  47.858  49.699  1.00  0.00     0.069 A 
HETATM   28  C   UNL     1      24.882  48.552  49.161  1.00  0.00     0.037 A 
HETATM   29  C   UNL     1      25.095  49.729  48.441  1.00  0.00     0.003 A 
HETATM   30  C   UNL     1      26.390  50.219  48.268  1.00  0.00     0.000 A 
HETATM   31  C   UNL     1      27.472  49.537  48.824  1.00  0.00     0.003 A 
HETATM   32  C   UNL     1      27.260  48.361  49.545  1.00  0.00     0.037 A 
ENDBRANCH  26  27
ENDBRANCH  25  26
ENDBRANCH  20  25
ENDBRANCH   2  19
TORSDOF 5
ENDMDL
MODEL 2
REMARK VINA RESULT:      -9.6      2.727      5.197
REMARK  5 active torsions:
REMARK  status: ('A' for Active; 'I' for Inactive)
REMARK    1  A    between atoms: C_14  and  C_15 
REMARK       I    between atoms: C_15  and  N_16 
REMARK    2  A    between atoms: N_16  and  C_17 
REMARK    3  A    between atoms: C_18  and  C_19 
REMARK    4  A    between atoms: C_19  and  O_20 
REMARK    5  A    between atoms: O_20  and  C_21 
ROOT
HETATM    1  C   UNL     1      27.026  44.101  52.028  1.00  0.00     0.273 C 
HETATM    2  N   UNL     1      25.868  43.341  52.136  1.00  0.00    -0.321 N 
HETATM    3  O   UNL     1      27.468  44.511  50.961  1.00  0.00    -0.266 OA
HETATM    4  H   UNL     1      25.363  43.495  52.999  1.00  0.00     0.169 HD
ENDROOT
BRANCH   1   5
HETATM    5  C   UNL     1      27.618  44.452  53.316  1.00  0.00     0.104 C 
HETATM    6  N   UNL     1      28.585  43.697  53.989  1.00  0.00    -0.345 N 
HETATM    7  C   UNL     1      28.969  42.352  53.616  1.00  0.00     0.156 C 
HETATM    8  C   UNL     1      29.021  44.414  55.048  1.00  0.00     0.060 A 
HETATM    9  C   UNL     1      28.231  45.533  55.233  1.00  0.00     0.012 A 
HETATM   10  C   UNL     1      30.058  44.177  55.905  1.00  0.00     0.039 A 
HETATM   11  C   UNL     1      28.481  46.353  56.353  1.00  0.00     0.132 A 
HETATM   12  C   UNL     1      27.338  45.548  54.135  1.00  0.00     0.050 C 
HETATM   13  N   UNL     1      29.488  46.107  57.244  1.00  0.00    -0.241 NA
HETATM   14  C   UNL     1      30.243  45.032  56.965  1.00  0.00     0.139 A 
HETATM   15  N   UNL     1      31.334  44.581  57.652  1.00  0.00    -0.350 N 
HETATM   16  H   UNL     1      31.698  45.021  58.484  1.00  0.00     0.166 HD
HETATM   17  C   UNL     1      31.860  43.478  57.009  1.00  0.00     0.091 A 
HETATM   18  C   UNL     1      31.083  43.201  55.896  1.00  0.00     0.034 A 
ENDBRANCH   1   5
BRANCH   2  19
HETATM   19  C   UNL     1      25.092  42.958  51.018  1.00  0.00     0.043 A 
HETATM   20  C   UNL     1      25.298  41.779  50.279  1.00  0.00    -0.007 A 
HETATM   21  C   UNL     1      24.523  41.566  49.120  1.00  0.00     0.011 A 
HETATM   22  C   UNL     1      23.531  42.468  48.739  1.00  0.00     0.001 A 
HETATM   23  C   UNL     1      23.278  43.588  49.523  1.00  0.00     0.002 A 
HETATM   24  C   UNL     1      24.048  43.826  50.661  1.00  0.00     0.030 A 
BRANCH  20  25
HETATM   25  C   UNL     1      26.199  40.648  50.732  1.00  0.00     0.216 C 
BRANCH  25  26
HETATM   26  O   UNL     1      27.573  41.030  50.633  1.00  0.00    -0.347 OA
BRANCH  26  27
HETATM   27  C   UNL     1      28.397  39.977  50.335  1.00  0.00     0.069 A 
HETATM   28  C   UNL     1      29.126  39.274  51.295  1.00  0.00     0.037 A 
HETATM   29  C   UNL     1      29.927  38.196  50.911  1.00  0.00     0.003 A 
HETATM   30  C   UNL     1      29.990  37.815  49.571  1.00  0.00     0.000 A 
HETATM   31  C   UNL     1      29.244  38.504  48.615  1.00  0.00     0.003 A 
HETATM   32  C   UNL     1      28.442  39.580  48.998  1.00  0.00     0.037 A 
ENDBRANCH  26  27
ENDBRANCH  25  26
ENDBRANCH  20  25
ENDBRANCH   2  19
TORSDOF 5
ENDMDL
MODEL 3
REMARK VINA RESULT:      -9.5      1.239      2.252
REMARK  5 active torsions:
REMARK  status: ('A' for Active; 'I' for Inactive)
REMARK    1  A    between atoms: C_14  and  C_15 
REMARK       I    between atoms: C_15  and  N_16 
REMARK    2  A    between atoms: N_16  and  C_17 
REMARK    3  A    between atoms: C_18  and  C_19 
REMARK    4  A    between atoms: C_19  and  O_20 
REMARK    5  A    between atoms: O_20  and  C_21 
ROOT
HETATM    1  C   UNL     1      25.844  44.072  52.186  1.00  0.00     0.273 C 
HETATM    2  N   UNL     1      26.052  44.216  50.820  1.00  0.00    -0.321 N 
HETATM    3  O   UNL     1      24.744  43.857  52.683  1.00  0.00    -0.266 OA
HETATM    4  H   UNL     1      26.961  43.893  50.514  1.00  0.00     0.169 HD
ENDROOT
BRANCH   1   5
HETATM    5  C   UNL     1      27.074  44.102  52.973  1.00  0.00     0.104 C 
HETATM    6  N   UNL     1      27.362  45.031  53.978  1.00  0.00    -0.345 N 
HETATM    7  C   UNL     1      26.585  46.227  54.228  1.00  0.00     0.156 C 
HETATM    8  C   UNL     1      28.499  44.643  54.600  1.00  0.00     0.060 A 
HETATM    9  C   UNL     1      29.097  43.606  53.911  1.00  0.00     0.012 A 
HETATM   10  C   UNL     1      29.092  45.127  55.731  1.00  0.00     0.039 A 
HETATM   11  C   UNL     1      30.347  43.133  54.363  1.00  0.00     0.132 A 
HETATM   12  C   UNL     1      28.192  43.272  52.875  1.00  0.00     0.050 C 
HETATM   13  N   UNL     1      30.975  43.633  55.468  1.00  0.00    -0.241 NA
HETATM   14  C   UNL     1      30.304  44.602  56.113  1.00  0.00     0.139 A 
HETATM   15  N   UNL     1      30.670  45.245  57.261  1.00  0.00    -0.350 N 
HETATM   16  H   UNL     1      31.525  45.059  57.763  1.00  0.00     0.166 HD
HETATM   17  C   UNL     1      29.680  46.136  57.626  1.00  0.00     0.091 A 
HETATM   18  C   UNL     1      28.664  46.080  56.685  1.00  0.00     0.034 A 
ENDBRANCH   1   5
BRANCH   2  19
HETATM   19  C   UNL     1      25.008  44.138  49.870  1.00  0.00     0.043 A 
HETATM   20  C   UNL     1      24.087  45.172  49.621  1.00  0.00    -0.007 A 
HETATM   21  C   UNL     1      23.027  44.928  48.724  1.00  0.00     0.011 A 
HETATM   22  C   UNL     1      22.919  43.714  48.046  1.00  0.00     0.001 A 
HETATM   23  C   UNL     1      23.882  42.730  48.236  1.00  0.00     0.002 A 
HETATM   24  C   UNL     1      24.926  42.945  49.135  1.00  0.00     0.030 A 
BRANCH  20  25
HETATM   25  C   UNL     1      24.245  46.585  50.144  1.00  0.00     0.216 C 
BRANCH  25  26
HETATM   26  O   UNL     1      25.629  46.922  50.271  1.00  0.00    -0.347 OA
BRANCH  26  27
HETATM   27  C   UNL     1      25.958  48.074  49.606  1.00  0.00     0.069 A 
HETATM   28  C   UNL     1      27.267  48.542  49.478  1.00  0.00     0.037 A 
HETATM   29  C   UNL     1      27.520  49.716  48.764  1.00  0.00     0.003 A 
HETATM   30  C   UNL     1      26.468  50.413  48.170  1.00  0.00     0.000 A 
HETATM   31  C   UNL     1      25.164  49.934  48.280  1.00  0.00     0.003 A 
HETATM   32  C   UNL     1      24.910  48.760  48.992  1.00  0.00     0.037 A 
ENDBRANCH  26  27
ENDBRANCH  25  26
ENDBRANCH  20  25
ENDBRANCH   2  19
TORSDOF 5
ENDMDL
MODEL 4
REMARK VINA RESULT:      -9.5      2.548      8.472
REMARK  5 active torsions:
REMARK  status: ('A' for Active; 'I' for Inactive)
REMARK    1  A    between atoms: C_14  and  C_15 
REMARK       I    between atoms: C_15  and  N_16 
REMARK    2  A    between atoms: N_16  and  C_17 
REMARK    3  A    between atoms: C_18  and  C_19 
REMARK    4  A    between atoms: C_19  and  O_20 
REMARK    5  A    between atoms: O_20  and  C_21 
ROOT
HETATM    1  C   UNL     1      26.524  44.833  50.469  1.00  0.00     0.273 C 
HETATM    2  N   UNL     1      26.215  43.973  51.516  1.00  0.00    -0.321 N 
HETATM    3  O   UNL     1      27.624  44.874  49.931  1.00  0.00    -0.266 OA
HETATM    4  H   UNL     1      25.247  43.678  51.524  1.00  0.00     0.169 HD
ENDROOT
BRANCH   1   5
HETATM    5  C   UNL     1      25.385  45.618  50.001  1.00  0.00     0.104 C 
HETATM    6  N   UNL     1      25.371  47.010  49.861  1.00  0.00    -0.345 N 
HETATM    7  C   UNL     1      26.402  47.888  50.373  1.00  0.00     0.156 C 
HETATM    8  C   UNL     1      24.223  47.362  49.240  1.00  0.00     0.060 A 
HETATM    9  C   UNL     1      23.371  46.278  49.148  1.00  0.00     0.012 A 
HETATM   10  C   UNL     1      23.826  48.571  48.746  1.00  0.00     0.039 A 
HETATM   11  C   UNL     1      22.083  46.482  48.611  1.00  0.00     0.132 A 
HETATM   12  C   UNL     1      24.111  45.176  49.639  1.00  0.00     0.050 C 
HETATM   13  N   UNL     1      21.652  47.694  48.150  1.00  0.00    -0.241 NA
HETATM   14  C   UNL     1      22.558  48.683  48.225  1.00  0.00     0.139 A 
HETATM   15  N   UNL     1      22.417  49.974  47.800  1.00  0.00    -0.350 N 
HETATM   16  H   UNL     1      21.578  50.339  47.375  1.00  0.00     0.166 HD
HETATM   17  C   UNL     1      23.598  50.659  48.009  1.00  0.00     0.091 A 
HETATM   18  C   UNL     1      24.512  49.799  48.597  1.00  0.00     0.034 A 
ENDBRANCH   1   5
BRANCH   2  19
HETATM   19  C   UNL     1      27.149  43.066  52.069  1.00  0.00     0.043 A 
HETATM   20  C   UNL     1      27.868  43.298  53.256  1.00  0.00    -0.007 A 
HETATM   21  C   UNL     1      28.848  42.362  53.643  1.00  0.00     0.011 A 
HETATM   22  C   UNL     1      29.067  41.199  52.906  1.00  0.00     0.001 A 
HETATM   23  C   UNL     1      28.293  40.939  51.781  1.00  0.00     0.002 A 
HETATM   24  C   UNL     1      27.333  41.863  51.370  1.00  0.00     0.030 A 
BRANCH  20  25
HETATM   25  C   UNL     1      27.552  44.417  54.227  1.00  0.00     0.216 C 
BRANCH  25  26
HETATM   26  O   UNL     1      28.665  45.308  54.345  1.00  0.00    -0.347 OA
BRANCH  26  27
HETATM   27  C   UNL     1      29.218  45.302  55.599  1.00  0.00     0.069 A 
HETATM   28  C   UNL     1      30.386  44.609  55.922  1.00  0.00     0.037 A 
HETATM   29  C   UNL     1      30.897  44.673  57.220  1.00  0.00     0.003 A 
HETATM   30  C   UNL     1      30.249  45.438  58.190  1.00  0.00     0.000 A 
HETATM   31  C   UNL     1      29.095  46.147  57.861  1.00  0.00     0.003 A 
HETATM   32  C   UNL     1      28.584  46.085  56.564  1.00  0.00     0.037 A 
ENDBRANCH  26  27
ENDBRANCH  25  26
ENDBRANCH  20  25
ENDBRANCH   2  19
TORSDOF 5
ENDMDL
MODEL 5
REMARK VINA RESULT:      -9.4      3.189      6.070
REMARK  5 active torsions:
REMARK  status: ('A' for Active; 'I' for Inactive)
REMARK    1  A    between atoms: C_14  and  C_15 
REMARK       I    between atoms: C_15  and  N_16 
REMARK    2  A    between atoms: N_16  and  C_17 
REMARK    3  A    between atoms: C_18  and  C_19 
REMARK    4  A    between atoms: C_19  and  O_20 
REMARK    5  A    between atoms: O_20  and  C_21 
ROOT
HETATM    1  C   UNL     1      26.817  43.449  52.534  1.00  0.00     0.273 C 
HETATM    2  N   UNL     1      27.556  44.624  52.582  1.00  0.00    -0.321 N 
HETATM    3  O   UNL     1      25.853  43.227  53.258  1.00  0.00    -0.266 OA
HETATM    4  H   UNL     1      27.944  44.893  51.688  1.00  0.00     0.169 HD
ENDROOT
BRANCH   1   5
HETATM    5  C   UNL     1      27.233  42.538  51.471  1.00  0.00     0.104 C 
HETATM    6  N   UNL     1      28.127  41.474  51.629  1.00  0.00    -0.345 N 
HETATM    7  C   UNL     1      28.939  41.262  52.809  1.00  0.00     0.156 C 
HETATM    8  C   UNL     1      28.132  40.752  50.486  1.00  0.00     0.060 A 
HETATM    9  C   UNL     1      27.436  41.413  49.493  1.00  0.00     0.012 A 
HETATM   10  C   UNL     1      28.715  39.548  50.208  1.00  0.00     0.039 A 
HETATM   11  C   UNL     1      27.415  40.851  48.200  1.00  0.00     0.132 A 
HETATM   12  C   UNL     1      26.872  42.549  50.123  1.00  0.00     0.050 C 
HETATM   13  N   UNL     1      28.027  39.669  47.893  1.00  0.00    -0.241 NA
HETATM   14  C   UNL     1      28.637  39.062  48.925  1.00  0.00     0.139 A 
HETATM   15  N   UNL     1      29.284  37.858  48.917  1.00  0.00    -0.350 N 
HETATM   16  H   UNL     1      29.384  37.278  48.098  1.00  0.00     0.166 HD
HETATM   17  C   UNL     1      29.727  37.565  50.192  1.00  0.00     0.091 A 
HETATM   18  C   UNL     1      29.375  38.608  51.034  1.00  0.00     0.034 A 
ENDBRANCH   1   5
BRANCH   2  19
HETATM   19  C   UNL     1      27.272  45.676  53.483  1.00  0.00     0.043 A 
HETATM   20  C   UNL     1      26.333  46.695  53.236  1.00  0.00    -0.007 A 
HETATM   21  C   UNL     1      26.220  47.746  54.169  1.00  0.00     0.011 A 
HETATM   22  C   UNL     1      26.972  47.754  55.343  1.00  0.00     0.001 A 
HETATM   23  C   UNL     1      27.835  46.700  55.617  1.00  0.00     0.002 A 
HETATM   24  C   UNL     1      27.976  45.662  54.696  1.00  0.00     0.030 A 
BRANCH  20  25
HETATM   25  C   UNL     1      25.328  46.659  52.102  1.00  0.00     0.216 C 
BRANCH  25  26
HETATM   26  O   UNL     1      25.994  46.493  50.847  1.00  0.00    -0.347 OA
BRANCH  26  27
HETATM   27  C   UNL     1      25.894  47.599  50.044  1.00  0.00     0.069 A 
HETATM   28  C   UNL     1      26.999  48.301  49.561  1.00  0.00     0.037 A 
HETATM   29  C   UNL     1      26.811  49.407  48.727  1.00  0.00     0.003 A 
HETATM   30  C   UNL     1      25.522  49.801  48.369  1.00  0.00     0.000 A 
HETATM   31  C   UNL     1      24.420  49.086  48.835  1.00  0.00     0.003 A 
HETATM   32  C   UNL     1      24.606  47.981  49.666  1.00  0.00     0.037 A 
ENDBRANCH  26  27
ENDBRANCH  25  26
ENDBRANCH  20  25
ENDBRANCH   2  19
TORSDOF 5
ENDMDL
MODEL 6
REMARK VINA RESULT:      -9.2     12.433     16.050
REMARK  5 active torsions:
REMARK  status: ('A' for Active; 'I' for Inactive)
REMARK    1  A    between atoms: C_14  and  C_15 
REMARK       I    between atoms: C_15  and  N_16 
REMARK    2  A    between atoms: N_16  and  C_17 
REMARK    3  A    between atoms: C_18  and  C_19 
REMARK    4  A    between atoms: C_19  and  O_20 
REMARK    5  A    between atoms: O_20  and  C_21 
ROOT
HETATM    1  C   UNL     1      33.043  52.308  39.219  1.00  0.00     0.273 C 
HETATM    2  N   UNL     1      33.753  53.240  39.966  1.00  0.00    -0.321 N 
HETATM    3  O   UNL     1      33.538  51.650  38.312  1.00  0.00    -0.266 OA
HETATM    4  H   UNL     1      33.430  53.323  40.921  1.00  0.00     0.169 HD
ENDROOT
BRANCH   1   5
HETATM    5  C   UNL     1      31.671  52.112  39.680  1.00  0.00     0.104 C 
HETATM    6  N   UNL     1      30.934  50.932  39.531  1.00  0.00    -0.345 N 
HETATM    7  C   UNL     1      31.342  49.818  38.701  1.00  0.00     0.156 C 
HETATM    8  C   UNL     1      29.784  51.060  40.230  1.00  0.00     0.060 A 
HETATM    9  C   UNL     1      29.626  52.361  40.669  1.00  0.00     0.012 A 
HETATM   10  C   UNL     1      28.822  50.134  40.519  1.00  0.00     0.039 A 
HETATM   11  C   UNL     1      28.433  52.703  41.338  1.00  0.00     0.132 A 
HETATM   12  C   UNL     1      30.824  53.025  40.311  1.00  0.00     0.050 C 
HETATM   13  N   UNL     1      27.441  51.800  41.599  1.00  0.00    -0.241 NA
HETATM   14  C   UNL     1      27.694  50.546  41.188  1.00  0.00     0.139 A 
HETATM   15  N   UNL     1      26.907  49.442  41.354  1.00  0.00    -0.350 N 
HETATM   16  H   UNL     1      26.009  49.454  41.815  1.00  0.00     0.166 HD
HETATM   17  C   UNL     1      27.550  48.335  40.835  1.00  0.00     0.091 A 
HETATM   18  C   UNL     1      28.767  48.736  40.307  1.00  0.00     0.034 A 
ENDBRANCH   1   5
BRANCH   2  19
HETATM   19  C   UNL     1      35.119  53.526  39.741  1.00  0.00     0.043 A 
HETATM   20  C   UNL     1      36.181  52.876  40.397  1.00  0.00    -0.007 A 
HETATM   21  C   UNL     1      37.496  53.328  40.162  1.00  0.00     0.011 A 
HETATM   22  C   UNL     1      37.755  54.355  39.255  1.00  0.00     0.001 A 
HETATM   23  C   UNL     1      36.706  54.934  38.550  1.00  0.00     0.002 A 
HETATM   24  C   UNL     1      35.397  54.514  38.784  1.00  0.00     0.030 A 
BRANCH  20  25
HETATM   25  C   UNL     1      36.015  51.621  41.230  1.00  0.00     0.216 C 
BRANCH  25  26
HETATM   26  O   UNL     1      35.131  51.860  42.328  1.00  0.00    -0.347 OA
BRANCH  26  27
HETATM   27  C   UNL     1      34.099  50.960  42.384  1.00  0.00     0.069 A 
HETATM   28  C   UNL     1      32.948  51.156  43.148  1.00  0.00     0.037 A 
HETATM   29  C   UNL     1      31.931  50.198  43.133  1.00  0.00     0.003 A 
HETATM   30  C   UNL     1      32.060  49.053  42.347  1.00  0.00     0.000 A 
HETATM   31  C   UNL     1      33.201  48.869  41.567  1.00  0.00     0.003 A 
HETATM   32  C   UNL     1      34.217  49.826  41.580  1.00  0.00     0.037 A 
ENDBRANCH  26  27
ENDBRANCH  25  26
ENDBRANCH  20  25
ENDBRANCH   2  19
TORSDOF 5
ENDMDL
MODEL 7
REMARK VINA RESULT:      -9.0      3.137      8.597
REMARK  5 active torsions:
REMARK  status: ('A' for Active; 'I' for Inactive)
REMARK    1  A    between atoms: C_14  and  C_15 
REMARK       I    between atoms: C_15  and  N_16 
REMARK    2  A    between atoms: N_16  and  C_17 
REMARK    3  A    between atoms: C_18  and  C_19 
REMARK    4  A    between atoms: C_19  and  O_20 
REMARK    5  A    between atoms: O_20  and  C_21 
ROOT
HETATM    1  C   UNL     1      24.545  44.916  50.437  1.00  0.00     0.273 C 
HETATM    2  N   UNL     1      25.563  44.227  49.790  1.00  0.00    -0.321 N 
HETATM    3  O   UNL     1      24.022  44.531  51.477  1.00  0.00    -0.266 OA
HETATM    4  H   UNL     1      26.209  44.831  49.299  1.00  0.00     0.169 HD
ENDROOT
BRANCH   1   5
HETATM    5  C   UNL     1      24.218  46.197  49.817  1.00  0.00     0.104 C 
HETATM    6  N   UNL     1      23.062  46.459  49.074  1.00  0.00    -0.345 N 
HETATM    7  C   UNL     1      22.136  45.441  48.625  1.00  0.00     0.156 C 
HETATM    8  C   UNL     1      23.018  47.785  48.814  1.00  0.00     0.060 A 
HETATM    9  C   UNL     1      24.208  48.389  49.171  1.00  0.00     0.012 A 
HETATM   10  C   UNL     1      22.021  48.541  48.265  1.00  0.00     0.039 A 
HETATM   11  C   UNL     1      24.378  49.759  48.884  1.00  0.00     0.132 A 
HETATM   12  C   UNL     1      24.969  47.375  49.801  1.00  0.00     0.050 C 
HETATM   13  N   UNL     1      23.408  50.522  48.297  1.00  0.00    -0.241 NA
HETATM   14  C   UNL     1      22.262  49.874  48.030  1.00  0.00     0.139 A 
HETATM   15  N   UNL     1      21.119  50.394  47.491  1.00  0.00    -0.350 N 
HETATM   16  H   UNL     1      21.014  51.359  47.216  1.00  0.00     0.166 HD
HETATM   17  C   UNL     1      20.151  49.411  47.427  1.00  0.00     0.091 A 
HETATM   18  C   UNL     1      20.685  48.230  47.917  1.00  0.00     0.034 A 
ENDBRANCH   1   5
BRANCH   2  19
HETATM   19  C   UNL     1      26.089  43.005  50.267  1.00  0.00     0.043 A 
HETATM   20  C   UNL     1      27.154  42.905  51.181  1.00  0.00    -0.007 A 
HETATM   21  C   UNL     1      27.655  41.625  51.495  1.00  0.00     0.011 A 
HETATM   22  C   UNL     1      27.075  40.473  50.965  1.00  0.00     0.001 A 
HETATM   23  C   UNL     1      25.970  40.578  50.129  1.00  0.00     0.002 A 
HETATM   24  C   UNL     1      25.474  41.837  49.790  1.00  0.00     0.030 A 
BRANCH  20  25
HETATM   25  C   UNL     1      27.703  44.079  51.966  1.00  0.00     0.216 C 
BRANCH  25  26
HETATM   26  O   UNL     1      27.346  43.971  53.347  1.00  0.00    -0.347 OA
BRANCH  26  27
HETATM   27  C   UNL     1      28.405  44.191  54.188  1.00  0.00     0.069 A 
HETATM   28  C   UNL     1      28.543  45.340  54.968  1.00  0.00     0.037 A 
HETATM   29  C   UNL     1      29.644  45.477  55.817  1.00  0.00     0.003 A 
HETATM   30  C   UNL     1      30.597  44.462  55.896  1.00  0.00     0.000 A 
HETATM   31  C   UNL     1      30.447  43.305  55.132  1.00  0.00     0.003 A 
HETATM   32  C   UNL     1      29.348  43.167  54.284  1.00  0.00     0.037 A 
ENDBRANCH  26  27
ENDBRANCH  25  26
ENDBRANCH  20  25
ENDBRANCH   2  19
TORSDOF 5
ENDMDL
MODEL 8
REMARK VINA RESULT:      -9.0      2.884      3.956
REMARK  5 active torsions:
REMARK  status: ('A' for Active; 'I' for Inactive)
REMARK    1  A    between atoms: C_14  and  C_15 
REMARK       I    between atoms: C_15  and  N_16 
REMARK    2  A    between atoms: N_16  and  C_17 
REMARK    3  A    between atoms: C_18  and  C_19 
REMARK    4  A    between atoms: C_19  and  O_20 
REMARK    5  A    between atoms: O_20  and  C_21 
ROOT
HETATM    1  C   UNL     1      25.215  45.733  50.252  1.00  0.00     0.273 C 
HETATM    2  N   UNL     1      23.826  45.705  50.217  1.00  0.00    -0.321 N 
HETATM    3  O   UNL     1      25.917  45.660  49.250  1.00  0.00    -0.266 OA
HETATM    4  H   UNL     1      23.393  46.247  50.953  1.00  0.00     0.169 HD
ENDROOT
BRANCH   1   5
HETATM    5  C   UNL     1      25.762  45.957  51.587  1.00  0.00     0.104 C 
HETATM    6  N   UNL     1      26.613  45.077  52.265  1.00  0.00    -0.345 N 
HETATM    7  C   UNL     1      26.888  43.722  51.838  1.00  0.00     0.156 C 
HETATM    8  C   UNL     1      27.053  45.694  53.385  1.00  0.00     0.060 A 
HETATM    9  C   UNL     1      26.365  46.873  53.591  1.00  0.00     0.012 A 
HETATM   10  C   UNL     1      28.012  45.312  54.280  1.00  0.00     0.039 A 
HETATM   11  C   UNL     1      26.627  47.606  54.767  1.00  0.00     0.132 A 
HETATM   12  C   UNL     1      25.542  47.032  52.450  1.00  0.00     0.050 C 
HETATM   13  N   UNL     1      27.553  47.218  55.694  1.00  0.00    -0.241 NA
HETATM   14  C   UNL     1      28.217  46.089  55.394  1.00  0.00     0.139 A 
HETATM   15  N   UNL     1      29.219  45.499  56.111  1.00  0.00    -0.350 N 
HETATM   16  H   UNL     1      29.574  45.857  56.985  1.00  0.00     0.166 HD
HETATM   17  C   UNL     1      29.673  44.383  55.435  1.00  0.00     0.091 A 
HETATM   18  C   UNL     1      28.938  44.242  54.269  1.00  0.00     0.034 A 
ENDBRANCH   1   5
BRANCH   2  19
HETATM   19  C   UNL     1      23.089  45.578  49.017  1.00  0.00     0.043 A 
HETATM   20  C   UNL     1      22.585  46.666  48.281  1.00  0.00    -0.007 A 
HETATM   21  C   UNL     1      21.774  46.401  47.158  1.00  0.00     0.011 A 
HETATM   22  C   UNL     1      21.520  45.094  46.743  1.00  0.00     0.001 A 
HETATM   23  C   UNL     1      22.092  44.029  47.428  1.00  0.00     0.002 A 
HETATM   24  C   UNL     1      22.879  44.270  48.553  1.00  0.00     0.030 A 
BRANCH  20  25
HETATM   25  C   UNL     1      22.980  48.107  48.529  1.00  0.00     0.216 C 
BRANCH  25  26
HETATM   26  O   UNL     1      22.385  48.966  47.553  1.00  0.00    -0.347 OA
BRANCH  26  27
HETATM   27  C   UNL     1      21.504  49.862  48.101  1.00  0.00     0.069 A 
HETATM   28  C   UNL     1      20.445  50.432  47.392  1.00  0.00     0.037 A 
HETATM   29  C   UNL     1      19.578  51.321  48.032  1.00  0.00     0.003 A 
HETATM   30  C   UNL     1      19.763  51.631  49.379  1.00  0.00     0.000 A 
HETATM   31  C   UNL     1      20.808  51.045  50.092  1.00  0.00     0.003 A 
HETATM   32  C   UNL     1      21.674  50.155  49.454  1.00  0.00     0.037 A 
ENDBRANCH  26  27
ENDBRANCH  25  26
ENDBRANCH  20  25
ENDBRANCH   2  19
TORSDOF 5
ENDMDL
MODEL 9
REMARK VINA RESULT:      -8.9      1.704      2.176
REMARK  5 active torsions:
REMARK  status: ('A' for Active; 'I' for Inactive)
REMARK    1  A    between atoms: C_14  and  C_15 
REMARK       I    between atoms: C_15  and  N_16 
REMARK    2  A    between atoms: N_16  and  C_17 
REMARK    3  A    between atoms: C_18  and  C_19 
REMARK    4  A    between atoms: C_19  and  O_20 
REMARK    5  A    between atoms: O_20  and  C_21 
ROOT
HETATM    1  C   UNL     1      26.316  44.253  50.885  1.00  0.00     0.273 C 
HETATM    2  N   UNL     1      24.948  44.013  50.933  1.00  0.00    -0.321 N 
HETATM    3  O   UNL     1      26.968  44.244  49.847  1.00  0.00    -0.266 OA
HETATM    4  H   UNL     1      24.476  44.515  51.674  1.00  0.00     0.169 HD
ENDROOT
BRANCH   1   5
HETATM    5  C   UNL     1      26.892  44.616  52.177  1.00  0.00     0.104 C 
HETATM    6  N   UNL     1      27.830  43.854  52.881  1.00  0.00    -0.345 N 
HETATM    7  C   UNL     1      28.193  42.495  52.541  1.00  0.00     0.156 C 
HETATM    8  C   UNL     1      28.262  44.583  53.935  1.00  0.00     0.060 A 
HETATM    9  C   UNL     1      27.493  45.721  54.084  1.00  0.00     0.012 A 
HETATM   10  C   UNL     1      29.279  44.340  54.815  1.00  0.00     0.039 A 
HETATM   11  C   UNL     1      27.741  46.557  55.193  1.00  0.00     0.132 A 
HETATM   12  C   UNL     1      26.621  45.733  52.969  1.00  0.00     0.050 C 
HETATM   13  N   UNL     1      28.725  46.308  56.107  1.00  0.00    -0.241 NA
HETATM   14  C   UNL     1      29.463  45.212  55.861  1.00  0.00     0.139 A 
HETATM   15  N   UNL     1      30.532  44.752  56.577  1.00  0.00    -0.350 N 
HETATM   16  H   UNL     1      30.889  45.200  57.407  1.00  0.00     0.166 HD
HETATM   17  C   UNL     1      31.046  43.625  55.964  1.00  0.00     0.091 A 
HETATM   18  C   UNL     1      30.283  43.344  54.842  1.00  0.00     0.034 A 
ENDBRANCH   1   5
BRANCH   2  19
HETATM   19  C   UNL     1      24.177  43.724  49.784  1.00  0.00     0.043 A 
HETATM   20  C   UNL     1      23.454  44.686  49.054  1.00  0.00    -0.007 A 
HETATM   21  C   UNL     1      22.639  44.251  47.990  1.00  0.00     0.011 A 
HETATM   22  C   UNL     1      22.588  42.907  47.621  1.00  0.00     0.001 A 
HETATM   23  C   UNL     1      23.371  41.976  48.295  1.00  0.00     0.002 A 
HETATM   24  C   UNL     1      24.168  42.385  49.364  1.00  0.00     0.030 A 
BRANCH  20  25
HETATM   25  C   UNL     1      23.611  46.181  49.244  1.00  0.00     0.216 C 
BRANCH  25  26
HETATM   26  O   UNL     1      22.603  46.888  48.516  1.00  0.00    -0.347 OA
BRANCH  26  27
HETATM   27  C   UNL     1      22.679  48.246  48.687  1.00  0.00     0.069 A 
HETATM   28  C   UNL     1      21.594  49.035  49.072  1.00  0.00     0.037 A 
HETATM   29  C   UNL     1      21.761  50.411  49.246  1.00  0.00     0.003 A 
HETATM   30  C   UNL     1      23.012  50.994  49.047  1.00  0.00     0.000 A 
HETATM   31  C   UNL     1      24.100  50.202  48.684  1.00  0.00     0.003 A 
HETATM   32  C   UNL     1      23.935  48.827  48.511  1.00  0.00     0.037 A 
ENDBRANCH  26  27
ENDBRANCH  25  26
ENDBRANCH  20  25
ENDBRANCH   2  19
TORSDOF 5
ENDMDL
MODEL 10
REMARK VINA RESULT:      -8.9      3.411      7.993
REMARK  5 active torsions:
REMARK  status: ('A' for Active; 'I' for Inactive)
REMARK    1  A    between atoms: C_14  and  C_15 
REMARK       I    between atoms: C_15  and  N_16 
REMARK    2  A    between atoms: N_16  and  C_17 
REMARK    3  A    between atoms: C_18  and  C_19 
REMARK    4  A    between atoms: C_19  and  O_20 
REMARK    5  A    between atoms: O_20  and  C_21 
ROOT
HETATM    1  C   UNL     1      25.681  42.551  49.769  1.00  0.00     0.273 C 
HETATM    2  N   UNL     1      26.918  42.284  49.195  1.00  0.00    -0.321 N 
HETATM    3  O   UNL     1      25.009  41.708  50.351  1.00  0.00    -0.266 OA
HETATM    4  H   UNL     1      27.550  43.073  49.212  1.00  0.00     0.169 HD
ENDROOT
BRANCH   1   5
HETATM    5  C   UNL     1      25.296  43.959  49.700  1.00  0.00     0.104 C 
HETATM    6  N   UNL     1      24.266  44.473  48.905  1.00  0.00    -0.345 N 
HETATM    7  C   UNL     1      23.586  43.722  47.871  1.00  0.00     0.156 C 
HETATM    8  C   UNL     1      24.086  45.772  49.234  1.00  0.00     0.060 A 
HETATM    9  C   UNL     1      25.097  46.205  50.070  1.00  0.00     0.012 A 
HETATM   10  C   UNL     1      23.109  46.647  48.855  1.00  0.00     0.039 A 
HETATM   11  C   UNL     1      25.124  47.564  50.442  1.00  0.00     0.132 A 
HETATM   12  C   UNL     1      25.866  45.051  50.357  1.00  0.00     0.050 C 
HETATM   13  N   UNL     1      24.179  48.465  50.038  1.00  0.00    -0.241 NA
HETATM   14  C   UNL     1      23.200  47.954  49.273  1.00  0.00     0.139 A 
HETATM   15  N   UNL     1      22.112  48.608  48.769  1.00  0.00    -0.350 N 
HETATM   16  H   UNL     1      21.924  49.588  48.918  1.00  0.00     0.166 HD
HETATM   17  C   UNL     1      21.316  47.715  48.078  1.00  0.00     0.091 A 
HETATM   18  C   UNL     1      21.913  46.465  48.121  1.00  0.00     0.034 A 
ENDBRANCH   1   5
BRANCH   2  19
HETATM   19  C   UNL     1      27.516  41.003  49.221  1.00  0.00     0.043 A 
HETATM   20  C   UNL     1      28.256  40.497  50.306  1.00  0.00    -0.007 A 
HETATM   21  C   UNL     1      28.891  39.247  50.164  1.00  0.00     0.011 A 
HETATM   22  C   UNL     1      28.748  38.492  49.000  1.00  0.00     0.001 A 
HETATM   23  C   UNL     1      27.946  38.963  47.966  1.00  0.00     0.002 A 
HETATM   24  C   UNL     1      27.327  40.207  48.080  1.00  0.00     0.030 A 
BRANCH  20  25
HETATM   25  C   UNL     1      28.291  41.144  51.676  1.00  0.00     0.216 C 
BRANCH  25  26
HETATM   26  O   UNL     1      28.684  42.515  51.574  1.00  0.00    -0.347 OA
BRANCH  26  27
HETATM   27  C   UNL     1      29.033  43.059  52.782  1.00  0.00     0.069 A 
HETATM   28  C   UNL     1      30.200  42.720  53.470  1.00  0.00     0.037 A 
HETATM   29  C   UNL     1      30.494  43.337  54.688  1.00  0.00     0.003 A 
HETATM   30  C   UNL     1      29.630  44.299  55.211  1.00  0.00     0.000 A 
HETATM   31  C   UNL     1      28.476  44.652  54.513  1.00  0.00     0.003 A 
HETATM   32  C   UNL     1      28.182  44.037  53.295  1.00  0.00     0.037 A 
ENDBRANCH  26  27
ENDBRANCH  25  26
ENDBRANCH  20  25
ENDBRANCH   2  19
TORSDOF 5
ENDMDL
