MODEL 1
REMARK VINA RESULT:      -8.5      0.000      0.000
REMARK  4 active torsions:
REMARK  status: ('A' for Active; 'I' for Inactive)
REMARK    1  A    between atoms: C_5  and  C_6 
REMARK    2  A    between atoms: C_6  and  N_7 
REMARK    3  A    between atoms: C_6  and  C_18 
REMARK    4  A    between atoms: N_7  and  C_8 
ROOT
HETATM    1  C   UNL     1      26.097  46.067  51.335  1.00  0.00     0.288 C 
ENDROOT
BRANCH   1   2
HETATM    2  C   UNL     1      25.851  47.267  50.432  1.00  0.00    -0.003 A 
HETATM    3  C   UNL     1      24.543  47.689  50.194  1.00  0.00     0.126 A 
HETATM    4  N   UNL     1      24.205  48.720  49.389  1.00  0.00    -0.272 NA
HETATM    5  C   UNL     1      25.211  49.390  48.795  1.00  0.00     0.116 A 
HETATM    6  C   UNL     1      26.545  49.061  48.956  1.00  0.00     0.020 A 
HETATM    7  C   UNL     1      26.865  47.982  49.780  1.00  0.00     0.012 A 
ENDBRANCH   1   2
BRANCH   1   8
HETATM    8  N   UNL     1      25.529  46.256  52.695  1.00  0.00     0.101 NA
HETATM    9  H   UNL     1      24.653  45.727  52.711  1.00  0.00     0.317 HD
BRANCH   8  10
HETATM   10  C   UNL     1      26.332  45.904  53.873  1.00  0.00     0.225 C 
HETATM   11  C   UNL     1      27.445  44.874  53.585  1.00  0.00     0.069 C 
HETATM   12  C   UNL     1      28.326  44.694  54.806  1.00  0.00     0.190 C 
HETATM   13  N   UNL     1      28.928  46.023  55.161  1.00  0.00    -0.067 N 
HETATM   14  C   UNL     1      29.568  43.842  54.637  1.00  0.00     0.035 C 
HETATM   15  H   UNL     1      29.387  46.399  54.316  1.00  0.00     0.280 HD
HETATM   16  C   UNL     1      27.896  47.015  55.581  1.00  0.00     0.237 C 
HETATM   17  C   UNL     1      30.037  45.720  56.135  1.00  0.00     0.235 C 
HETATM   18  C   UNL     1      26.942  47.226  54.407  1.00  0.00     0.063 C 
HETATM   19  C   UNL     1      30.444  44.283  55.808  1.00  0.00     0.030 C 
ENDBRANCH   8  10
ENDBRANCH   1   8
BRANCH   1  20
HETATM   20  C   UNL     1      25.893  44.660  50.761  1.00  0.00    -0.021 A 
HETATM   21  C   UNL     1      26.848  44.005  49.961  1.00  0.00     0.012 A 
HETATM   22  C   UNL     1      26.622  42.709  49.484  1.00  0.00     0.043 A 
HETATM   23  C   UNL     1      25.456  42.041  49.830  1.00  0.00     0.116 A 
HETATM   24  F   UNL     1      25.240  40.804  49.369  1.00  0.00    -0.206 F 
HETATM   25  C   UNL     1      24.517  42.636  50.659  1.00  0.00     0.043 A 
HETATM   26  C   UNL     1      24.741  43.930  51.131  1.00  0.00     0.012 A 
ENDBRANCH   1  20
TORSDOF 4
ENDMDL
MODEL 2
REMARK VINA RESULT:      -8.5      2.756      5.058
REMARK  4 active torsions:
REMARK  status: ('A' for Active; 'I' for Inactive)
REMARK    1  A    between atoms: C_5  and  C_6 
REMARK    2  A    between atoms: C_6  and  N_7 
REMARK    3  A    between atoms: C_6  and  C_18 
REMARK    4  A    between atoms: N_7  and  C_8 
ROOT
HETATM    1  C   UNL     1      27.257  43.419  52.068  1.00  0.00     0.288 C 
ENDROOT
BRANCH   1   2
HETATM    2  C   UNL     1      27.127  42.106  51.309  1.00  0.00    -0.003 A 
HETATM    3  C   UNL     1      28.228  41.253  51.222  1.00  0.00     0.126 A 
HETATM    4  N   UNL     1      28.237  40.080  50.552  1.00  0.00    -0.272 NA
HETATM    5  C   UNL     1      27.092  39.712  49.944  1.00  0.00     0.116 A 
HETATM    6  C   UNL     1      25.940  40.477  49.962  1.00  0.00     0.020 A 
HETATM    7  C   UNL     1      25.963  41.691  50.648  1.00  0.00     0.012 A 
ENDBRANCH   1   2
BRANCH   1   8
HETATM    8  N   UNL     1      28.613  43.606  52.647  1.00  0.00     0.101 NA
HETATM    9  H   UNL     1      29.006  44.429  52.185  1.00  0.00     0.317 HD
BRANCH   8  10
HETATM   10  C   UNL     1      28.769  43.742  54.100  1.00  0.00     0.225 C 
HETATM   11  C   UNL     1      30.158  43.316  54.622  1.00  0.00     0.069 C 
HETATM   12  C   UNL     1      30.292  43.642  56.097  1.00  0.00     0.190 C 
HETATM   13  N   UNL     1      30.101  45.122  56.278  1.00  0.00    -0.067 N 
HETATM   14  C   UNL     1      31.656  43.441  56.725  1.00  0.00     0.035 C 
HETATM   15  H   UNL     1      30.752  45.605  55.640  1.00  0.00     0.280 HD
HETATM   16  C   UNL     1      28.722  45.559  55.915  1.00  0.00     0.237 C 
HETATM   17  C   UNL     1      30.582  45.426  57.673  1.00  0.00     0.235 C 
HETATM   18  C   UNL     1      28.497  45.230  54.441  1.00  0.00     0.063 C 
HETATM   19  C   UNL     1      31.587  44.314  57.976  1.00  0.00     0.030 C 
ENDBRANCH   8  10
ENDBRANCH   1   8
BRANCH   1  20
HETATM   20  C   UNL     1      26.659  44.688  51.450  1.00  0.00    -0.021 A 
HETATM   21  C   UNL     1      25.692  45.481  52.097  1.00  0.00     0.012 A 
HETATM   22  C   UNL     1      25.199  46.646  51.498  1.00  0.00     0.043 A 
HETATM   23  C   UNL     1      25.691  47.049  50.265  1.00  0.00     0.116 A 
HETATM   24  F   UNL     1      25.213  48.161  49.693  1.00  0.00    -0.206 F 
HETATM   25  C   UNL     1      26.681  46.321  49.624  1.00  0.00     0.043 A 
HETATM   26  C   UNL     1      27.170  45.157  50.218  1.00  0.00     0.012 A 
ENDBRANCH   1  20
TORSDOF 4
ENDMDL
MODEL 3
REMARK VINA RESULT:      -8.4      3.814      6.878
REMARK  4 active torsions:
REMARK  status: ('A' for Active; 'I' for Inactive)
REMARK    1  A    between atoms: C_5  and  C_6 
REMARK    2  A    between atoms: C_6  and  N_7 
REMARK    3  A    between atoms: C_6  and  C_18 
REMARK    4  A    between atoms: N_7  and  C_8 
ROOT
HETATM    1  C   UNL     1      27.081  42.939  52.913  1.00  0.00     0.288 C 
ENDROOT
BRANCH   1   2
HETATM    2  C   UNL     1      26.635  43.778  51.724  1.00  0.00    -0.003 A 
HETATM    3  C   UNL     1      27.595  44.307  50.861  1.00  0.00     0.126 A 
HETATM    4  N   UNL     1      27.318  45.089  49.794  1.00  0.00    -0.272 NA
HETATM    5  C   UNL     1      26.020  45.354  49.549  1.00  0.00     0.116 A 
HETATM    6  C   UNL     1      24.985  44.885  50.336  1.00  0.00     0.020 A 
HETATM    7  C   UNL     1      25.300  44.093  51.440  1.00  0.00     0.012 A 
ENDBRANCH   1   2
BRANCH   1   8
HETATM    8  N   UNL     1      27.185  41.494  52.578  1.00  0.00     0.101 NA
HETATM    9  H   UNL     1      26.320  41.064  52.913  1.00  0.00     0.317 HD
BRANCH   8  10
HETATM   10  C   UNL     1      27.426  41.086  51.189  1.00  0.00     0.225 C 
HETATM   11  C   UNL     1      28.564  40.055  51.028  1.00  0.00     0.069 C 
HETATM   12  C   UNL     1      28.636  39.566  49.595  1.00  0.00     0.190 C 
HETATM   13  N   UNL     1      27.316  38.943  49.236  1.00  0.00    -0.067 N 
HETATM   14  C   UNL     1      29.590  38.426  49.305  1.00  0.00     0.035 C 
HETATM   15  H   UNL     1      27.097  38.234  49.952  1.00  0.00     0.280 HD
HETATM   16  C   UNL     1      26.204  39.938  49.243  1.00  0.00     0.237 C 
HETATM   17  C   UNL     1      27.560  38.182  47.959  1.00  0.00     0.235 C 
HETATM   18  C   UNL     1      26.091  40.505  50.657  1.00  0.00     0.063 C 
HETATM   19  C   UNL     1      29.055  37.860  47.991  1.00  0.00     0.030 C 
ENDBRANCH   8  10
ENDBRANCH   1   8
BRANCH   1  20
HETATM   20  C   UNL     1      28.219  43.461  53.797  1.00  0.00    -0.021 A 
HETATM   21  C   UNL     1      28.123  44.633  54.570  1.00  0.00     0.012 A 
HETATM   22  C   UNL     1      29.184  45.050  55.381  1.00  0.00     0.043 A 
HETATM   23  C   UNL     1      30.338  44.284  55.455  1.00  0.00     0.116 A 
HETATM   24  F   UNL     1      31.353  44.688  56.228  1.00  0.00    -0.206 F 
HETATM   25  C   UNL     1      30.447  43.096  54.748  1.00  0.00     0.043 A 
HETATM   26  C   UNL     1      29.391  42.682  53.936  1.00  0.00     0.012 A 
ENDBRANCH   1  20
TORSDOF 4
ENDMDL
MODEL 4
REMARK VINA RESULT:      -8.2      2.692      4.855
REMARK  4 active torsions:
REMARK  status: ('A' for Active; 'I' for Inactive)
REMARK    1  A    between atoms: C_5  and  C_6 
REMARK    2  A    between atoms: C_6  and  N_7 
REMARK    3  A    between atoms: C_6  and  C_18 
REMARK    4  A    between atoms: N_7  and  C_8 
ROOT
HETATM    1  C   UNL     1      25.850  43.158  51.540  1.00  0.00     0.288 C 
ENDROOT
BRANCH   1   2
HETATM    2  C   UNL     1      26.037  42.045  50.519  1.00  0.00    -0.003 A 
HETATM    3  C   UNL     1      25.011  41.763  49.617  1.00  0.00     0.126 A 
HETATM    4  N   UNL     1      25.054  40.782  48.689  1.00  0.00    -0.272 NA
HETATM    5  C   UNL     1      26.179  40.042  48.631  1.00  0.00     0.116 A 
HETATM    6  C   UNL     1      27.259  40.230  49.474  1.00  0.00     0.020 A 
HETATM    7  C   UNL     1      27.181  41.240  50.433  1.00  0.00     0.012 A 
ENDBRANCH   1   2
BRANCH   1   8
HETATM    8  N   UNL     1      26.487  42.842  52.845  1.00  0.00     0.101 NA
HETATM    9  H   UNL     1      26.663  41.834  52.836  1.00  0.00     0.317 HD
BRANCH   8  10
HETATM   10  C   UNL     1      27.711  43.547  53.246  1.00  0.00     0.225 C 
HETATM   11  C   UNL     1      27.526  44.478  54.462  1.00  0.00     0.069 C 
HETATM   12  C   UNL     1      28.864  45.034  54.910  1.00  0.00     0.190 C 
HETATM   13  N   UNL     1      29.763  43.886  55.268  1.00  0.00    -0.067 N 
HETATM   14  C   UNL     1      28.880  45.835  56.197  1.00  0.00     0.035 C 
HETATM   15  H   UNL     1      29.263  43.292  55.948  1.00  0.00     0.280 HD
HETATM   16  C   UNL     1      30.083  43.032  54.087  1.00  0.00     0.237 C 
HETATM   17  C   UNL     1      30.919  44.493  56.020  1.00  0.00     0.235 C 
HETATM   18  C   UNL     1      28.772  42.458  53.554  1.00  0.00     0.063 C 
HETATM   19  C   UNL     1      30.348  45.782  56.612  1.00  0.00     0.030 C 
ENDBRANCH   8  10
ENDBRANCH   1   8
BRANCH   1  20
HETATM   20  C   UNL     1      26.038  44.611  51.087  1.00  0.00    -0.021 A 
HETATM   21  C   UNL     1      26.875  44.987  50.020  1.00  0.00     0.012 A 
HETATM   22  C   UNL     1      26.989  46.326  49.632  1.00  0.00     0.043 A 
HETATM   23  C   UNL     1      26.242  47.299  50.281  1.00  0.00     0.116 A 
HETATM   24  F   UNL     1      26.357  48.579  49.910  1.00  0.00    -0.206 F 
HETATM   25  C   UNL     1      25.369  46.958  51.302  1.00  0.00     0.043 A 
HETATM   26  C   UNL     1      25.258  45.623  51.693  1.00  0.00     0.012 A 
ENDBRANCH   1  20
TORSDOF 4
ENDMDL
MODEL 5
REMARK VINA RESULT:      -8.0      2.324      6.543
REMARK  4 active torsions:
REMARK  status: ('A' for Active; 'I' for Inactive)
REMARK    1  A    between atoms: C_5  and  C_6 
REMARK    2  A    between atoms: C_6  and  N_7 
REMARK    3  A    between atoms: C_6  and  C_18 
REMARK    4  A    between atoms: N_7  and  C_8 
ROOT
HETATM    1  C   UNL     1      26.793  44.846  51.070  1.00  0.00     0.288 C 
ENDROOT
BRANCH   1   2
HETATM    2  C   UNL     1      25.728  43.919  50.503  1.00  0.00    -0.003 A 
HETATM    3  C   UNL     1      24.539  43.728  51.208  1.00  0.00     0.126 A 
HETATM    4  N   UNL     1      23.539  42.908  50.815  1.00  0.00    -0.272 NA
HETATM    5  C   UNL     1      23.707  42.249  49.653  1.00  0.00     0.116 A 
HETATM    6  C   UNL     1      24.843  42.360  48.871  1.00  0.00     0.020 A 
HETATM    7  C   UNL     1      25.866  43.200  49.308  1.00  0.00     0.012 A 
ENDBRANCH   1   2
BRANCH   1   8
HETATM    8  N   UNL     1      26.311  46.246  51.206  1.00  0.00     0.101 NA
HETATM    9  H   UNL     1      27.086  46.772  51.617  1.00  0.00     0.317 HD
BRANCH   8  10
HETATM   10  C   UNL     1      25.809  46.959  50.025  1.00  0.00     0.225 C 
HETATM   11  C   UNL     1      24.324  47.368  50.126  1.00  0.00     0.069 C 
HETATM   12  C   UNL     1      23.934  48.238  48.948  1.00  0.00     0.190 C 
HETATM   13  N   UNL     1      24.810  49.459  48.945  1.00  0.00    -0.067 N 
HETATM   14  C   UNL     1      22.555  48.864  48.981  1.00  0.00     0.035 C 
HETATM   15  H   UNL     1      24.747  49.895  49.878  1.00  0.00     0.280 HD
HETATM   16  C   UNL     1      26.245  49.122  48.711  1.00  0.00     0.237 C 
HETATM   17  C   UNL     1      24.158  50.425  47.990  1.00  0.00     0.235 C 
HETATM   18  C   UNL     1      26.705  48.212  49.848  1.00  0.00     0.063 C 
HETATM   19  C   UNL     1      22.683  50.023  47.995  1.00  0.00     0.030 C 
ENDBRANCH   8  10
ENDBRANCH   1   8
BRANCH   1  20
HETATM   20  C   UNL     1      27.640  44.358  52.252  1.00  0.00    -0.021 A 
HETATM   21  C   UNL     1      27.430  44.777  53.579  1.00  0.00     0.012 A 
HETATM   22  C   UNL     1      28.216  44.279  54.624  1.00  0.00     0.043 A 
HETATM   23  C   UNL     1      29.196  43.333  54.359  1.00  0.00     0.116 A 
HETATM   24  F   UNL     1      29.949  42.862  55.360  1.00  0.00    -0.206 F 
HETATM   25  C   UNL     1      29.395  42.859  53.072  1.00  0.00     0.043 A 
HETATM   26  C   UNL     1      28.614  43.358  52.029  1.00  0.00     0.012 A 
ENDBRANCH   1  20
TORSDOF 4
ENDMDL
MODEL 6
REMARK VINA RESULT:      -7.9     11.679     13.239
REMARK  4 active torsions:
REMARK  status: ('A' for Active; 'I' for Inactive)
REMARK    1  A    between atoms: C_5  and  C_6 
REMARK    2  A    between atoms: C_6  and  N_7 
REMARK    3  A    between atoms: C_6  and  C_18 
REMARK    4  A    between atoms: N_7  and  C_8 
ROOT
HETATM    1  C   UNL     1      29.354  49.123  41.558  1.00  0.00     0.288 C 
ENDROOT
BRANCH   1   2
HETATM    2  C   UNL     1      29.033  47.810  40.859  1.00  0.00    -0.003 A 
HETATM    3  C   UNL     1      27.780  47.224  41.042  1.00  0.00     0.126 A 
HETATM    4  N   UNL     1      27.397  46.049  40.496  1.00  0.00    -0.272 NA
HETATM    5  C   UNL     1      28.291  45.418  39.710  1.00  0.00     0.116 A 
HETATM    6  C   UNL     1      29.561  45.903  39.459  1.00  0.00     0.020 A 
HETATM    7  C   UNL     1      29.936  47.110  40.047  1.00  0.00     0.012 A 
ENDBRANCH   1   2
BRANCH   1   8
HETATM    8  N   UNL     1      30.568  49.030  42.411  1.00  0.00     0.101 NA
HETATM    9  H   UNL     1      30.868  48.053  42.367  1.00  0.00     0.317 HD
BRANCH   8  10
HETATM   10  C   UNL     1      31.715  49.904  42.139  1.00  0.00     0.225 C 
HETATM   11  C   UNL     1      32.228  50.665  43.380  1.00  0.00     0.069 C 
HETATM   12  C   UNL     1      33.507  51.410  43.052  1.00  0.00     0.190 C 
HETATM   13  N   UNL     1      34.535  50.416  42.590  1.00  0.00    -0.067 N 
HETATM   14  C   UNL     1      34.233  52.072  44.205  1.00  0.00     0.035 C 
HETATM   15  H   UNL     1      34.606  49.678  43.308  1.00  0.00     0.280 HD
HETATM   16  C   UNL     1      34.142  49.753  41.313  1.00  0.00     0.237 C 
HETATM   17  C   UNL     1      35.851  51.149  42.617  1.00  0.00     0.235 C 
HETATM   18  C   UNL     1      32.834  49.003  41.555  1.00  0.00     0.063 C 
HETATM   19  C   UNL     1      35.649  52.249  43.660  1.00  0.00     0.030 C 
ENDBRANCH   8  10
ENDBRANCH   1   8
BRANCH   1  20
HETATM   20  C   UNL     1      29.249  50.428  40.758  1.00  0.00    -0.021 A 
HETATM   21  C   UNL     1      29.491  50.507  39.374  1.00  0.00     0.012 A 
HETATM   22  C   UNL     1      29.355  51.719  38.688  1.00  0.00     0.043 A 
HETATM   23  C   UNL     1      28.944  52.855  39.370  1.00  0.00     0.116 A 
HETATM   24  F   UNL     1      28.820  54.014  38.712  1.00  0.00    -0.206 F 
HETATM   25  C   UNL     1      28.647  52.802  40.723  1.00  0.00     0.043 A 
HETATM   26  C   UNL     1      28.786  51.594  41.408  1.00  0.00     0.012 A 
ENDBRANCH   1  20
TORSDOF 4
ENDMDL
MODEL 7
REMARK VINA RESULT:      -7.8      4.136      7.342
REMARK  4 active torsions:
REMARK  status: ('A' for Active; 'I' for Inactive)
REMARK    1  A    between atoms: C_5  and  C_6 
REMARK    2  A    between atoms: C_6  and  N_7 
REMARK    3  A    between atoms: C_6  and  C_18 
REMARK    4  A    between atoms: N_7  and  C_8 
ROOT
HETATM    1  C   UNL     1      27.880  42.419  52.061  1.00  0.00     0.288 C 
ENDROOT
BRANCH   1   2
HETATM    2  C   UNL     1      26.939  43.276  51.227  1.00  0.00    -0.003 A 
HETATM    3  C   UNL     1      25.570  43.004  51.242  1.00  0.00     0.126 A 
HETATM    4  N   UNL     1      24.647  43.679  50.522  1.00  0.00    -0.272 NA
HETATM    5  C   UNL     1      25.091  44.691  49.752  1.00  0.00     0.116 A 
HETATM    6  C   UNL     1      26.423  45.049  49.657  1.00  0.00     0.020 A 
HETATM    7  C   UNL     1      27.357  44.327  50.400  1.00  0.00     0.012 A 
ENDBRANCH   1   2
BRANCH   1   8
HETATM    8  N   UNL     1      28.754  41.557  51.222  1.00  0.00     0.101 NA
HETATM    9  H   UNL     1      29.424  41.126  51.863  1.00  0.00     0.317 HD
BRANCH   8  10
HETATM   10  C   UNL     1      28.152  40.519  50.376  1.00  0.00     0.225 C 
HETATM   11  C   UNL     1      28.183  40.847  48.868  1.00  0.00     0.069 C 
HETATM   12  C   UNL     1      27.698  39.660  48.059  1.00  0.00     0.190 C 
HETATM   13  N   UNL     1      28.588  38.485  48.353  1.00  0.00    -0.067 N 
HETATM   14  C   UNL     1      27.824  39.757  46.552  1.00  0.00     0.035 C 
HETATM   15  H   UNL     1      29.564  38.781  48.194  1.00  0.00     0.280 HD
HETATM   16  C   UNL     1      28.486  38.044  49.774  1.00  0.00     0.237 C 
HETATM   17  C   UNL     1      28.283  37.467  47.285  1.00  0.00     0.235 C 
HETATM   18  C   UNL     1      28.928  39.207  50.660  1.00  0.00     0.063 C 
HETATM   19  C   UNL     1      27.762  38.296  46.110  1.00  0.00     0.030 C 
ENDBRANCH   8  10
ENDBRANCH   1   8
BRANCH   1  20
HETATM   20  C   UNL     1      28.595  43.060  53.256  1.00  0.00    -0.021 A 
HETATM   21  C   UNL     1      29.881  42.679  53.683  1.00  0.00     0.012 A 
HETATM   22  C   UNL     1      30.499  43.316  54.765  1.00  0.00     0.043 A 
HETATM   23  C   UNL     1      29.854  44.362  55.409  1.00  0.00     0.116 A 
HETATM   24  F   UNL     1      30.445  44.965  56.447  1.00  0.00    -0.206 F 
HETATM   25  C   UNL     1      28.609  44.798  54.983  1.00  0.00     0.043 A 
HETATM   26  C   UNL     1      27.991  44.160  53.907  1.00  0.00     0.012 A 
ENDBRANCH   1  20
TORSDOF 4
ENDMDL
MODEL 8
REMARK VINA RESULT:      -7.8      2.901      6.945
REMARK  4 active torsions:
REMARK  status: ('A' for Active; 'I' for Inactive)
REMARK    1  A    between atoms: C_5  and  C_6 
REMARK    2  A    between atoms: C_6  and  N_7 
REMARK    3  A    between atoms: C_6  and  C_18 
REMARK    4  A    between atoms: N_7  and  C_8 
ROOT
HETATM    1  C   UNL     1      27.405  43.860  51.431  1.00  0.00     0.288 C 
ENDROOT
BRANCH   1   2
HETATM    2  C   UNL     1      27.025  42.586  50.690  1.00  0.00    -0.003 A 
HETATM    3  C   UNL     1      27.094  42.557  49.297  1.00  0.00     0.126 A 
HETATM    4  N   UNL     1      26.754  41.494  48.535  1.00  0.00    -0.272 NA
HETATM    5  C   UNL     1      26.337  40.386  49.179  1.00  0.00     0.116 A 
HETATM    6  C   UNL     1      26.229  40.300  50.555  1.00  0.00     0.020 A 
HETATM    7  C   UNL     1      26.571  41.417  51.316  1.00  0.00     0.012 A 
ENDBRANCH   1   2
BRANCH   1   8
HETATM    8  N   UNL     1      26.234  44.740  51.680  1.00  0.00     0.101 NA
HETATM    9  H   UNL     1      26.534  45.415  52.388  1.00  0.00     0.317 HD
BRANCH   8  10
HETATM   10  C   UNL     1      25.612  45.456  50.559  1.00  0.00     0.225 C 
HETATM   11  C   UNL     1      24.258  44.862  50.113  1.00  0.00     0.069 C 
HETATM   12  C   UNL     1      23.609  45.751  49.071  1.00  0.00     0.190 C 
HETATM   13  N   UNL     1      23.407  47.116  49.666  1.00  0.00    -0.067 N 
HETATM   14  C   UNL     1      22.196  45.400  48.650  1.00  0.00     0.035 C 
HETATM   15  H   UNL     1      22.894  47.001  50.554  1.00  0.00     0.280 HD
HETATM   16  C   UNL     1      24.700  47.787  49.987  1.00  0.00     0.237 C 
HETATM   17  C   UNL     1      22.465  47.831  48.733  1.00  0.00     0.235 C 
HETATM   18  C   UNL     1      25.434  46.927  51.013  1.00  0.00     0.063 C 
HETATM   19  C   UNL     1      21.684  46.707  48.050  1.00  0.00     0.030 C 
ENDBRANCH   8  10
ENDBRANCH   1   8
BRANCH   1  20
HETATM   20  C   UNL     1      28.378  43.762  52.612  1.00  0.00    -0.021 A 
HETATM   21  C   UNL     1      28.154  44.389  53.852  1.00  0.00     0.012 A 
HETATM   22  C   UNL     1      29.063  44.246  54.906  1.00  0.00     0.043 A 
HETATM   23  C   UNL     1      30.185  43.447  54.745  1.00  0.00     0.116 A 
HETATM   24  F   UNL     1      31.055  43.316  55.753  1.00  0.00    -0.206 F 
HETATM   25  C   UNL     1      30.411  42.773  53.555  1.00  0.00     0.043 A 
HETATM   26  C   UNL     1      29.507  42.919  52.502  1.00  0.00     0.012 A 
ENDBRANCH   1  20
TORSDOF 4
ENDMDL
MODEL 9
REMARK VINA RESULT:      -7.8      2.863      6.713
REMARK  4 active torsions:
REMARK  status: ('A' for Active; 'I' for Inactive)
REMARK    1  A    between atoms: C_5  and  C_6 
REMARK    2  A    between atoms: C_6  and  N_7 
REMARK    3  A    between atoms: C_6  and  C_18 
REMARK    4  A    between atoms: N_7  and  C_8 
ROOT
HETATM    1  C   UNL     1      26.922  43.125  51.638  1.00  0.00     0.288 C 
ENDROOT
BRANCH   1   2
HETATM    2  C   UNL     1      26.943  42.032  50.580  1.00  0.00    -0.003 A 
HETATM    3  C   UNL     1      27.208  42.369  49.252  1.00  0.00     0.126 A 
HETATM    4  N   UNL     1      27.224  41.489  48.226  1.00  0.00    -0.272 NA
HETATM    5  C   UNL     1      26.980  40.197  48.523  1.00  0.00     0.116 A 
HETATM    6  C   UNL     1      26.704  39.749  49.802  1.00  0.00     0.020 A 
HETATM    7  C   UNL     1      26.680  40.680  50.839  1.00  0.00     0.012 A 
ENDBRANCH   1   2
BRANCH   1   8
HETATM    8  N   UNL     1      25.570  43.318  52.226  1.00  0.00     0.101 NA
HETATM    9  H   UNL     1      25.714  43.425  53.233  1.00  0.00     0.317 HD
BRANCH   8  10
HETATM   10  C   UNL     1      24.715  44.406  51.738  1.00  0.00     0.225 C 
HETATM   11  C   UNL     1      25.494  45.664  51.296  1.00  0.00     0.069 C 
HETATM   12  C   UNL     1      24.557  46.668  50.654  1.00  0.00     0.190 C 
HETATM   13  N   UNL     1      23.902  46.020  49.467  1.00  0.00    -0.067 N 
HETATM   14  C   UNL     1      25.189  47.887  50.014  1.00  0.00     0.035 C 
HETATM   15  H   UNL     1      24.647  45.637  48.865  1.00  0.00     0.280 HD
HETATM   16  C   UNL     1      23.025  44.879  49.862  1.00  0.00     0.237 C 
HETATM   17  C   UNL     1      23.272  47.143  48.686  1.00  0.00     0.235 C 
HETATM   18  C   UNL     1      23.897  43.833  50.552  1.00  0.00     0.063 C 
HETATM   19  C   UNL     1      24.101  48.373  49.059  1.00  0.00     0.030 C 
ENDBRANCH   8  10
ENDBRANCH   1   8
BRANCH   1  20
HETATM   20  C   UNL     1      28.064  43.182  52.660  1.00  0.00    -0.021 A 
HETATM   21  C   UNL     1      29.318  42.580  52.452  1.00  0.00     0.012 A 
HETATM   22  C   UNL     1      30.335  42.685  53.408  1.00  0.00     0.043 A 
HETATM   23  C   UNL     1      30.121  43.421  54.564  1.00  0.00     0.116 A 
HETATM   24  F   UNL     1      31.093  43.515  55.478  1.00  0.00    -0.206 F 
HETATM   25  C   UNL     1      28.915  44.071  54.778  1.00  0.00     0.043 A 
HETATM   26  C   UNL     1      27.900  43.963  53.827  1.00  0.00     0.012 A 
ENDBRANCH   1  20
TORSDOF 4
ENDMDL
MODEL 10
REMARK VINA RESULT:      -7.7     11.575     12.873
REMARK  4 active torsions:
REMARK  status: ('A' for Active; 'I' for Inactive)
REMARK    1  A    between atoms: C_5  and  C_6 
REMARK    2  A    between atoms: C_6  and  N_7 
REMARK    3  A    between atoms: C_6  and  C_18 
REMARK    4  A    between atoms: N_7  and  C_8 
ROOT
HETATM    1  C   UNL     1      30.302  49.695  40.623  1.00  0.00     0.288 C 
ENDROOT
BRANCH   1   2
HETATM    2  C   UNL     1      29.778  50.895  39.847  1.00  0.00    -0.003 A 
HETATM    3  C   UNL     1      29.447  50.748  38.499  1.00  0.00     0.126 A 
HETATM    4  N   UNL     1      29.001  51.747  37.706  1.00  0.00    -0.272 NA
HETATM    5  C   UNL     1      28.857  52.961  38.273  1.00  0.00     0.116 A 
HETATM    6  C   UNL     1      29.155  53.224  39.597  1.00  0.00     0.020 A 
HETATM    7  C   UNL     1      29.628  52.178  40.389  1.00  0.00     0.012 A 
ENDBRANCH   1   2
BRANCH   1   8
HETATM    8  N   UNL     1      30.518  50.002  42.061  1.00  0.00     0.101 NA
HETATM    9  H   UNL     1      30.001  49.290  42.582  1.00  0.00     0.317 HD
BRANCH   8  10
HETATM   10  C   UNL     1      31.886  50.093  42.586  1.00  0.00     0.225 C 
HETATM   11  C   UNL     1      32.979  49.999  41.501  1.00  0.00     0.069 C 
HETATM   12  C   UNL     1      34.345  50.267  42.102  1.00  0.00     0.190 C 
HETATM   13  N   UNL     1      34.337  51.639  42.714  1.00  0.00    -0.067 N 
HETATM   14  C   UNL     1      35.510  50.379  41.139  1.00  0.00     0.035 C 
HETATM   15  H   UNL     1      34.015  52.304  41.994  1.00  0.00     0.280 HD
HETATM   16  C   UNL     1      33.390  51.738  43.862  1.00  0.00     0.237 C 
HETATM   17  C   UNL     1      35.782  51.977  42.973  1.00  0.00     0.235 C 
HETATM   18  C   UNL     1      31.986  51.444  43.339  1.00  0.00     0.063 C 
HETATM   19  C   UNL     1      36.555  51.136  41.956  1.00  0.00     0.030 C 
ENDBRANCH   8  10
ENDBRANCH   1   8
BRANCH   1  20
HETATM   20  C   UNL     1      29.675  48.320  40.363  1.00  0.00    -0.021 A 
HETATM   21  C   UNL     1      30.323  47.298  39.645  1.00  0.00     0.012 A 
HETATM   22  C   UNL     1      29.716  46.052  39.459  1.00  0.00     0.043 A 
HETATM   23  C   UNL     1      28.471  45.801  40.018  1.00  0.00     0.116 A 
HETATM   24  F   UNL     1      27.891  44.609  39.835  1.00  0.00    -0.206 F 
HETATM   25  C   UNL     1      27.827  46.766  40.776  1.00  0.00     0.043 A 
HETATM   26  C   UNL     1      28.430  48.011  40.958  1.00  0.00     0.012 A 
ENDBRANCH   1  20
TORSDOF 4
ENDMDL
