MODEL 1
REMARK VINA RESULT:      -9.6      0.000      0.000
REMARK  4 active torsions:
REMARK  status: ('A' for Active; 'I' for Inactive)
REMARK    1  A    between atoms: C_3  and  C_4 
REMARK    2  A    between atoms: C_4  and  N_5 
REMARK    3  A    between atoms: N_8  and  C_10 
REMARK    4  A    between atoms: C_10  and  C_11 
ROOT
HETATM    1  N   UNL     1      26.406  45.721  50.506  1.00  0.00    -0.405 N 
HETATM    2  C   UNL     1      26.727  45.763  51.935  1.00  0.00     0.150 C 
HETATM    3  C   UNL     1      26.449  44.539  52.845  1.00  0.00     0.206 C 
HETATM    4  N   UNL     1      27.370  43.346  52.579  1.00  0.00    -0.061 N 
HETATM    5  H   UNL     1      27.189  42.724  53.378  1.00  0.00     0.280 HD
HETATM    6  C   UNL     1      27.020  42.535  51.363  1.00  0.00     0.242 C 
HETATM    7  C   UNL     1      25.917  43.179  50.539  1.00  0.00     0.029 C 
HETATM    8  C   UNL     1      26.433  44.437  49.817  1.00  0.00     0.123 C 
HETATM    9  C   UNL     1      24.999  44.056  52.745  1.00  0.00     0.035 C 
HETATM   10  C   UNL     1      24.672  43.405  51.400  1.00  0.00     0.010 C 
ENDROOT
BRANCH   4  11
HETATM   11  C   UNL     1      28.857  43.618  52.683  1.00  0.00     0.274 C 
BRANCH  11  12
HETATM   12  C   UNL     1      29.290  44.071  54.049  1.00  0.00    -0.032 A 
HETATM   13  C   UNL     1      30.296  43.354  54.729  1.00  0.00     0.022 A 
HETATM   14  C   UNL     1      30.728  43.785  55.998  1.00  0.00    -0.008 A 
HETATM   15  C   UNL     1      30.137  44.914  56.560  1.00  0.00     0.042 A 
HETATM   16  C   UNL     1      31.710  43.322  56.914  1.00  0.00     0.030 A 
HETATM   17  N   UNL     1      30.747  45.126  57.777  1.00  0.00    -0.365 N 
HETATM   18  C   UNL     1      29.127  45.637  55.917  1.00  0.00     0.031 A 
HETATM   19  H   UNL     1      30.531  45.888  58.408  1.00  0.00     0.165 HD
HETATM   20  C   UNL     1      31.701  44.168  57.999  1.00  0.00     0.089 A 
HETATM   21  C   UNL     1      28.717  45.198  54.652  1.00  0.00     0.011 A 
ENDBRANCH  11  12
ENDBRANCH   4  11
BRANCH   1  22
HETATM   22  C   UNL     1      25.235  46.545  50.126  1.00  0.00     0.176 C 
BRANCH  22  23
HETATM   23  C   UNL     1      25.569  47.875  49.473  1.00  0.00     0.051 A 
HETATM   24  C   UNL     1      26.891  48.301  49.360  1.00  0.00     0.029 A 
HETATM   25  C   UNL     1      27.152  49.511  48.721  1.00  0.00     0.003 A 
HETATM   26  C   UNL     1      26.095  50.252  48.208  1.00  0.00     0.019 A 
HETATM   27  C   UNL     1      24.811  49.762  48.369  1.00  0.00     0.117 A 
HETATM   28  N   UNL     1      24.523  48.602  49.002  1.00  0.00    -0.264 NA
ENDBRANCH  22  23
ENDBRANCH   1  22
TORSDOF 4
ENDMDL
MODEL 2
REMARK VINA RESULT:      -9.4      1.376      2.055
REMARK  4 active torsions:
REMARK  status: ('A' for Active; 'I' for Inactive)
REMARK    1  A    between atoms: C_3  and  C_4 
REMARK    2  A    between atoms: C_4  and  N_5 
REMARK    3  A    between atoms: N_8  and  C_10 
REMARK    4  A    between atoms: C_10  and  C_11 
ROOT
HETATM    1  N   UNL     1      25.261  46.480  50.412  1.00  0.00    -0.405 N 
HETATM    2  C   UNL     1      24.901  46.014  51.753  1.00  0.00     0.150 C 
HETATM    3  C   UNL     1      25.296  44.594  52.232  1.00  0.00     0.206 C 
HETATM    4  N   UNL     1      26.797  44.416  52.474  1.00  0.00    -0.061 N 
HETATM    5  H   UNL     1      26.853  43.514  52.964  1.00  0.00     0.280 HD
HETATM    6  C   UNL     1      27.622  44.239  51.229  1.00  0.00     0.242 C 
HETATM    7  C   UNL     1      26.809  44.453  49.963  1.00  0.00     0.029 C 
HETATM    8  C   UNL     1      26.459  45.941  49.779  1.00  0.00     0.123 C 
HETATM    9  C   UNL     1      24.835  43.503  51.261  1.00  0.00     0.035 C 
HETATM   10  C   UNL     1      25.605  43.509  49.939  1.00  0.00     0.010 C 
ENDROOT
BRANCH   4  11
HETATM   11  C   UNL     1      27.432  45.382  53.454  1.00  0.00     0.274 C 
BRANCH  11  12
HETATM   12  C   UNL     1      28.549  44.774  54.255  1.00  0.00    -0.032 A 
HETATM   13  C   UNL     1      28.962  45.398  55.450  1.00  0.00     0.022 A 
HETATM   14  C   UNL     1      29.990  44.824  56.222  1.00  0.00    -0.008 A 
HETATM   15  C   UNL     1      30.585  43.647  55.776  1.00  0.00     0.042 A 
HETATM   16  C   UNL     1      30.607  45.170  57.454  1.00  0.00     0.030 A 
HETATM   17  N   UNL     1      31.533  43.293  56.712  1.00  0.00    -0.365 N 
HETATM   18  C   UNL     1      30.208  43.012  54.589  1.00  0.00     0.031 A 
HETATM   19  H   UNL     1      32.118  42.469  56.662  1.00  0.00     0.165 HD
HETATM   20  C   UNL     1      31.552  44.210  57.731  1.00  0.00     0.089 A 
HETATM   21  C   UNL     1      29.179  43.594  53.839  1.00  0.00     0.011 A 
ENDBRANCH  11  12
ENDBRANCH   4  11
BRANCH   1  22
HETATM   22  C   UNL     1      24.116  46.570  49.476  1.00  0.00     0.176 C 
BRANCH  22  23
HETATM   23  C   UNL     1      23.655  47.981  49.159  1.00  0.00     0.051 A 
HETATM   24  C   UNL     1      24.579  48.993  48.903  1.00  0.00     0.029 A 
HETATM   25  C   UNL     1      24.109  50.264  48.580  1.00  0.00     0.003 A 
HETATM   26  C   UNL     1      22.739  50.487  48.513  1.00  0.00     0.019 A 
HETATM   27  C   UNL     1      21.889  49.430  48.790  1.00  0.00     0.117 A 
HETATM   28  N   UNL     1      22.314  48.191  49.125  1.00  0.00    -0.264 NA
ENDBRANCH  22  23
ENDBRANCH   1  22
TORSDOF 4
ENDMDL
MODEL 3
REMARK VINA RESULT:      -9.0      2.546      5.113
REMARK  4 active torsions:
REMARK  status: ('A' for Active; 'I' for Inactive)
REMARK    1  A    between atoms: C_3  and  C_4 
REMARK    2  A    between atoms: C_4  and  N_5 
REMARK    3  A    between atoms: N_8  and  C_10 
REMARK    4  A    between atoms: C_10  and  C_11 
ROOT
HETATM    1  N   UNL     1      24.981  42.120  50.546  1.00  0.00    -0.405 N 
HETATM    2  C   UNL     1      26.265  42.491  51.145  1.00  0.00     0.150 C 
HETATM    3  C   UNL     1      26.740  43.967  51.151  1.00  0.00     0.206 C 
HETATM    4  N   UNL     1      25.937  44.873  52.087  1.00  0.00    -0.061 N 
HETATM    5  H   UNL     1      26.495  45.736  52.119  1.00  0.00     0.280 HD
HETATM    6  C   UNL     1      24.593  45.295  51.561  1.00  0.00     0.242 C 
HETATM    7  C   UNL     1      24.231  44.583  50.268  1.00  0.00     0.029 C 
HETATM    8  C   UNL     1      23.903  43.101  50.530  1.00  0.00     0.123 C 
HETATM    9  C   UNL     1      26.723  44.590  49.751  1.00  0.00     0.035 C 
HETATM   10  C   UNL     1      25.311  44.817  49.210  1.00  0.00     0.010 C 
ENDROOT
BRANCH   4  11
HETATM   11  C   UNL     1      25.879  44.445  53.540  1.00  0.00     0.274 C 
BRANCH  11  12
HETATM   12  C   UNL     1      27.138  44.746  54.304  1.00  0.00    -0.032 A 
HETATM   13  C   UNL     1      28.126  43.748  54.428  1.00  0.00     0.022 A 
HETATM   14  C   UNL     1      29.321  44.026  55.118  1.00  0.00    -0.008 A 
HETATM   15  C   UNL     1      29.494  45.291  55.675  1.00  0.00     0.042 A 
HETATM   16  C   UNL     1      30.496  43.277  55.395  1.00  0.00     0.030 A 
HETATM   17  N   UNL     1      30.738  45.304  56.269  1.00  0.00    -0.365 N 
HETATM   18  C   UNL     1      28.527  46.297  55.581  1.00  0.00     0.031 A 
HETATM   19  H   UNL     1      31.144  46.100  56.744  1.00  0.00     0.165 HD
HETATM   20  C   UNL     1      31.351  44.090  56.103  1.00  0.00     0.089 A 
HETATM   21  C   UNL     1      27.349  46.004  54.884  1.00  0.00     0.011 A 
ENDBRANCH  11  12
ENDBRANCH   4  11
BRANCH   1  22
HETATM   22  C   UNL     1      25.102  41.389  49.263  1.00  0.00     0.176 C 
BRANCH  22  23
HETATM   23  C   UNL     1      26.415  40.655  49.062  1.00  0.00     0.051 A 
HETATM   24  C   UNL     1      27.401  41.173  48.224  1.00  0.00     0.029 A 
HETATM   25  C   UNL     1      28.604  40.483  48.099  1.00  0.00     0.003 A 
HETATM   26  C   UNL     1      28.795  39.310  48.817  1.00  0.00     0.019 A 
HETATM   27  C   UNL     1      27.763  38.859  49.622  1.00  0.00     0.117 A 
HETATM   28  N   UNL     1      26.576  39.494  49.749  1.00  0.00    -0.264 NA
ENDBRANCH  22  23
ENDBRANCH   1  22
TORSDOF 4
ENDMDL
MODEL 4
REMARK VINA RESULT:      -8.7      3.422      5.376
REMARK  4 active torsions:
REMARK  status: ('A' for Active; 'I' for Inactive)
REMARK    1  A    between atoms: C_3  and  C_4 
REMARK    2  A    between atoms: C_4  and  N_5 
REMARK    3  A    between atoms: N_8  and  C_10 
REMARK    4  A    between atoms: C_10  and  C_11 
ROOT
HETATM    1  N   UNL     1      26.102  45.791  50.027  1.00  0.00    -0.405 N 
HETATM    2  C   UNL     1      27.273  44.958  50.312  1.00  0.00     0.150 C 
HETATM    3  C   UNL     1      27.186  43.789  51.327  1.00  0.00     0.206 C 
HETATM    4  N   UNL     1      26.348  42.606  50.841  1.00  0.00    -0.061 N 
HETATM    5  H   UNL     1      26.559  41.868  51.525  1.00  0.00     0.280 HD
HETATM    6  C   UNL     1      24.860  42.806  50.926  1.00  0.00     0.242 C 
HETATM    7  C   UNL     1      24.491  44.227  51.318  1.00  0.00     0.029 C 
HETATM    8  C   UNL     1      24.774  45.206  50.163  1.00  0.00     0.123 C 
HETATM    9  C   UNL     1      26.638  44.238  52.686  1.00  0.00     0.035 C 
HETATM   10  C   UNL     1      25.153  44.602  52.645  1.00  0.00     0.010 C 
ENDROOT
BRANCH   4  11
HETATM   11  C   UNL     1      26.772  41.986  49.524  1.00  0.00     0.274 C 
BRANCH  11  12
HETATM   12  C   UNL     1      27.209  40.554  49.649  1.00  0.00    -0.032 A 
HETATM   13  C   UNL     1      28.398  40.253  50.346  1.00  0.00     0.022 A 
HETATM   14  C   UNL     1      28.804  38.913  50.493  1.00  0.00    -0.008 A 
HETATM   15  C   UNL     1      28.019  37.909  49.931  1.00  0.00     0.042 A 
HETATM   16  C   UNL     1      29.900  38.281  51.140  1.00  0.00     0.030 A 
HETATM   17  N   UNL     1      28.623  36.708  50.232  1.00  0.00    -0.365 N 
HETATM   18  C   UNL     1      26.844  38.177  49.222  1.00  0.00     0.031 A 
HETATM   19  H   UNL     1      28.268  35.798  49.964  1.00  0.00     0.165 HD
HETATM   20  C   UNL     1      29.761  36.924  50.964  1.00  0.00     0.089 A 
HETATM   21  C   UNL     1      26.452  39.515  49.093  1.00  0.00     0.011 A 
ENDBRANCH  11  12
ENDBRANCH   4  11
BRANCH   1  22
HETATM   22  C   UNL     1      26.181  47.158  50.593  1.00  0.00     0.176 C 
BRANCH  22  23
HETATM   23  C   UNL     1      25.762  48.270  49.648  1.00  0.00     0.051 A 
HETATM   24  C   UNL     1      26.706  48.945  48.877  1.00  0.00     0.029 A 
HETATM   25  C   UNL     1      26.271  49.933  47.998  1.00  0.00     0.003 A 
HETATM   26  C   UNL     1      24.913  50.211  47.904  1.00  0.00     0.019 A 
HETATM   27  C   UNL     1      24.041  49.501  48.711  1.00  0.00     0.117 A 
HETATM   28  N   UNL     1      24.434  48.550  49.589  1.00  0.00    -0.264 NA
ENDBRANCH  22  23
ENDBRANCH   1  22
TORSDOF 4
ENDMDL
MODEL 5
REMARK VINA RESULT:      -8.7      6.021     10.208
REMARK  4 active torsions:
REMARK  status: ('A' for Active; 'I' for Inactive)
REMARK    1  A    between atoms: C_3  and  C_4 
REMARK    2  A    between atoms: C_4  and  N_5 
REMARK    3  A    between atoms: N_8  and  C_10 
REMARK    4  A    between atoms: C_10  and  C_11 
ROOT
HETATM    1  N   UNL     1      17.826  49.645  47.907  1.00  0.00    -0.405 N 
HETATM    2  C   UNL     1      19.075  50.054  47.260  1.00  0.00     0.150 C 
HETATM    3  C   UNL     1      20.074  50.991  47.987  1.00  0.00     0.206 C 
HETATM    4  N   UNL     1      20.794  50.335  49.167  1.00  0.00    -0.061 N 
HETATM    5  H   UNL     1      21.537  51.007  49.394  1.00  0.00     0.280 HD
HETATM    6  C   UNL     1      19.974  50.216  50.422  1.00  0.00     0.242 C 
HETATM    7  C   UNL     1      18.524  50.617  50.203  1.00  0.00     0.029 C 
HETATM    8  C   UNL     1      17.783  49.562  49.362  1.00  0.00     0.123 C 
HETATM    9  C   UNL     1      19.408  52.277  48.487  1.00  0.00     0.035 C 
HETATM   10  C   UNL     1      18.443  52.042  49.651  1.00  0.00     0.010 C 
ENDROOT
BRANCH   4  11
HETATM   11  C   UNL     1      21.560  49.065  48.856  1.00  0.00     0.274 C 
BRANCH  11  12
HETATM   12  C   UNL     1      23.038  49.281  48.693  1.00  0.00    -0.032 A 
HETATM   13  C   UNL     1      23.939  48.471  49.413  1.00  0.00     0.022 A 
HETATM   14  C   UNL     1      25.326  48.646  49.248  1.00  0.00    -0.008 A 
HETATM   15  C   UNL     1      25.778  49.634  48.376  1.00  0.00     0.042 A 
HETATM   16  C   UNL     1      26.472  48.000  49.785  1.00  0.00     0.030 A 
HETATM   17  N   UNL     1      27.155  49.583  48.386  1.00  0.00    -0.365 N 
HETATM   18  C   UNL     1      24.909  50.463  47.659  1.00  0.00     0.031 A 
HETATM   19  H   UNL     1      27.760  50.177  47.834  1.00  0.00     0.165 HD
HETATM   20  C   UNL     1      27.583  48.596  49.235  1.00  0.00     0.089 A 
HETATM   21  C   UNL     1      23.534  50.267  47.830  1.00  0.00     0.011 A 
ENDBRANCH  11  12
ENDBRANCH   4  11
BRANCH   1  22
HETATM   22  C   UNL     1      16.614  50.279  47.338  1.00  0.00     0.176 C 
BRANCH  22  23
HETATM   23  C   UNL     1      16.806  50.930  45.981  1.00  0.00     0.051 A 
HETATM   24  C   UNL     1      16.923  52.314  45.863  1.00  0.00     0.029 A 
HETATM   25  C   UNL     1      17.135  52.863  44.601  1.00  0.00     0.003 A 
HETATM   26  C   UNL     1      17.234  52.023  43.500  1.00  0.00     0.019 A 
HETATM   27  C   UNL     1      17.098  50.660  43.701  1.00  0.00     0.117 A 
HETATM   28  N   UNL     1      16.871  50.097  44.910  1.00  0.00    -0.264 NA
ENDBRANCH  22  23
ENDBRANCH   1  22
TORSDOF 4
ENDMDL
MODEL 6
REMARK VINA RESULT:      -8.6      2.196      8.776
REMARK  4 active torsions:
REMARK  status: ('A' for Active; 'I' for Inactive)
REMARK    1  A    between atoms: C_3  and  C_4 
REMARK    2  A    between atoms: C_4  and  N_5 
REMARK    3  A    between atoms: N_8  and  C_10 
REMARK    4  A    between atoms: C_10  and  C_11 
ROOT
HETATM    1  N   UNL     1      26.918  44.537  52.193  1.00  0.00    -0.405 N 
HETATM    2  C   UNL     1      27.162  45.172  50.896  1.00  0.00     0.150 C 
HETATM    3  C   UNL     1      26.252  44.863  49.679  1.00  0.00     0.206 C 
HETATM    4  N   UNL     1      24.839  45.440  49.799  1.00  0.00    -0.061 N 
HETATM    5  H   UNL     1      24.453  45.320  48.854  1.00  0.00     0.280 HD
HETATM    6  C   UNL     1      23.915  44.669  50.700  1.00  0.00     0.242 C 
HETATM    7  C   UNL     1      24.636  43.563  51.454  1.00  0.00     0.029 C 
HETATM    8  C   UNL     1      25.557  44.148  52.540  1.00  0.00     0.123 C 
HETATM    9  C   UNL     1      26.134  43.360  49.406  1.00  0.00     0.035 C 
HETATM   10  C   UNL     1      25.330  42.615  50.473  1.00  0.00     0.010 C 
ENDROOT
BRANCH   4  11
HETATM   11  C   UNL     1      24.747  46.936  50.023  1.00  0.00     0.274 C 
BRANCH  11  12
HETATM   12  C   UNL     1      23.572  47.573  49.338  1.00  0.00    -0.032 A 
HETATM   13  C   UNL     1      23.289  48.935  49.573  1.00  0.00     0.022 A 
HETATM   14  C   UNL     1      22.207  49.550  48.916  1.00  0.00    -0.008 A 
HETATM   15  C   UNL     1      21.428  48.787  48.050  1.00  0.00     0.042 A 
HETATM   16  C   UNL     1      21.680  50.869  48.908  1.00  0.00     0.030 A 
HETATM   17  N   UNL     1      20.462  49.623  47.533  1.00  0.00    -0.365 N 
HETATM   18  C   UNL     1      21.674  47.432  47.807  1.00  0.00     0.031 A 
HETATM   19  H   UNL     1      19.757  49.348  46.860  1.00  0.00     0.165 HD
HETATM   20  C   UNL     1      20.608  50.885  48.046  1.00  0.00     0.089 A 
HETATM   21  C   UNL     1      22.760  46.840  48.463  1.00  0.00     0.011 A 
ENDBRANCH  11  12
ENDBRANCH   4  11
BRANCH   1  22
HETATM   22  C   UNL     1      27.914  43.502  52.556  1.00  0.00     0.176 C 
BRANCH  22  23
HETATM   23  C   UNL     1      28.765  43.827  53.771  1.00  0.00     0.051 A 
HETATM   24  C   UNL     1      29.850  43.024  54.117  1.00  0.00     0.029 A 
HETATM   25  C   UNL     1      30.624  43.383  55.218  1.00  0.00     0.003 A 
HETATM   26  C   UNL     1      30.303  44.530  55.933  1.00  0.00     0.019 A 
HETATM   27  C   UNL     1      29.204  45.268  55.528  1.00  0.00     0.117 A 
HETATM   28  N   UNL     1      28.421  44.936  54.476  1.00  0.00    -0.264 NA
ENDBRANCH  22  23
ENDBRANCH   1  22
TORSDOF 4
ENDMDL
MODEL 7
REMARK VINA RESULT:      -8.5      3.199      7.055
REMARK  4 active torsions:
REMARK  status: ('A' for Active; 'I' for Inactive)
REMARK    1  A    between atoms: C_3  and  C_4 
REMARK    2  A    between atoms: C_4  and  N_5 
REMARK    3  A    between atoms: N_8  and  C_10 
REMARK    4  A    between atoms: C_10  and  C_11 
ROOT
HETATM    1  N   UNL     1      27.523  43.974  52.020  1.00  0.00    -0.405 N 
HETATM    2  C   UNL     1      27.180  42.567  51.798  1.00  0.00     0.150 C 
HETATM    3  C   UNL     1      25.928  42.178  50.970  1.00  0.00     0.206 C 
HETATM    4  N   UNL     1      26.054  42.479  49.475  1.00  0.00    -0.061 N 
HETATM    5  H   UNL     1      25.249  41.988  49.066  1.00  0.00     0.280 HD
HETATM    6  C   UNL     1      25.866  43.923  49.102  1.00  0.00     0.242 C 
HETATM    7  C   UNL     1      25.763  44.825  50.321  1.00  0.00     0.029 C 
HETATM    8  C   UNL     1      27.128  44.960  51.021  1.00  0.00     0.123 C 
HETATM    9  C   UNL     1      24.654  42.853  51.489  1.00  0.00     0.035 C 
HETATM   10  C   UNL     1      24.625  44.361  51.232  1.00  0.00     0.010 C 
ENDROOT
BRANCH   4  11
HETATM   11  C   UNL     1      27.238  41.849  48.767  1.00  0.00     0.274 C 
BRANCH  11  12
HETATM   12  C   UNL     1      27.479  40.419  49.159  1.00  0.00    -0.032 A 
HETATM   13  C   UNL     1      28.682  40.073  49.809  1.00  0.00     0.022 A 
HETATM   14  C   UNL     1      28.907  38.741  50.205  1.00  0.00    -0.008 A 
HETATM   15  C   UNL     1      27.931  37.787  49.932  1.00  0.00     0.042 A 
HETATM   16  C   UNL     1      29.966  38.081  50.884  1.00  0.00     0.030 A 
HETATM   17  N   UNL     1      28.387  36.587  50.433  1.00  0.00    -0.365 N 
HETATM   18  C   UNL     1      26.735  38.095  49.276  1.00  0.00     0.031 A 
HETATM   19  H   UNL     1      27.880  35.712  50.393  1.00  0.00     0.165 HD
HETATM   20  C   UNL     1      29.618  36.756  51.012  1.00  0.00     0.089 A 
HETATM   21  C   UNL     1      26.525  39.427  48.898  1.00  0.00     0.011 A 
ENDBRANCH  11  12
ENDBRANCH   4  11
BRANCH   1  22
HETATM   22  C   UNL     1      27.284  44.443  53.405  1.00  0.00     0.176 C 
BRANCH  22  23
HETATM   23  C   UNL     1      28.491  44.377  54.323  1.00  0.00     0.051 A 
HETATM   24  C   UNL     1      29.356  43.285  54.288  1.00  0.00     0.029 A 
HETATM   25  C   UNL     1      30.471  43.286  55.122  1.00  0.00     0.003 A 
HETATM   26  C   UNL     1      30.697  44.373  55.956  1.00  0.00     0.019 A 
HETATM   27  C   UNL     1      29.785  45.415  55.937  1.00  0.00     0.117 A 
HETATM   28  N   UNL     1      28.683  45.435  55.154  1.00  0.00    -0.264 NA
ENDBRANCH  22  23
ENDBRANCH   1  22
TORSDOF 4
ENDMDL
MODEL 8
REMARK VINA RESULT:      -8.5      2.500      7.191
REMARK  4 active torsions:
REMARK  status: ('A' for Active; 'I' for Inactive)
REMARK    1  A    between atoms: C_3  and  C_4 
REMARK    2  A    between atoms: C_4  and  N_5 
REMARK    3  A    between atoms: N_8  and  C_10 
REMARK    4  A    between atoms: C_10  and  C_11 
ROOT
HETATM    1  N   UNL     1      27.022  44.227  52.913  1.00  0.00    -0.405 N 
HETATM    2  C   UNL     1      25.560  44.135  52.965  1.00  0.00     0.150 C 
HETATM    3  C   UNL     1      24.691  44.653  51.791  1.00  0.00     0.206 C 
HETATM    4  N   UNL     1      24.791  43.801  50.523  1.00  0.00    -0.061 N 
HETATM    5  H   UNL     1      24.025  44.157  49.938  1.00  0.00     0.280 HD
HETATM    6  C   UNL     1      26.038  44.018  49.711  1.00  0.00     0.242 C 
HETATM    7  C   UNL     1      27.037  44.920  50.418  1.00  0.00     0.029 C 
HETATM    8  C   UNL     1      27.682  44.194  51.614  1.00  0.00     0.123 C 
HETATM    9  C   UNL     1      25.018  46.103  51.420  1.00  0.00     0.035 C 
HETATM   10  C   UNL     1      26.390  46.263  50.763  1.00  0.00     0.010 C 
ENDROOT
BRANCH   4  11
HETATM   11  C   UNL     1      24.453  42.332  50.680  1.00  0.00     0.274 C 
BRANCH  11  12
HETATM   12  C   UNL     1      25.393  41.419  49.945  1.00  0.00    -0.032 A 
HETATM   13  C   UNL     1      26.527  40.911  50.614  1.00  0.00     0.022 A 
HETATM   14  C   UNL     1      27.400  40.034  49.945  1.00  0.00    -0.008 A 
HETATM   15  C   UNL     1      27.127  39.694  48.623  1.00  0.00     0.042 A 
HETATM   16  C   UNL     1      28.581  39.341  50.324  1.00  0.00     0.030 A 
HETATM   17  N   UNL     1      28.112  38.820  48.217  1.00  0.00    -0.365 N 
HETATM   18  C   UNL     1      26.020  40.192  47.928  1.00  0.00     0.031 A 
HETATM   19  H   UNL     1      28.166  38.392  47.301  1.00  0.00     0.165 HD
HETATM   20  C   UNL     1      28.996  38.600  49.241  1.00  0.00     0.089 A 
HETATM   21  C   UNL     1      25.158  41.057  48.613  1.00  0.00     0.011 A 
ENDBRANCH  11  12
ENDBRANCH   4  11
BRANCH   1  22
HETATM   22  C   UNL     1      27.596  45.251  53.817  1.00  0.00     0.176 C 
BRANCH  22  23
HETATM   23  C   UNL     1      28.768  44.781  54.659  1.00  0.00     0.051 A 
HETATM   24  C   UNL     1      29.343  43.530  54.446  1.00  0.00     0.029 A 
HETATM   25  C   UNL     1      30.440  43.156  55.218  1.00  0.00     0.003 A 
HETATM   26  C   UNL     1      30.936  44.039  56.169  1.00  0.00     0.019 A 
HETATM   27  C   UNL     1      30.302  45.260  56.324  1.00  0.00     0.117 A 
HETATM   28  N   UNL     1      29.224  45.644  55.604  1.00  0.00    -0.264 NA
ENDBRANCH  22  23
ENDBRANCH   1  22
TORSDOF 4
ENDMDL
MODEL 9
REMARK VINA RESULT:      -8.3     11.998     13.545
REMARK  4 active torsions:
REMARK  status: ('A' for Active; 'I' for Inactive)
REMARK    1  A    between atoms: C_3  and  C_4 
REMARK    2  A    between atoms: C_4  and  N_5 
REMARK    3  A    between atoms: N_8  and  C_10 
REMARK    4  A    between atoms: C_10  and  C_11 
ROOT
HETATM    1  N   UNL     1      27.757  50.092  40.172  1.00  0.00    -0.405 N 
HETATM    2  C   UNL     1      29.111  49.640  39.844  1.00  0.00     0.150 C 
HETATM    3  C   UNL     1      30.254  50.661  39.613  1.00  0.00     0.206 C 
HETATM    4  N   UNL     1      30.705  51.384  40.884  1.00  0.00    -0.061 N 
HETATM    5  H   UNL     1      31.572  51.854  40.595  1.00  0.00     0.280 HD
HETATM    6  C   UNL     1      29.794  52.490  41.341  1.00  0.00     0.242 C 
HETATM    7  C   UNL     1      28.506  52.544  40.536  1.00  0.00     0.029 C 
HETATM    8  C   UNL     1      27.591  51.355  40.882  1.00  0.00     0.123 C 
HETATM    9  C   UNL     1      29.889  51.717  38.565  1.00  0.00     0.035 C 
HETATM   10  C   UNL     1      28.815  52.696  39.045  1.00  0.00     0.010 C 
ENDROOT
BRANCH   4  11
HETATM   11  C   UNL     1      31.157  50.500  42.029  1.00  0.00     0.274 C 
BRANCH  11  12
HETATM   12  C   UNL     1      32.405  50.989  42.708  1.00  0.00    -0.032 A 
HETATM   13  C   UNL     1      33.651  50.825  42.066  1.00  0.00     0.022 A 
HETATM   14  C   UNL     1      34.824  51.304  42.680  1.00  0.00    -0.008 A 
HETATM   15  C   UNL     1      34.725  51.925  43.923  1.00  0.00     0.042 A 
HETATM   16  C   UNL     1      36.194  51.324  42.305  1.00  0.00     0.030 A 
HETATM   17  N   UNL     1      35.997  52.310  44.285  1.00  0.00    -0.365 N 
HETATM   18  C   UNL     1      33.507  52.090  44.590  1.00  0.00     0.031 A 
HETATM   19  H   UNL     1      36.233  52.800  45.139  1.00  0.00     0.165 HD
HETATM   20  C   UNL     1      36.892  51.951  43.311  1.00  0.00     0.089 A 
HETATM   21  C   UNL     1      32.350  51.615  43.960  1.00  0.00     0.011 A 
ENDBRANCH  11  12
ENDBRANCH   4  11
BRANCH   1  22
HETATM   22  C   UNL     1      26.781  49.928  39.070  1.00  0.00     0.176 C 
BRANCH  22  23
HETATM   23  C   UNL     1      25.510  49.185  39.441  1.00  0.00     0.051 A 
HETATM   24  C   UNL     1      24.286  49.537  38.875  1.00  0.00     0.029 A 
HETATM   25  C   UNL     1      23.154  48.803  39.219  1.00  0.00     0.003 A 
HETATM   26  C   UNL     1      23.274  47.739  40.104  1.00  0.00     0.019 A 
HETATM   27  C   UNL     1      24.524  47.460  40.627  1.00  0.00     0.117 A 
HETATM   28  N   UNL     1      25.639  48.166  40.330  1.00  0.00    -0.264 NA
ENDBRANCH  22  23
ENDBRANCH   1  22
TORSDOF 4
ENDMDL
MODEL 10
REMARK VINA RESULT:      -8.2      1.824      8.092
REMARK  4 active torsions:
REMARK  status: ('A' for Active; 'I' for Inactive)
REMARK    1  A    between atoms: C_3  and  C_4 
REMARK    2  A    between atoms: C_4  and  N_5 
REMARK    3  A    between atoms: N_8  and  C_10 
REMARK    4  A    between atoms: C_10  and  C_11 
ROOT
HETATM    1  N   UNL     1      29.485  43.892  53.723  1.00  0.00    -0.405 N 
HETATM    2  C   UNL     1      29.629  43.338  52.374  1.00  0.00     0.150 C 
HETATM    3  C   UNL     1      28.531  42.423  51.771  1.00  0.00     0.206 C 
HETATM    4  N   UNL     1      27.231  43.156  51.432  1.00  0.00    -0.061 N 
HETATM    5  H   UNL     1      26.710  42.466  50.875  1.00  0.00     0.280 HD
HETATM    6  C   UNL     1      26.348  43.458  52.610  1.00  0.00     0.242 C 
HETATM    7  C   UNL     1      27.020  43.128  53.933  1.00  0.00     0.029 C 
HETATM    8  C   UNL     1      28.145  44.132  54.244  1.00  0.00     0.123 C 
HETATM    9  C   UNL     1      28.191  41.243  52.686  1.00  0.00     0.035 C 
HETATM   10  C   UNL     1      27.452  41.660  53.959  1.00  0.00     0.010 C 
ENDROOT
BRANCH   4  11
HETATM   11  C   UNL     1      27.359  44.335  50.488  1.00  0.00     0.274 C 
BRANCH  11  12
HETATM   12  C   UNL     1      26.036  44.874  50.022  1.00  0.00    -0.032 A 
HETATM   13  C   UNL     1      25.740  46.240  50.212  1.00  0.00     0.022 A 
HETATM   14  C   UNL     1      24.516  46.763  49.754  1.00  0.00    -0.008 A 
HETATM   15  C   UNL     1      23.613  45.906  49.129  1.00  0.00     0.042 A 
HETATM   16  C   UNL     1      23.934  48.059  49.761  1.00  0.00     0.030 A 
HETATM   17  N   UNL     1      22.520  46.664  48.768  1.00  0.00    -0.365 N 
HETATM   18  C   UNL     1      23.871  44.545  48.939  1.00  0.00     0.031 A 
HETATM   19  H   UNL     1      21.706  46.311  48.281  1.00  0.00     0.165 HD
HETATM   20  C   UNL     1      22.706  47.968  49.146  1.00  0.00     0.089 A 
HETATM   21  C   UNL     1      25.098  44.045  49.393  1.00  0.00     0.011 A 
ENDBRANCH  11  12
ENDBRANCH   4  11
BRANCH   1  22
HETATM   22  C   UNL     1      30.384  43.277  54.727  1.00  0.00     0.176 C 
BRANCH  22  23
HETATM   23  C   UNL     1      30.549  44.069  56.012  1.00  0.00     0.051 A 
HETATM   24  C   UNL     1      31.398  43.621  57.022  1.00  0.00     0.029 A 
HETATM   25  C   UNL     1      31.546  44.400  58.167  1.00  0.00     0.003 A 
HETATM   26  C   UNL     1      30.854  45.600  58.269  1.00  0.00     0.019 A 
HETATM   27  C   UNL     1      30.024  45.969  57.224  1.00  0.00     0.117 A 
HETATM   28  N   UNL     1      29.844  45.226  56.109  1.00  0.00    -0.264 NA
ENDBRANCH  22  23
ENDBRANCH   1  22
TORSDOF 4
ENDMDL
