MODEL 1
REMARK VINA RESULT:      -9.6      0.000      0.000
REMARK  9 active torsions:
REMARK  status: ('A' for Active; 'I' for Inactive)
REMARK    1  A    between atoms: C_5  and  N_6 
REMARK       I    between atoms: N_6  and  C_7 
REMARK    2  A    between atoms: C_7  and  C_8 
REMARK    3  A    between atoms: C_8  and  S_9 
REMARK    4  A    between atoms: S_9  and  C_10 
REMARK    5  A    between atoms: C_11  and  C_12 
REMARK       I    between atoms: C_12  and  N_13 
REMARK    6  A    between atoms: N_13  and  C_14 
REMARK    7  A    between atoms: C_14  and  C_15 
REMARK    8  A    between atoms: C_15  and  N_16 
REMARK    9  A    between atoms: C_15  and  C_22 
ROOT
HETATM    1  C   UNL     1      25.515  47.709  49.811  1.00  0.00     0.016 A 
HETATM    2  C   UNL     1      24.870  48.776  49.167  1.00  0.00     0.048 A 
HETATM    3  C   UNL     1      25.608  49.766  48.496  1.00  0.00     0.018 A 
HETATM    4  C   UNL     1      26.998  49.701  48.464  1.00  0.00     0.001 A 
HETATM    5  C   UNL     1      27.654  48.673  49.134  1.00  0.00     0.001 A 
HETATM    6  C   UNL     1      26.918  47.702  49.818  1.00  0.00     0.019 A 
ENDROOT
BRANCH   2   7
HETATM    7  C   UNL     1      23.408  48.979  49.193  1.00  0.00     0.253 C 
HETATM    8  N   UNL     1      22.675  48.247  48.273  1.00  0.00    -0.354 N 
HETATM    9  H   UNL     1      23.225  47.698  47.620  1.00  0.00     0.162 HD
HETATM   10  O   UNL     1      22.915  49.832  49.918  1.00  0.00    -0.268 OA
BRANCH   8  11
HETATM   11  C   UNL     1      21.397  48.778  47.796  1.00  0.00     0.161 C 
BRANCH  11  12
HETATM   12  C   UNL     1      20.157  48.412  48.660  1.00  0.00     0.245 C 
BRANCH  12  13
HETATM   13  N   UNL     1      19.091  49.501  48.851  1.00  0.00    -0.061 N 
HETATM   14  H   UNL     1      18.201  49.007  48.703  1.00  0.00     0.280 HD
HETATM   15  C   UNL     1      19.045  50.699  47.928  1.00  0.00     0.236 C 
HETATM   16  C   UNL     1      19.472  51.889  48.773  1.00  0.00     0.029 C 
HETATM   17  C   UNL     1      19.895  51.320  50.115  1.00  0.00     0.029 C 
HETATM   18  C   UNL     1      19.050  50.075  50.244  1.00  0.00     0.236 C 
ENDBRANCH  12  13
BRANCH  12  19
HETATM   19  C   UNL     1      19.515  47.148  48.121  1.00  0.00     0.015 A 
HETATM   20  S   UNL     1      18.194  47.244  47.025  1.00  0.00    -0.104 SA
HETATM   21  C   UNL     1      18.091  45.545  46.897  1.00  0.00     0.050 A 
HETATM   22  C   UNL     1      19.041  44.911  47.665  1.00  0.00     0.008 A 
HETATM   23  C   UNL     1      19.861  45.834  48.376  1.00  0.00     0.017 A 
ENDBRANCH  12  19
ENDBRANCH  11  12
ENDBRANCH   8  11
ENDBRANCH   2   7
BRANCH   1  24
HETATM   24  S   UNL     1      24.632  46.434  50.702  1.00  0.00    -0.120 SA
BRANCH  24  25
HETATM   25  C   UNL     1      25.551  44.929  50.212  1.00  0.00     0.182 C 
BRANCH  25  26
HETATM   26  C   UNL     1      26.115  44.193  51.416  1.00  0.00     0.231 C 
HETATM   27  N   UNL     1      27.487  44.359  51.548  1.00  0.00    -0.327 N 
HETATM   28  H   UNL     1      27.996  44.737  50.761  1.00  0.00     0.169 HD
HETATM   29  O   UNL     1      25.389  43.562  52.176  1.00  0.00    -0.272 OA
BRANCH  27  30
HETATM   30  C   UNL     1      28.270  44.082  52.687  1.00  0.00     0.034 A 
HETATM   31  C   UNL     1      28.122  44.732  53.912  1.00  0.00     0.030 A 
HETATM   32  C   UNL     1      28.996  44.459  54.969  1.00  0.00     0.009 A 
HETATM   33  C   UNL     1      30.032  43.533  54.818  1.00  0.00    -0.062 A 
HETATM   34  C   UNL     1      30.954  43.239  55.963  1.00  0.00     0.048 C 
HETATM   35  C   UNL     1      30.162  42.858  53.602  1.00  0.00     0.009 A 
HETATM   36  C   UNL     1      29.294  43.136  52.544  1.00  0.00     0.030 A 
ENDBRANCH  27  30
ENDBRANCH  25  26
ENDBRANCH  24  25
ENDBRANCH   1  24
TORSDOF 9
ENDMDL
MODEL 2
REMARK VINA RESULT:      -9.3      2.195      3.247
REMARK  9 active torsions:
REMARK  status: ('A' for Active; 'I' for Inactive)
REMARK    1  A    between atoms: C_5  and  N_6 
REMARK       I    between atoms: N_6  and  C_7 
REMARK    2  A    between atoms: C_7  and  C_8 
REMARK    3  A    between atoms: C_8  and  S_9 
REMARK    4  A    between atoms: S_9  and  C_10 
REMARK    5  A    between atoms: C_11  and  C_12 
REMARK       I    between atoms: C_12  and  N_13 
REMARK    6  A    between atoms: N_13  and  C_14 
REMARK    7  A    between atoms: C_14  and  C_15 
REMARK    8  A    between atoms: C_15  and  N_16 
REMARK    9  A    between atoms: C_15  and  C_22 
ROOT
HETATM    1  C   UNL     1      25.096  44.902  52.216  1.00  0.00     0.016 A 
HETATM    2  C   UNL     1      25.366  46.254  51.953  1.00  0.00     0.048 A 
HETATM    3  C   UNL     1      25.744  47.129  52.986  1.00  0.00     0.018 A 
HETATM    4  C   UNL     1      25.852  46.662  54.293  1.00  0.00     0.001 A 
HETATM    5  C   UNL     1      25.547  45.335  54.576  1.00  0.00     0.001 A 
HETATM    6  C   UNL     1      25.152  44.473  53.550  1.00  0.00     0.019 A 
ENDROOT
BRANCH   2   7
HETATM    7  C   UNL     1      25.219  46.870  50.619  1.00  0.00     0.253 C 
HETATM    8  N   UNL     1      23.978  47.414  50.332  1.00  0.00    -0.354 N 
HETATM    9  H   UNL     1      23.268  47.269  51.043  1.00  0.00     0.162 HD
HETATM   10  O   UNL     1      26.123  46.788  49.798  1.00  0.00    -0.268 OA
BRANCH   8  11
HETATM   11  C   UNL     1      23.534  47.480  48.939  1.00  0.00     0.161 C 
BRANCH  11  12
HETATM   12  C   UNL     1      22.020  47.766  48.733  1.00  0.00     0.245 C 
BRANCH  12  13
HETATM   13  N   UNL     1      21.631  49.172  48.254  1.00  0.00    -0.061 N 
HETATM   14  H   UNL     1      20.960  49.000  47.494  1.00  0.00     0.280 HD
HETATM   15  C   UNL     1      22.676  50.097  47.667  1.00  0.00     0.236 C 
HETATM   16  C   UNL     1      22.863  51.209  48.687  1.00  0.00     0.029 C 
HETATM   17  C   UNL     1      22.035  50.814  49.895  1.00  0.00     0.029 C 
HETATM   18  C   UNL     1      20.917  49.995  49.295  1.00  0.00     0.236 C 
ENDBRANCH  12  13
BRANCH  12  19
HETATM   19  C   UNL     1      21.423  46.721  47.810  1.00  0.00     0.015 A 
HETATM   20  S   UNL     1      21.568  45.049  48.180  1.00  0.00    -0.104 SA
HETATM   21  C   UNL     1      20.689  44.596  46.790  1.00  0.00     0.050 A 
HETATM   22  C   UNL     1      20.285  45.687  46.056  1.00  0.00     0.008 A 
HETATM   23  C   UNL     1      20.712  46.916  46.640  1.00  0.00     0.017 A 
ENDBRANCH  12  19
ENDBRANCH  11  12
ENDBRANCH   8  11
ENDBRANCH   2   7
BRANCH   1  24
HETATM   24  S   UNL     1      24.587  43.748  50.947  1.00  0.00    -0.120 SA
BRANCH  24  25
HETATM   25  C   UNL     1      26.193  43.269  50.211  1.00  0.00     0.182 C 
BRANCH  25  26
HETATM   26  C   UNL     1      27.152  42.719  51.253  1.00  0.00     0.231 C 
HETATM   27  N   UNL     1      28.113  43.645  51.636  1.00  0.00    -0.327 N 
HETATM   28  H   UNL     1      28.228  44.470  51.064  1.00  0.00     0.169 HD
HETATM   29  O   UNL     1      27.027  41.584  51.699  1.00  0.00    -0.272 OA
BRANCH  27  30
HETATM   30  C   UNL     1      28.946  43.584  52.771  1.00  0.00     0.034 A 
HETATM   31  C   UNL     1      30.010  42.692  52.911  1.00  0.00     0.030 A 
HETATM   32  C   UNL     1      30.736  42.638  54.105  1.00  0.00     0.009 A 
HETATM   33  C   UNL     1      30.410  43.473  55.177  1.00  0.00    -0.062 A 
HETATM   34  C   UNL     1      31.205  43.415  56.448  1.00  0.00     0.048 C 
HETATM   35  C   UNL     1      29.365  44.388  55.028  1.00  0.00     0.009 A 
HETATM   36  C   UNL     1      28.635  44.437  53.838  1.00  0.00     0.030 A 
ENDBRANCH  27  30
ENDBRANCH  25  26
ENDBRANCH  24  25
ENDBRANCH   1  24
TORSDOF 9
ENDMDL
MODEL 3
REMARK VINA RESULT:      -9.1      1.242      3.143
REMARK  9 active torsions:
REMARK  status: ('A' for Active; 'I' for Inactive)
REMARK    1  A    between atoms: C_5  and  N_6 
REMARK       I    between atoms: N_6  and  C_7 
REMARK    2  A    between atoms: C_7  and  C_8 
REMARK    3  A    between atoms: C_8  and  S_9 
REMARK    4  A    between atoms: S_9  and  C_10 
REMARK    5  A    between atoms: C_11  and  C_12 
REMARK       I    between atoms: C_12  and  N_13 
REMARK    6  A    between atoms: N_13  and  C_14 
REMARK    7  A    between atoms: C_14  and  C_15 
REMARK    8  A    between atoms: C_15  and  N_16 
REMARK    9  A    between atoms: C_15  and  C_22 
ROOT
HETATM    1  C   UNL     1      25.366  47.699  49.647  1.00  0.00     0.016 A 
HETATM    2  C   UNL     1      24.711  48.629  48.824  1.00  0.00     0.048 A 
HETATM    3  C   UNL     1      25.407  49.713  48.262  1.00  0.00     0.018 A 
HETATM    4  C   UNL     1      26.765  49.880  48.520  1.00  0.00     0.001 A 
HETATM    5  C   UNL     1      27.418  48.992  49.368  1.00  0.00     0.001 A 
HETATM    6  C   UNL     1      26.718  47.927  49.941  1.00  0.00     0.019 A 
ENDROOT
BRANCH   2   7
HETATM    7  C   UNL     1      23.263  48.585  48.537  1.00  0.00     0.253 C 
HETATM    8  N   UNL     1      22.454  49.343  49.367  1.00  0.00    -0.354 N 
HETATM    9  H   UNL     1      22.931  49.796  50.140  1.00  0.00     0.162 HD
HETATM   10  O   UNL     1      22.825  47.828  47.681  1.00  0.00    -0.268 OA
BRANCH   8  11
HETATM   11  C   UNL     1      21.067  48.927  49.583  1.00  0.00     0.161 C 
BRANCH  11  12
HETATM   12  C   UNL     1      20.098  49.189  48.396  1.00  0.00     0.245 C 
BRANCH  12  13
HETATM   13  N   UNL     1      19.158  48.044  47.993  1.00  0.00    -0.061 N 
HETATM   14  H   UNL     1      18.267  48.279  48.451  1.00  0.00     0.280 HD
HETATM   15  C   UNL     1      19.461  46.621  48.411  1.00  0.00     0.236 C 
HETATM   16  C   UNL     1      19.837  45.886  47.134  1.00  0.00     0.029 C 
HETATM   17  C   UNL     1      19.886  46.940  46.043  1.00  0.00     0.029 C 
HETATM   18  C   UNL     1      18.887  47.970  46.512  1.00  0.00     0.236 C 
ENDBRANCH  12  13
BRANCH  12  19
HETATM   19  C   UNL     1      19.295  50.449  48.661  1.00  0.00     0.015 A 
HETATM   20  S   UNL     1      17.739  50.352  49.385  1.00  0.00    -0.104 SA
HETATM   21  C   UNL     1      17.549  52.048  49.361  1.00  0.00     0.050 A 
HETATM   22  C   UNL     1      18.644  52.682  48.820  1.00  0.00     0.008 A 
HETATM   23  C   UNL     1      19.651  51.761  48.410  1.00  0.00     0.017 A 
ENDBRANCH  12  19
ENDBRANCH  11  12
ENDBRANCH   8  11
ENDBRANCH   2   7
BRANCH   1  24
HETATM   24  S   UNL     1      24.527  46.316  50.410  1.00  0.00    -0.120 SA
BRANCH  24  25
HETATM   25  C   UNL     1      25.673  44.936  50.045  1.00  0.00     0.182 C 
BRANCH  25  26
HETATM   26  C   UNL     1      26.225  44.308  51.313  1.00  0.00     0.231 C 
HETATM   27  N   UNL     1      27.609  44.206  51.299  1.00  0.00    -0.327 N 
HETATM   28  H   UNL     1      28.084  44.336  50.417  1.00  0.00     0.169 HD
HETATM   29  O   UNL     1      25.487  43.976  52.234  1.00  0.00    -0.272 OA
BRANCH  27  30
HETATM   30  C   UNL     1      28.454  43.965  52.402  1.00  0.00     0.034 A 
HETATM   31  C   UNL     1      29.494  43.036  52.401  1.00  0.00     0.030 A 
HETATM   32  C   UNL     1      30.232  42.796  53.564  1.00  0.00     0.009 A 
HETATM   33  C   UNL     1      29.941  43.481  54.747  1.00  0.00    -0.062 A 
HETATM   34  C   UNL     1      30.749  43.226  55.985  1.00  0.00     0.048 C 
HETATM   35  C   UNL     1      28.920  44.435  54.743  1.00  0.00     0.009 A 
HETATM   36  C   UNL     1      28.179  44.669  53.582  1.00  0.00     0.030 A 
ENDBRANCH  27  30
ENDBRANCH  25  26
ENDBRANCH  24  25
ENDBRANCH   1  24
TORSDOF 9
ENDMDL
MODEL 4
REMARK VINA RESULT:      -8.8      2.096      2.754
REMARK  9 active torsions:
REMARK  status: ('A' for Active; 'I' for Inactive)
REMARK    1  A    between atoms: C_5  and  N_6 
REMARK       I    between atoms: N_6  and  C_7 
REMARK    2  A    between atoms: C_7  and  C_8 
REMARK    3  A    between atoms: C_8  and  S_9 
REMARK    4  A    between atoms: S_9  and  C_10 
REMARK    5  A    between atoms: C_11  and  C_12 
REMARK       I    between atoms: C_12  and  N_13 
REMARK    6  A    between atoms: N_13  and  C_14 
REMARK    7  A    between atoms: C_14  and  C_15 
REMARK    8  A    between atoms: C_15  and  N_16 
REMARK    9  A    between atoms: C_15  and  C_22 
ROOT
HETATM    1  C   UNL     1      23.851  45.584  49.192  1.00  0.00     0.016 A 
HETATM    2  C   UNL     1      22.869  46.222  48.417  1.00  0.00     0.048 A 
HETATM    3  C   UNL     1      22.200  45.534  47.392  1.00  0.00     0.018 A 
HETATM    4  C   UNL     1      22.506  44.202  47.127  1.00  0.00     0.001 A 
HETATM    5  C   UNL     1      23.507  43.569  47.858  1.00  0.00     0.001 A 
HETATM    6  C   UNL     1      24.185  44.262  48.864  1.00  0.00     0.019 A 
ENDROOT
BRANCH   2   7
HETATM    7  C   UNL     1      22.512  47.647  48.568  1.00  0.00     0.253 C 
HETATM    8  N   UNL     1      21.369  47.914  49.303  1.00  0.00    -0.354 N 
HETATM    9  H   UNL     1      20.847  47.096  49.604  1.00  0.00     0.162 HD
HETATM   10  O   UNL     1      23.144  48.509  47.972  1.00  0.00    -0.268 OA
BRANCH   8  11
HETATM   11  C   UNL     1      20.607  49.132  49.018  1.00  0.00     0.161 C 
BRANCH  11  12
HETATM   12  C   UNL     1      19.085  48.927  48.780  1.00  0.00     0.245 C 
BRANCH  12  13
HETATM   13  N   UNL     1      18.264  50.165  48.393  1.00  0.00    -0.061 N 
HETATM   14  H   UNL     1      17.495  49.787  47.824  1.00  0.00     0.280 HD
HETATM   15  C   UNL     1      18.883  51.263  47.554  1.00  0.00     0.236 C 
HETATM   16  C   UNL     1      19.029  52.460  48.482  1.00  0.00     0.029 C 
HETATM   17  C   UNL     1      18.631  51.970  49.862  1.00  0.00     0.029 C 
HETATM   18  C   UNL     1      17.638  50.873  49.568  1.00  0.00     0.236 C 
ENDBRANCH  12  13
BRANCH  12  19
HETATM   19  C   UNL     1      18.871  47.825  47.760  1.00  0.00     0.015 A 
HETATM   20  S   UNL     1      17.874  46.475  48.135  1.00  0.00    -0.104 SA
HETATM   21  C   UNL     1      18.114  45.785  46.593  1.00  0.00     0.050 A 
HETATM   22  C   UNL     1      18.930  46.560  45.801  1.00  0.00     0.008 A 
HETATM   23  C   UNL     1      19.372  47.736  46.475  1.00  0.00     0.017 A 
ENDBRANCH  12  19
ENDBRANCH  11  12
ENDBRANCH   8  11
ENDBRANCH   2   7
BRANCH   1  24
HETATM   24  S   UNL     1      24.754  46.416  50.493  1.00  0.00    -0.120 SA
BRANCH  24  25
HETATM   25  C   UNL     1      25.042  45.051  51.680  1.00  0.00     0.182 C 
BRANCH  25  26
HETATM   26  C   UNL     1      26.517  44.883  52.002  1.00  0.00     0.231 C 
HETATM   27  N   UNL     1      26.782  44.990  53.360  1.00  0.00    -0.327 N 
HETATM   28  H   UNL     1      26.060  45.372  53.954  1.00  0.00     0.169 HD
HETATM   29  O   UNL     1      27.339  44.646  51.123  1.00  0.00    -0.272 OA
BRANCH  27  30
HETATM   30  C   UNL     1      27.958  44.593  54.029  1.00  0.00     0.034 A 
HETATM   31  C   UNL     1      28.568  43.350  53.864  1.00  0.00     0.030 A 
HETATM   32  C   UNL     1      29.685  43.001  54.630  1.00  0.00     0.009 A 
HETATM   33  C   UNL     1      30.209  43.890  55.573  1.00  0.00    -0.062 A 
HETATM   34  C   UNL     1      31.416  43.510  56.378  1.00  0.00     0.048 C 
HETATM   35  C   UNL     1      29.618  45.147  55.718  1.00  0.00     0.009 A 
HETATM   36  C   UNL     1      28.498  45.492  54.958  1.00  0.00     0.030 A 
ENDBRANCH  27  30
ENDBRANCH  25  26
ENDBRANCH  24  25
ENDBRANCH   1  24
TORSDOF 9
ENDMDL
MODEL 5
REMARK VINA RESULT:      -8.7      1.898      2.911
REMARK  9 active torsions:
REMARK  status: ('A' for Active; 'I' for Inactive)
REMARK    1  A    between atoms: C_5  and  N_6 
REMARK       I    between atoms: N_6  and  C_7 
REMARK    2  A    between atoms: C_7  and  C_8 
REMARK    3  A    between atoms: C_8  and  S_9 
REMARK    4  A    between atoms: S_9  and  C_10 
REMARK    5  A    between atoms: C_11  and  C_12 
REMARK       I    between atoms: C_12  and  N_13 
REMARK    6  A    between atoms: N_13  and  C_14 
REMARK    7  A    between atoms: C_14  and  C_15 
REMARK    8  A    between atoms: C_15  and  N_16 
REMARK    9  A    between atoms: C_15  and  C_22 
ROOT
HETATM    1  C   UNL     1      25.204  45.571  50.947  1.00  0.00     0.016 A 
HETATM    2  C   UNL     1      24.361  46.060  49.937  1.00  0.00     0.048 A 
HETATM    3  C   UNL     1      23.771  45.189  49.005  1.00  0.00     0.018 A 
HETATM    4  C   UNL     1      24.021  43.821  49.070  1.00  0.00     0.001 A 
HETATM    5  C   UNL     1      24.888  43.327  50.039  1.00  0.00     0.001 A 
HETATM    6  C   UNL     1      25.489  44.198  50.951  1.00  0.00     0.019 A 
ENDROOT
BRANCH   2   7
HETATM    7  C   UNL     1      24.079  47.495  49.734  1.00  0.00     0.253 C 
HETATM    8  N   UNL     1      22.745  47.865  49.767  1.00  0.00    -0.354 N 
HETATM    9  H   UNL     1      22.085  47.098  49.852  1.00  0.00     0.162 HD
HETATM   10  O   UNL     1      24.983  48.267  49.446  1.00  0.00    -0.268 OA
BRANCH   8  11
HETATM   11  C   UNL     1      22.314  49.043  49.011  1.00  0.00     0.161 C 
BRANCH  11  12
HETATM   12  C   UNL     1      20.796  49.106  48.683  1.00  0.00     0.245 C 
BRANCH  12  13
HETATM   13  N   UNL     1      20.300  50.327  47.894  1.00  0.00    -0.061 N 
HETATM   14  H   UNL     1      20.875  50.323  47.041  1.00  0.00     0.280 HD
HETATM   15  C   UNL     1      20.443  51.720  48.469  1.00  0.00     0.236 C 
HETATM   16  C   UNL     1      19.030  52.179  48.795  1.00  0.00     0.029 C 
HETATM   17  C   UNL     1      18.132  50.983  48.540  1.00  0.00     0.029 C 
HETATM   18  C   UNL     1      18.861  50.227  47.457  1.00  0.00     0.236 C 
ENDBRANCH  12  13
BRANCH  12  19
HETATM   19  C   UNL     1      20.370  47.830  47.982  1.00  0.00     0.015 A 
HETATM   20  S   UNL     1      19.077  46.885  48.606  1.00  0.00    -0.104 SA
HETATM   21  C   UNL     1      19.207  45.749  47.339  1.00  0.00     0.050 A 
HETATM   22  C   UNL     1      20.207  46.077  46.453  1.00  0.00     0.008 A 
HETATM   23  C   UNL     1      20.884  47.275  46.824  1.00  0.00     0.017 A 
ENDBRANCH  12  19
ENDBRANCH  11  12
ENDBRANCH   8  11
ENDBRANCH   2   7
BRANCH   1  24
HETATM   24  S   UNL     1      26.003  46.633  52.144  1.00  0.00    -0.120 SA
BRANCH  24  25
HETATM   25  C   UNL     1      25.411  45.925  53.726  1.00  0.00     0.182 C 
BRANCH  25  26
HETATM   26  C   UNL     1      26.402  44.930  54.306  1.00  0.00     0.231 C 
HETATM   27  N   UNL     1      27.719  45.336  54.149  1.00  0.00    -0.327 N 
HETATM   28  H   UNL     1      27.908  46.092  53.505  1.00  0.00     0.169 HD
HETATM   29  O   UNL     1      26.024  43.910  54.872  1.00  0.00    -0.272 OA
BRANCH  27  30
HETATM   30  C   UNL     1      28.850  44.827  54.819  1.00  0.00     0.034 A 
HETATM   31  C   UNL     1      29.442  43.598  54.527  1.00  0.00     0.030 A 
HETATM   32  C   UNL     1      30.511  43.126  55.296  1.00  0.00     0.009 A 
HETATM   33  C   UNL     1      31.004  43.874  56.368  1.00  0.00    -0.062 A 
HETATM   34  C   UNL     1      32.160  43.364  57.176  1.00  0.00     0.048 C 
HETATM   35  C   UNL     1      30.433  45.120  56.642  1.00  0.00     0.009 A 
HETATM   36  C   UNL     1      29.361  45.588  55.879  1.00  0.00     0.030 A 
ENDBRANCH  27  30
ENDBRANCH  25  26
ENDBRANCH  24  25
ENDBRANCH   1  24
TORSDOF 9
ENDMDL
MODEL 6
REMARK VINA RESULT:      -8.6      2.196      2.843
REMARK  9 active torsions:
REMARK  status: ('A' for Active; 'I' for Inactive)
REMARK    1  A    between atoms: C_5  and  N_6 
REMARK       I    between atoms: N_6  and  C_7 
REMARK    2  A    between atoms: C_7  and  C_8 
REMARK    3  A    between atoms: C_8  and  S_9 
REMARK    4  A    between atoms: S_9  and  C_10 
REMARK    5  A    between atoms: C_11  and  C_12 
REMARK       I    between atoms: C_12  and  N_13 
REMARK    6  A    between atoms: N_13  and  C_14 
REMARK    7  A    between atoms: C_14  and  C_15 
REMARK    8  A    between atoms: C_15  and  N_16 
REMARK    9  A    between atoms: C_15  and  C_22 
ROOT
HETATM    1  C   UNL     1      25.728  46.043  50.396  1.00  0.00     0.016 A 
HETATM    2  C   UNL     1      24.534  46.119  49.663  1.00  0.00     0.048 A 
HETATM    3  C   UNL     1      24.090  45.032  48.891  1.00  0.00     0.018 A 
HETATM    4  C   UNL     1      24.838  43.858  48.841  1.00  0.00     0.001 A 
HETATM    5  C   UNL     1      26.045  43.783  49.528  1.00  0.00     0.001 A 
HETATM    6  C   UNL     1      26.494  44.873  50.278  1.00  0.00     0.019 A 
ENDROOT
BRANCH   2   7
HETATM    7  C   UNL     1      23.698  47.334  49.591  1.00  0.00     0.253 C 
HETATM    8  N   UNL     1      22.336  47.129  49.448  1.00  0.00    -0.354 N 
HETATM    9  H   UNL     1      22.054  46.161  49.331  1.00  0.00     0.162 HD
HETATM   10  O   UNL     1      24.219  48.441  49.551  1.00  0.00    -0.268 OA
BRANCH   8  11
HETATM   11  C   UNL     1      21.528  48.151  48.779  1.00  0.00     0.161 C 
BRANCH  11  12
HETATM   12  C   UNL     1      20.192  48.515  49.486  1.00  0.00     0.245 C 
BRANCH  12  13
HETATM   13  N   UNL     1      20.094  49.907  50.124  1.00  0.00    -0.061 N 
HETATM   14  H   UNL     1      20.179  49.726  51.133  1.00  0.00     0.280 HD
HETATM   15  C   UNL     1      18.834  50.734  49.970  1.00  0.00     0.236 C 
HETATM   16  C   UNL     1      19.211  51.895  49.063  1.00  0.00     0.029 C 
HETATM   17  C   UNL     1      20.631  51.623  48.602  1.00  0.00     0.029 C 
HETATM   18  C   UNL     1      21.221  50.833  49.744  1.00  0.00     0.236 C 
ENDBRANCH  12  13
BRANCH  12  19
HETATM   19  C   UNL     1      19.034  48.301  48.530  1.00  0.00     0.015 A 
HETATM   20  S   UNL     1      19.211  48.660  46.857  1.00  0.00    -0.104 SA
HETATM   21  C   UNL     1      17.615  48.161  46.514  1.00  0.00     0.050 A 
HETATM   22  C   UNL     1      16.956  47.724  47.641  1.00  0.00     0.008 A 
HETATM   23  C   UNL     1      17.772  47.809  48.807  1.00  0.00     0.017 A 
ENDBRANCH  12  19
ENDBRANCH  11  12
ENDBRANCH   8  11
ENDBRANCH   2   7
BRANCH   1  24
HETATM   24  S   UNL     1      26.356  47.402  51.376  1.00  0.00    -0.120 SA
BRANCH  24  25
HETATM   25  C   UNL     1      25.777  46.952  53.054  1.00  0.00     0.182 C 
BRANCH  25  26
HETATM   26  C   UNL     1      26.929  46.839  54.038  1.00  0.00     0.231 C 
HETATM   27  N   UNL     1      27.182  45.527  54.414  1.00  0.00    -0.327 N 
HETATM   28  H   UNL     1      26.484  44.830  54.197  1.00  0.00     0.169 HD
HETATM   29  O   UNL     1      27.556  47.828  54.403  1.00  0.00    -0.272 OA
BRANCH  27  30
HETATM   30  C   UNL     1      28.338  45.035  55.052  1.00  0.00     0.034 A 
HETATM   31  C   UNL     1      28.985  45.683  56.104  1.00  0.00     0.030 A 
HETATM   32  C   UNL     1      30.177  45.171  56.627  1.00  0.00     0.009 A 
HETATM   33  C   UNL     1      30.741  44.004  56.105  1.00  0.00    -0.062 A 
HETATM   34  C   UNL     1      32.013  43.456  56.683  1.00  0.00     0.048 C 
HETATM   35  C   UNL     1      30.079  43.336  55.072  1.00  0.00     0.009 A 
HETATM   36  C   UNL     1      28.892  43.851  54.545  1.00  0.00     0.030 A 
ENDBRANCH  27  30
ENDBRANCH  25  26
ENDBRANCH  24  25
ENDBRANCH   1  24
TORSDOF 9
ENDMDL
MODEL 7
REMARK VINA RESULT:      -8.4      2.499      4.692
REMARK  9 active torsions:
REMARK  status: ('A' for Active; 'I' for Inactive)
REMARK    1  A    between atoms: C_5  and  N_6 
REMARK       I    between atoms: N_6  and  C_7 
REMARK    2  A    between atoms: C_7  and  C_8 
REMARK    3  A    between atoms: C_8  and  S_9 
REMARK    4  A    between atoms: S_9  and  C_10 
REMARK    5  A    between atoms: C_11  and  C_12 
REMARK       I    between atoms: C_12  and  N_13 
REMARK    6  A    between atoms: N_13  and  C_14 
REMARK    7  A    between atoms: C_14  and  C_15 
REMARK    8  A    between atoms: C_15  and  N_16 
REMARK    9  A    between atoms: C_15  and  C_22 
ROOT
HETATM    1  C   UNL     1      26.041  43.959  50.492  1.00  0.00     0.016 A 
HETATM    2  C   UNL     1      24.902  43.527  49.795  1.00  0.00     0.048 A 
HETATM    3  C   UNL     1      24.917  42.332  49.055  1.00  0.00     0.018 A 
HETATM    4  C   UNL     1      26.073  41.558  49.002  1.00  0.00     0.001 A 
HETATM    5  C   UNL     1      27.223  41.994  49.653  1.00  0.00     0.001 A 
HETATM    6  C   UNL     1      27.209  43.193  50.371  1.00  0.00     0.019 A 
ENDROOT
BRANCH   2   7
HETATM    7  C   UNL     1      23.646  44.301  49.728  1.00  0.00     0.253 C 
HETATM    8  N   UNL     1      23.611  45.328  48.800  1.00  0.00    -0.354 N 
HETATM    9  H   UNL     1      24.483  45.496  48.308  1.00  0.00     0.162 HD
HETATM   10  O   UNL     1      22.749  44.093  50.535  1.00  0.00    -0.268 OA
BRANCH   8  11
HETATM   11  C   UNL     1      22.744  46.482  49.048  1.00  0.00     0.161 C 
BRANCH  11  12
HETATM   12  C   UNL     1      22.294  47.263  47.781  1.00  0.00     0.245 C 
BRANCH  12  13
HETATM   13  N   UNL     1      20.954  46.862  47.150  1.00  0.00    -0.061 N 
HETATM   14  H   UNL     1      20.480  47.759  46.978  1.00  0.00     0.280 HD
HETATM   15  C   UNL     1      19.960  46.026  47.929  1.00  0.00     0.236 C 
HETATM   16  C   UNL     1      19.940  44.666  47.249  1.00  0.00     0.029 C 
HETATM   17  C   UNL     1      21.030  44.710  46.193  1.00  0.00     0.029 C 
HETATM   18  C   UNL     1      21.089  46.171  45.818  1.00  0.00     0.236 C 
ENDBRANCH  12  13
BRANCH  12  19
HETATM   19  C   UNL     1      22.306  48.752  48.068  1.00  0.00     0.015 A 
HETATM   20  S   UNL     1      20.847  49.574  48.458  1.00  0.00    -0.104 SA
HETATM   21  C   UNL     1      21.658  51.064  48.647  1.00  0.00     0.050 A 
HETATM   22  C   UNL     1      23.011  50.947  48.425  1.00  0.00     0.008 A 
HETATM   23  C   UNL     1      23.387  49.615  48.086  1.00  0.00     0.017 A 
ENDBRANCH  12  19
ENDBRANCH  11  12
ENDBRANCH   8  11
ENDBRANCH   2   7
BRANCH   1  24
HETATM   24  S   UNL     1      26.088  45.482  51.429  1.00  0.00    -0.120 SA
BRANCH  24  25
HETATM   25  C   UNL     1      25.302  44.978  53.004  1.00  0.00     0.182 C 
BRANCH  25  26
HETATM   26  C   UNL     1      26.283  44.274  53.926  1.00  0.00     0.231 C 
HETATM   27  N   UNL     1      27.605  44.565  53.620  1.00  0.00    -0.327 N 
HETATM   28  H   UNL     1      27.799  45.006  52.732  1.00  0.00     0.169 HD
HETATM   29  O   UNL     1      25.895  43.563  54.847  1.00  0.00    -0.272 OA
BRANCH  27  30
HETATM   30  C   UNL     1      28.734  44.341  54.435  1.00  0.00     0.034 A 
HETATM   31  C   UNL     1      29.508  43.182  54.393  1.00  0.00     0.030 A 
HETATM   32  C   UNL     1      30.562  43.000  55.294  1.00  0.00     0.009 A 
HETATM   33  C   UNL     1      30.857  43.975  56.252  1.00  0.00    -0.062 A 
HETATM   34  C   UNL     1      31.999  43.776  57.203  1.00  0.00     0.048 C 
HETATM   35  C   UNL     1      30.103  45.151  56.275  1.00  0.00     0.009 A 
HETATM   36  C   UNL     1      29.046  45.328  55.379  1.00  0.00     0.030 A 
ENDBRANCH  27  30
ENDBRANCH  25  26
ENDBRANCH  24  25
ENDBRANCH   1  24
TORSDOF 9
ENDMDL
MODEL 8
REMARK VINA RESULT:      -8.4      2.293      3.978
REMARK  9 active torsions:
REMARK  status: ('A' for Active; 'I' for Inactive)
REMARK    1  A    between atoms: C_5  and  N_6 
REMARK       I    between atoms: N_6  and  C_7 
REMARK    2  A    between atoms: C_7  and  C_8 
REMARK    3  A    between atoms: C_8  and  S_9 
REMARK    4  A    between atoms: S_9  and  C_10 
REMARK    5  A    between atoms: C_11  and  C_12 
REMARK       I    between atoms: C_12  and  N_13 
REMARK    6  A    between atoms: N_13  and  C_14 
REMARK    7  A    between atoms: C_14  and  C_15 
REMARK    8  A    between atoms: C_15  and  N_16 
REMARK    9  A    between atoms: C_15  and  C_22 
ROOT
HETATM    1  C   UNL     1      24.250  43.879  48.867  1.00  0.00     0.016 A 
HETATM    2  C   UNL     1      23.072  44.096  48.135  1.00  0.00     0.048 A 
HETATM    3  C   UNL     1      22.288  43.017  47.693  1.00  0.00     0.018 A 
HETATM    4  C   UNL     1      22.675  41.710  47.974  1.00  0.00     0.001 A 
HETATM    5  C   UNL     1      23.862  41.477  48.661  1.00  0.00     0.001 A 
HETATM    6  C   UNL     1      24.650  42.552  49.082  1.00  0.00     0.019 A 
ENDROOT
BRANCH   2   7
HETATM    7  C   UNL     1      22.602  45.434  47.725  1.00  0.00     0.253 C 
HETATM    8  N   UNL     1      21.942  46.172  48.694  1.00  0.00    -0.354 N 
HETATM    9  H   UNL     1      21.779  45.687  49.571  1.00  0.00     0.162 HD
HETATM   10  O   UNL     1      22.708  45.796  46.561  1.00  0.00    -0.268 OA
BRANCH   8  11
HETATM   11  C   UNL     1      20.948  47.164  48.279  1.00  0.00     0.161 C 
BRANCH  11  12
HETATM   12  C   UNL     1      20.820  48.408  49.202  1.00  0.00     0.245 C 
BRANCH  12  13
HETATM   13  N   UNL     1      22.114  49.156  49.552  1.00  0.00    -0.061 N 
HETATM   14  H   UNL     1      22.413  48.736  50.442  1.00  0.00     0.280 HD
HETATM   15  C   UNL     1      22.092  50.650  49.800  1.00  0.00     0.236 C 
HETATM   16  C   UNL     1      22.822  51.276  48.622  1.00  0.00     0.029 C 
HETATM   17  C   UNL     1      23.111  50.140  47.657  1.00  0.00     0.029 C 
HETATM   18  C   UNL     1      23.230  48.939  48.563  1.00  0.00     0.236 C 
ENDBRANCH  12  13
BRANCH  12  19
HETATM   19  C   UNL     1      19.804  49.373  48.622  1.00  0.00     0.015 A 
HETATM   20  S   UNL     1      18.636  50.121  49.637  1.00  0.00    -0.104 SA
HETATM   21  C   UNL     1      17.964  50.994  48.334  1.00  0.00     0.050 A 
HETATM   22  C   UNL     1      18.611  50.732  47.148  1.00  0.00     0.008 A 
HETATM   23  C   UNL     1      19.671  49.792  47.311  1.00  0.00     0.017 A 
ENDBRANCH  12  19
ENDBRANCH  11  12
ENDBRANCH   8  11
ENDBRANCH   2   7
BRANCH   1  24
HETATM   24  S   UNL     1      25.301  45.211  49.433  1.00  0.00    -0.120 SA
BRANCH  24  25
HETATM   25  C   UNL     1      24.639  45.521  51.112  1.00  0.00     0.182 C 
BRANCH  25  26
HETATM   26  C   UNL     1      25.369  44.708  52.167  1.00  0.00     0.231 C 
HETATM   27  N   UNL     1      26.749  44.804  52.056  1.00  0.00    -0.327 N 
HETATM   28  H   UNL     1      27.128  45.193  51.204  1.00  0.00     0.169 HD
HETATM   29  O   UNL     1      24.757  44.078  53.023  1.00  0.00    -0.272 OA
BRANCH  27  30
HETATM   30  C   UNL     1      27.707  44.441  53.024  1.00  0.00     0.034 A 
HETATM   31  C   UNL     1      27.932  45.152  54.203  1.00  0.00     0.030 A 
HETATM   32  C   UNL     1      28.960  44.774  55.073  1.00  0.00     0.009 A 
HETATM   33  C   UNL     1      29.780  43.681  54.777  1.00  0.00    -0.062 A 
HETATM   34  C   UNL     1      30.870  43.277  55.724  1.00  0.00     0.048 C 
HETATM   35  C   UNL     1      29.536  42.950  53.612  1.00  0.00     0.009 A 
HETATM   36  C   UNL     1      28.514  43.332  52.740  1.00  0.00     0.030 A 
ENDBRANCH  27  30
ENDBRANCH  25  26
ENDBRANCH  24  25
ENDBRANCH   1  24
TORSDOF 9
ENDMDL
MODEL 9
REMARK VINA RESULT:      -8.2      2.872      4.683
REMARK  9 active torsions:
REMARK  status: ('A' for Active; 'I' for Inactive)
REMARK    1  A    between atoms: C_5  and  N_6 
REMARK       I    between atoms: N_6  and  C_7 
REMARK    2  A    between atoms: C_7  and  C_8 
REMARK    3  A    between atoms: C_8  and  S_9 
REMARK    4  A    between atoms: S_9  and  C_10 
REMARK    5  A    between atoms: C_11  and  C_12 
REMARK       I    between atoms: C_12  and  N_13 
REMARK    6  A    between atoms: N_13  and  C_14 
REMARK    7  A    between atoms: C_14  and  C_15 
REMARK    8  A    between atoms: C_15  and  N_16 
REMARK    9  A    between atoms: C_15  and  C_22 
ROOT
HETATM    1  C   UNL     1      25.646  44.729  52.330  1.00  0.00     0.016 A 
HETATM    2  C   UNL     1      25.318  45.811  51.498  1.00  0.00     0.048 A 
HETATM    3  C   UNL     1      25.313  47.126  51.992  1.00  0.00     0.018 A 
HETATM    4  C   UNL     1      25.632  47.374  53.324  1.00  0.00     0.001 A 
HETATM    5  C   UNL     1      25.917  46.308  54.172  1.00  0.00     0.001 A 
HETATM    6  C   UNL     1      25.901  45.000  53.682  1.00  0.00     0.019 A 
ENDROOT
BRANCH   2   7
HETATM    7  C   UNL     1      24.902  45.658  50.089  1.00  0.00     0.253 C 
HETATM    8  N   UNL     1      23.543  45.511  49.868  1.00  0.00    -0.354 N 
HETATM    9  H   UNL     1      22.973  45.447  50.706  1.00  0.00     0.162 HD
HETATM   10  O   UNL     1      25.741  45.559  49.204  1.00  0.00    -0.268 OA
BRANCH   8  11
HETATM   11  C   UNL     1      23.089  44.773  48.687  1.00  0.00     0.161 C 
BRANCH  11  12
HETATM   12  C   UNL     1      22.426  45.634  47.576  1.00  0.00     0.245 C 
BRANCH  12  13
HETATM   13  N   UNL     1      21.586  44.895  46.525  1.00  0.00    -0.061 N 
HETATM   14  H   UNL     1      20.624  44.962  46.881  1.00  0.00     0.280 HD
HETATM   15  C   UNL     1      21.814  43.422  46.259  1.00  0.00     0.236 C 
HETATM   16  C   UNL     1      22.429  43.342  44.871  1.00  0.00     0.029 C 
HETATM   17  C   UNL     1      22.676  44.776  44.439  1.00  0.00     0.029 C 
HETATM   18  C   UNL     1      21.600  45.546  45.165  1.00  0.00     0.236 C 
ENDBRANCH  12  13
BRANCH  12  19
HETATM   19  C   UNL     1      21.605  46.741  48.209  1.00  0.00     0.015 A 
HETATM   20  S   UNL     1      22.295  48.293  48.473  1.00  0.00    -0.104 SA
HETATM   21  C   UNL     1      20.842  48.901  49.130  1.00  0.00     0.050 A 
HETATM   22  C   UNL     1      19.846  47.952  49.148  1.00  0.00     0.008 A 
HETATM   23  C   UNL     1      20.286  46.702  48.621  1.00  0.00     0.017 A 
ENDBRANCH  12  19
ENDBRANCH  11  12
ENDBRANCH   8  11
ENDBRANCH   2   7
BRANCH   1  24
HETATM   24  S   UNL     1      25.645  43.032  51.764  1.00  0.00    -0.120 SA
BRANCH  24  25
HETATM   25  C   UNL     1      27.435  42.699  51.575  1.00  0.00     0.182 C 
BRANCH  25  26
HETATM   26  C   UNL     1      28.125  42.536  52.919  1.00  0.00     0.231 C 
HETATM   27  N   UNL     1      29.081  43.515  53.150  1.00  0.00    -0.327 N 
HETATM   28  H   UNL     1      29.380  44.079  52.366  1.00  0.00     0.169 HD
HETATM   29  O   UNL     1      27.811  41.638  53.692  1.00  0.00    -0.272 OA
BRANCH  27  30
HETATM   30  C   UNL     1      29.678  43.844  54.384  1.00  0.00     0.034 A 
HETATM   31  C   UNL     1      30.657  43.071  55.008  1.00  0.00     0.030 A 
HETATM   32  C   UNL     1      31.138  43.422  56.274  1.00  0.00     0.009 A 
HETATM   33  C   UNL     1      30.647  44.552  56.935  1.00  0.00    -0.062 A 
HETATM   34  C   UNL     1      31.181  44.927  58.285  1.00  0.00     0.048 C 
HETATM   35  C   UNL     1      29.690  45.345  56.298  1.00  0.00     0.009 A 
HETATM   36  C   UNL     1      29.205  44.990  55.037  1.00  0.00     0.030 A 
ENDBRANCH  27  30
ENDBRANCH  25  26
ENDBRANCH  24  25
ENDBRANCH   1  24
TORSDOF 9
ENDMDL
MODEL 10
REMARK VINA RESULT:      -8.2      2.833      3.883
REMARK  9 active torsions:
REMARK  status: ('A' for Active; 'I' for Inactive)
REMARK    1  A    between atoms: C_5  and  N_6 
REMARK       I    between atoms: N_6  and  C_7 
REMARK    2  A    between atoms: C_7  and  C_8 
REMARK    3  A    between atoms: C_8  and  S_9 
REMARK    4  A    between atoms: S_9  and  C_10 
REMARK    5  A    between atoms: C_11  and  C_12 
REMARK       I    between atoms: C_12  and  N_13 
REMARK    6  A    between atoms: N_13  and  C_14 
REMARK    7  A    between atoms: C_14  and  C_15 
REMARK    8  A    between atoms: C_15  and  N_16 
REMARK    9  A    between atoms: C_15  and  C_22 
ROOT
HETATM    1  C   UNL     1      26.424  45.568  51.289  1.00  0.00     0.016 A 
HETATM    2  C   UNL     1      25.638  46.697  51.567  1.00  0.00     0.048 A 
HETATM    3  C   UNL     1      25.422  47.118  52.890  1.00  0.00     0.018 A 
HETATM    4  C   UNL     1      25.987  46.414  53.950  1.00  0.00     0.001 A 
HETATM    5  C   UNL     1      26.733  45.268  53.693  1.00  0.00     0.001 A 
HETATM    6  C   UNL     1      26.929  44.840  52.377  1.00  0.00     0.019 A 
ENDROOT
BRANCH   2   7
HETATM    7  C   UNL     1      24.938  47.478  50.528  1.00  0.00     0.253 C 
HETATM    8  N   UNL     1      23.677  47.029  50.173  1.00  0.00    -0.354 N 
HETATM    9  H   UNL     1      23.388  46.160  50.611  1.00  0.00     0.162 HD
HETATM   10  O   UNL     1      25.511  48.395  49.954  1.00  0.00    -0.268 OA
BRANCH   8  11
HETATM   11  C   UNL     1      23.177  47.301  48.824  1.00  0.00     0.161 C 
BRANCH  11  12
HETATM   12  C   UNL     1      21.718  47.830  48.746  1.00  0.00     0.245 C 
BRANCH  12  13
HETATM   13  N   UNL     1      21.522  49.279  48.276  1.00  0.00    -0.061 N 
HETATM   14  H   UNL     1      20.830  49.204  47.518  1.00  0.00     0.280 HD
HETATM   15  C   UNL     1      22.680  50.057  47.689  1.00  0.00     0.236 C 
HETATM   16  C   UNL     1      23.021  51.128  48.714  1.00  0.00     0.029 C 
HETATM   17  C   UNL     1      22.151  50.841  49.924  1.00  0.00     0.029 C 
HETATM   18  C   UNL     1      20.930  50.186  49.325  1.00  0.00     0.236 C 
ENDBRANCH  12  13
BRANCH  12  19
HETATM   19  C   UNL     1      20.879  46.893  47.898  1.00  0.00     0.015 A 
HETATM   20  S   UNL     1      20.518  45.307  48.454  1.00  0.00    -0.104 SA
HETATM   21  C   UNL     1      19.598  44.956  47.060  1.00  0.00     0.050 A 
HETATM   22  C   UNL     1      19.558  46.019  46.187  1.00  0.00     0.008 A 
HETATM   23  C   UNL     1      20.300  47.137  46.667  1.00  0.00     0.017 A 
ENDBRANCH  12  19
ENDBRANCH  11  12
ENDBRANCH   8  11
ENDBRANCH   2   7
BRANCH   1  24
HETATM   24  S   UNL     1      26.713  44.969  49.629  1.00  0.00    -0.120 SA
BRANCH  24  25
HETATM   25  C   UNL     1      25.286  43.848  49.382  1.00  0.00     0.182 C 
BRANCH  25  26
HETATM   26  C   UNL     1      25.680  42.389  49.530  1.00  0.00     0.231 C 
HETATM   27  N   UNL     1      27.056  42.208  49.561  1.00  0.00    -0.327 N 
HETATM   28  H   UNL     1      27.641  42.980  49.272  1.00  0.00     0.169 HD
HETATM   29  O   UNL     1      24.834  41.507  49.640  1.00  0.00    -0.272 OA
BRANCH  27  30
HETATM   30  C   UNL     1      27.752  41.058  49.986  1.00  0.00     0.034 A 
HETATM   31  C   UNL     1      28.206  40.858  51.289  1.00  0.00     0.030 A 
HETATM   32  C   UNL     1      28.964  39.726  51.609  1.00  0.00     0.009 A 
HETATM   33  C   UNL     1      29.280  38.780  50.631  1.00  0.00    -0.062 A 
HETATM   34  C   UNL     1      30.082  37.564  50.990  1.00  0.00     0.048 C 
HETATM   35  C   UNL     1      28.801  38.963  49.332  1.00  0.00     0.009 A 
HETATM   36  C   UNL     1      28.050  40.097  49.011  1.00  0.00     0.030 A 
ENDBRANCH  27  30
ENDBRANCH  25  26
ENDBRANCH  24  25
ENDBRANCH   1  24
TORSDOF 9
ENDMDL
