MODEL 1
REMARK VINA RESULT:     -11.4      0.000      0.000
REMARK  4 active torsions:
REMARK  status: ('A' for Active; 'I' for Inactive)
REMARK    1  A    between atoms: C_2  and  N_3 
REMARK    2  A    between atoms: C_10  and  C_11 
REMARK    3  A    between atoms: C_11  and  C_12 
REMARK       I    between atoms: C_12  and  N_13 
REMARK    4  A    between atoms: N_13  and  C_14 
ROOT
HETATM    1  C   UNL     1      24.837  45.850  51.107  1.00  0.00     0.035 A 
HETATM    2  C   UNL     1      24.706  47.154  50.628  1.00  0.00     0.049 A 
HETATM    3  C   UNL     1      23.879  47.453  49.524  1.00  0.00     0.061 A 
HETATM    4  C   UNL     1      23.171  46.425  48.889  1.00  0.00     0.050 A 
HETATM    5  N   UNL     1      22.228  46.581  47.858  1.00  0.00    -0.324 N 
HETATM    6  C   UNL     1      21.383  47.635  47.634  1.00  0.00     0.245 C 
HETATM    7  O   UNL     1      20.485  47.489  46.801  1.00  0.00    -0.271 OA
HETATM    8  C   UNL     1      21.463  48.846  48.563  1.00  0.00     0.180 C 
HETATM    9  N   UNL     1      22.795  49.427  48.526  1.00  0.00    -0.334 N 
HETATM   10  C   UNL     1      23.932  48.857  49.041  1.00  0.00     0.256 C 
HETATM   11  O   UNL     1      24.991  49.473  49.123  1.00  0.00    -0.267 OA
HETATM   12  C   UNL     1      20.535  49.988  48.129  1.00  0.00     0.037 C 
HETATM   13  C   UNL     1      21.323  51.243  48.478  1.00  0.00     0.022 C 
HETATM   14  C   UNL     1      22.752  50.834  48.167  1.00  0.00     0.127 C 
HETATM   15  C   UNL     1      23.390  45.104  49.307  1.00  0.00     0.033 A 
HETATM   16  C   UNL     1      24.202  44.821  50.411  1.00  0.00     0.032 A 
HETATM   17  H   UNL     1      21.951  45.760  47.332  1.00  0.00     0.169 HD
ENDROOT
BRANCH   1  18
HETATM   18  N   UNL     1      25.517  45.505  52.294  1.00  0.00    -0.327 N 
HETATM   19  C   UNL     1      25.830  46.341  53.353  1.00  0.00     0.226 C 
HETATM   20  O   UNL     1      25.774  47.569  53.335  1.00  0.00    -0.273 OA
HETATM   21  H   UNL     1      25.773  44.530  52.404  1.00  0.00     0.169 HD
BRANCH  19  22
HETATM   22  C   UNL     1      26.109  45.615  54.660  1.00  0.00     0.144 C 
BRANCH  22  23
HETATM   23  C   UNL     1      27.535  45.231  54.886  1.00  0.00    -0.021 A 
HETATM   24  C   UNL     1      28.286  44.236  54.185  1.00  0.00    -0.001 A 
HETATM   25  C   UNL     1      29.544  44.147  54.790  1.00  0.00     0.045 A 
HETATM   26  C   UNL     1      27.995  43.385  53.095  1.00  0.00     0.014 A 
HETATM   27  N   UNL     1      29.549  45.040  55.845  1.00  0.00    -0.351 N 
HETATM   28  C   UNL     1      30.522  43.248  54.329  1.00  0.00     0.030 A 
HETATM   29  C   UNL     1      28.361  45.730  55.872  1.00  0.00     0.100 A 
HETATM   30  C   UNL     1      30.210  42.426  53.243  1.00  0.00     0.002 A 
HETATM   31  C   UNL     1      28.963  42.490  52.634  1.00  0.00     0.001 A 
BRANCH  27  32
HETATM   32  C   UNL     1      30.617  45.198  56.835  1.00  0.00     0.081 C 
HETATM   33  C   UNL     1      31.202  43.848  57.259  1.00  0.00     0.032 C 
HETATM   34  C   UNL     1      30.150  46.010  58.042  1.00  0.00     0.032 C 
ENDBRANCH  27  32
ENDBRANCH  22  23
ENDBRANCH  19  22
ENDBRANCH   1  18
TORSDOF 4
ENDMDL
MODEL 2
REMARK VINA RESULT:     -11.2      1.201      2.754
REMARK  4 active torsions:
REMARK  status: ('A' for Active; 'I' for Inactive)
REMARK    1  A    between atoms: C_2  and  N_3 
REMARK    2  A    between atoms: C_10  and  C_11 
REMARK    3  A    between atoms: C_11  and  C_12 
REMARK       I    between atoms: C_12  and  N_13 
REMARK    4  A    between atoms: N_13  and  C_14 
ROOT
HETATM    1  C   UNL     1      26.088  46.566  52.110  1.00  0.00     0.035 A 
HETATM    2  C   UNL     1      25.884  47.587  51.181  1.00  0.00     0.049 A 
HETATM    3  C   UNL     1      24.913  47.470  50.162  1.00  0.00     0.061 A 
HETATM    4  C   UNL     1      24.135  46.308  50.074  1.00  0.00     0.050 A 
HETATM    5  N   UNL     1      23.062  46.094  49.193  1.00  0.00    -0.324 N 
HETATM    6  C   UNL     1      22.185  47.015  48.685  1.00  0.00     0.245 C 
HETATM    7  O   UNL     1      21.184  46.598  48.096  1.00  0.00    -0.271 OA
HETATM    8  C   UNL     1      22.378  48.486  49.049  1.00  0.00     0.180 C 
HETATM    9  N   UNL     1      23.687  48.949  48.619  1.00  0.00    -0.334 N 
HETATM   10  C   UNL     1      24.888  48.573  49.167  1.00  0.00     0.256 C 
HETATM   11  O   UNL     1      25.944  49.125  48.867  1.00  0.00    -0.267 OA
HETATM   12  C   UNL     1      21.390  49.411  48.326  1.00  0.00     0.037 C 
HETATM   13  C   UNL     1      22.207  50.667  48.053  1.00  0.00     0.022 C 
HETATM   14  C   UNL     1      23.585  50.106  47.748  1.00  0.00     0.127 C 
HETATM   15  C   UNL     1      24.420  45.245  50.943  1.00  0.00     0.033 A 
HETATM   16  C   UNL     1      25.375  45.377  51.958  1.00  0.00     0.032 A 
HETATM   17  H   UNL     1      22.723  45.146  49.068  1.00  0.00     0.169 HD
ENDROOT
BRANCH   1  18
HETATM   18  N   UNL     1      26.925  46.678  53.241  1.00  0.00    -0.327 N 
HETATM   19  C   UNL     1      26.653  47.354  54.420  1.00  0.00     0.226 C 
HETATM   20  O   UNL     1      25.739  48.159  54.587  1.00  0.00    -0.273 OA
HETATM   21  H   UNL     1      27.807  46.180  53.205  1.00  0.00     0.169 HD
BRANCH  19  22
HETATM   22  C   UNL     1      27.492  46.902  55.605  1.00  0.00     0.144 C 
BRANCH  22  23
HETATM   23  C   UNL     1      28.292  45.659  55.384  1.00  0.00    -0.021 A 
HETATM   24  C   UNL     1      29.393  45.188  56.166  1.00  0.00    -0.001 A 
HETATM   25  C   UNL     1      29.899  44.042  55.542  1.00  0.00     0.045 A 
HETATM   26  C   UNL     1      30.017  45.649  57.347  1.00  0.00     0.014 A 
HETATM   27  N   UNL     1      29.148  43.840  54.399  1.00  0.00    -0.351 N 
HETATM   28  C   UNL     1      30.996  43.338  56.070  1.00  0.00     0.030 A 
HETATM   29  C   UNL     1      28.149  44.781  54.330  1.00  0.00     0.100 A 
HETATM   30  C   UNL     1      31.587  43.812  57.244  1.00  0.00     0.002 A 
HETATM   31  C   UNL     1      31.107  44.954  57.875  1.00  0.00     0.001 A 
BRANCH  27  32
HETATM   32  C   UNL     1      29.399  42.827  53.372  1.00  0.00     0.081 C 
HETATM   33  C   UNL     1      29.042  43.337  51.973  1.00  0.00     0.032 C 
HETATM   34  C   UNL     1      28.683  41.515  53.688  1.00  0.00     0.032 C 
ENDBRANCH  27  32
ENDBRANCH  22  23
ENDBRANCH  19  22
ENDBRANCH   1  18
TORSDOF 4
ENDMDL
MODEL 3
REMARK VINA RESULT:     -11.2      1.391      2.527
REMARK  4 active torsions:
REMARK  status: ('A' for Active; 'I' for Inactive)
REMARK    1  A    between atoms: C_2  and  N_3 
REMARK    2  A    between atoms: C_10  and  C_11 
REMARK    3  A    between atoms: C_11  and  C_12 
REMARK       I    between atoms: C_12  and  N_13 
REMARK    4  A    between atoms: N_13  and  C_14 
ROOT
HETATM    1  C   UNL     1      24.562  44.591  50.193  1.00  0.00     0.035 A 
HETATM    2  C   UNL     1      24.517  45.984  50.242  1.00  0.00     0.049 A 
HETATM    3  C   UNL     1      23.710  46.726  49.352  1.00  0.00     0.061 A 
HETATM    4  C   UNL     1      22.935  46.057  48.395  1.00  0.00     0.050 A 
HETATM    5  N   UNL     1      22.004  46.646  47.523  1.00  0.00    -0.324 N 
HETATM    6  C   UNL     1      21.229  47.756  47.733  1.00  0.00     0.245 C 
HETATM    7  O   UNL     1      20.323  47.989  46.929  1.00  0.00    -0.271 OA
HETATM    8  C   UNL     1      21.389  48.521  49.046  1.00  0.00     0.180 C 
HETATM    9  N   UNL     1      22.757  48.993  49.195  1.00  0.00    -0.334 N 
HETATM   10  C   UNL     1      23.854  48.203  49.429  1.00  0.00     0.256 C 
HETATM   11  O   UNL     1      24.952  48.677  49.710  1.00  0.00    -0.267 OA
HETATM   12  C   UNL     1      20.538  49.796  49.096  1.00  0.00     0.037 C 
HETATM   13  C   UNL     1      21.408  50.778  49.869  1.00  0.00     0.022 C 
HETATM   14  C   UNL     1      22.807  50.431  49.392  1.00  0.00     0.127 C 
HETATM   15  C   UNL     1      23.067  44.665  48.282  1.00  0.00     0.033 A 
HETATM   16  C   UNL     1      23.860  43.939  49.178  1.00  0.00     0.032 A 
HETATM   17  H   UNL     1      21.672  46.102  46.734  1.00  0.00     0.169 HD
ENDROOT
BRANCH   1  18
HETATM   18  N   UNL     1      25.219  43.784  51.146  1.00  0.00    -0.327 N 
HETATM   19  C   UNL     1      26.569  43.788  51.458  1.00  0.00     0.226 C 
HETATM   20  O   UNL     1      27.453  44.328  50.797  1.00  0.00    -0.273 OA
HETATM   21  H   UNL     1      24.636  43.157  51.690  1.00  0.00     0.169 HD
BRANCH  19  22
HETATM   22  C   UNL     1      26.895  43.194  52.819  1.00  0.00     0.144 C 
BRANCH  22  23
HETATM   23  C   UNL     1      27.508  44.141  53.799  1.00  0.00    -0.021 A 
HETATM   24  C   UNL     1      27.083  45.475  54.096  1.00  0.00    -0.001 A 
HETATM   25  C   UNL     1      28.000  46.022  54.999  1.00  0.00     0.045 A 
HETATM   26  C   UNL     1      26.003  46.273  53.657  1.00  0.00     0.014 A 
HETATM   27  N   UNL     1      28.969  45.062  55.223  1.00  0.00    -0.351 N 
HETATM   28  C   UNL     1      27.861  47.333  55.487  1.00  0.00     0.030 A 
HETATM   29  C   UNL     1      28.647  43.913  54.543  1.00  0.00     0.100 A 
HETATM   30  C   UNL     1      26.778  48.097  55.044  1.00  0.00     0.002 A 
HETATM   31  C   UNL     1      25.861  47.576  54.139  1.00  0.00     0.001 A 
BRANCH  27  32
HETATM   32  C   UNL     1      30.194  45.240  56.006  1.00  0.00     0.081 C 
HETATM   33  C   UNL     1      31.068  43.984  55.986  1.00  0.00     0.032 C 
HETATM   34  C   UNL     1      29.887  45.685  57.436  1.00  0.00     0.032 C 
ENDBRANCH  27  32
ENDBRANCH  22  23
ENDBRANCH  19  22
ENDBRANCH   1  18
TORSDOF 4
ENDMDL
MODEL 4
REMARK VINA RESULT:     -11.1      2.015      9.678
REMARK  4 active torsions:
REMARK  status: ('A' for Active; 'I' for Inactive)
REMARK    1  A    between atoms: C_2  and  N_3 
REMARK    2  A    between atoms: C_10  and  C_11 
REMARK    3  A    between atoms: C_11  and  C_12 
REMARK       I    between atoms: C_12  and  N_13 
REMARK    4  A    between atoms: N_13  and  C_14 
ROOT
HETATM    1  C   UNL     1      25.284  46.516  51.604  1.00  0.00     0.035 A 
HETATM    2  C   UNL     1      26.195  46.537  52.661  1.00  0.00     0.049 A 
HETATM    3  C   UNL     1      26.640  45.345  53.272  1.00  0.00     0.061 A 
HETATM    4  C   UNL     1      26.162  44.110  52.815  1.00  0.00     0.050 A 
HETATM    5  N   UNL     1      26.595  42.843  53.244  1.00  0.00    -0.324 N 
HETATM    6  C   UNL     1      27.838  42.476  53.686  1.00  0.00     0.245 C 
HETATM    7  O   UNL     1      28.074  41.272  53.815  1.00  0.00    -0.271 OA
HETATM    8  C   UNL     1      28.921  43.549  53.794  1.00  0.00     0.180 C 
HETATM    9  N   UNL     1      28.503  44.603  54.704  1.00  0.00    -0.334 N 
HETATM   10  C   UNL     1      27.508  45.518  54.465  1.00  0.00     0.256 C 
HETATM   11  O   UNL     1      27.317  46.482  55.203  1.00  0.00    -0.267 OA
HETATM   12  C   UNL     1      30.225  43.015  54.401  1.00  0.00     0.037 C 
HETATM   13  C   UNL     1      30.743  44.187  55.225  1.00  0.00     0.022 C 
HETATM   14  C   UNL     1      29.465  44.797  55.774  1.00  0.00     0.127 C 
HETATM   15  C   UNL     1      25.168  44.102  51.826  1.00  0.00     0.033 A 
HETATM   16  C   UNL     1      24.743  45.289  51.218  1.00  0.00     0.032 A 
HETATM   17  H   UNL     1      26.028  42.036  53.008  1.00  0.00     0.169 HD
ENDROOT
BRANCH   1  18
HETATM   18  N   UNL     1      24.918  47.650  50.849  1.00  0.00    -0.327 N 
HETATM   19  C   UNL     1      25.463  48.066  49.645  1.00  0.00     0.226 C 
HETATM   20  O   UNL     1      26.509  47.648  49.152  1.00  0.00    -0.273 OA
HETATM   21  H   UNL     1      24.146  48.204  51.205  1.00  0.00     0.169 HD
BRANCH  19  22
HETATM   22  C   UNL     1      24.569  49.000  48.846  1.00  0.00     0.144 C 
BRANCH  22  23
HETATM   23  C   UNL     1      23.128  48.609  48.784  1.00  0.00    -0.021 A 
HETATM   24  C   UNL     1      22.005  49.367  49.241  1.00  0.00    -0.001 A 
HETATM   25  C   UNL     1      20.862  48.577  49.074  1.00  0.00     0.045 A 
HETATM   26  C   UNL     1      21.863  50.656  49.801  1.00  0.00     0.014 A 
HETATM   27  N   UNL     1      21.281  47.364  48.560  1.00  0.00    -0.351 N 
HETATM   28  C   UNL     1      19.585  49.042  49.435  1.00  0.00     0.030 A 
HETATM   29  C   UNL     1      22.636  47.400  48.336  1.00  0.00     0.100 A 
HETATM   30  C   UNL     1      19.473  50.325  49.978  1.00  0.00     0.002 A 
HETATM   31  C   UNL     1      20.596  51.122  50.161  1.00  0.00     0.001 A 
BRANCH  27  32
HETATM   32  C   UNL     1      20.440  46.185  48.340  1.00  0.00     0.081 C 
HETATM   33  C   UNL     1      21.207  44.885  48.598  1.00  0.00     0.032 C 
HETATM   34  C   UNL     1      19.810  46.195  46.948  1.00  0.00     0.032 C 
ENDBRANCH  27  32
ENDBRANCH  22  23
ENDBRANCH  19  22
ENDBRANCH   1  18
TORSDOF 4
ENDMDL
MODEL 5
REMARK VINA RESULT:     -11.1      1.703      2.756
REMARK  4 active torsions:
REMARK  status: ('A' for Active; 'I' for Inactive)
REMARK    1  A    between atoms: C_2  and  N_3 
REMARK    2  A    between atoms: C_10  and  C_11 
REMARK    3  A    between atoms: C_11  and  C_12 
REMARK       I    between atoms: C_12  and  N_13 
REMARK    4  A    between atoms: N_13  and  C_14 
ROOT
HETATM    1  C   UNL     1      24.401  44.656  49.756  1.00  0.00     0.035 A 
HETATM    2  C   UNL     1      24.359  46.041  49.920  1.00  0.00     0.049 A 
HETATM    3  C   UNL     1      23.496  46.848  49.147  1.00  0.00     0.061 A 
HETATM    4  C   UNL     1      22.662  46.254  48.191  1.00  0.00     0.050 A 
HETATM    5  N   UNL     1      21.677  46.907  47.430  1.00  0.00    -0.324 N 
HETATM    6  C   UNL     1      20.917  47.992  47.778  1.00  0.00     0.245 C 
HETATM    7  O   UNL     1      19.960  48.284  47.056  1.00  0.00    -0.271 OA
HETATM    8  C   UNL     1      21.160  48.649  49.136  1.00  0.00     0.180 C 
HETATM    9  N   UNL     1      22.534  49.114  49.236  1.00  0.00    -0.334 N 
HETATM   10  C   UNL     1      23.645  48.314  49.335  1.00  0.00     0.256 C 
HETATM   11  O   UNL     1      24.758  48.771  49.582  1.00  0.00    -0.267 OA
HETATM   12  C   UNL     1      20.313  49.911  49.344  1.00  0.00     0.037 C 
HETATM   13  C   UNL     1      21.230  50.832  50.137  1.00  0.00     0.022 C 
HETATM   14  C   UNL     1      22.596  50.532  49.545  1.00  0.00     0.127 C 
HETATM   15  C   UNL     1      22.788  44.877  47.957  1.00  0.00     0.033 A 
HETATM   16  C   UNL     1      23.636  44.085  48.738  1.00  0.00     0.032 A 
HETATM   17  H   UNL     1      21.295  46.426  46.623  1.00  0.00     0.169 HD
ENDROOT
BRANCH   1  18
HETATM   18  N   UNL     1      25.118  43.779  50.596  1.00  0.00    -0.327 N 
HETATM   19  C   UNL     1      26.454  43.427  50.494  1.00  0.00     0.226 C 
HETATM   20  O   UNL     1      27.176  43.637  49.522  1.00  0.00    -0.273 OA
HETATM   21  H   UNL     1      24.613  43.390  51.385  1.00  0.00     0.169 HD
BRANCH  19  22
HETATM   22  C   UNL     1      27.055  42.880  51.780  1.00  0.00     0.144 C 
BRANCH  22  23
HETATM   23  C   UNL     1      27.483  43.911  52.773  1.00  0.00    -0.021 A 
HETATM   24  C   UNL     1      28.563  43.817  53.707  1.00  0.00    -0.001 A 
HETATM   25  C   UNL     1      28.538  44.968  54.502  1.00  0.00     0.045 A 
HETATM   26  C   UNL     1      29.551  42.839  53.958  1.00  0.00     0.014 A 
HETATM   27  N   UNL     1      27.459  45.725  54.085  1.00  0.00    -0.351 N 
HETATM   28  C   UNL     1      29.479  45.177  55.526  1.00  0.00     0.030 A 
HETATM   29  C   UNL     1      26.855  45.115  53.012  1.00  0.00     0.100 A 
HETATM   30  C   UNL     1      30.452  44.198  55.745  1.00  0.00     0.002 A 
HETATM   31  C   UNL     1      30.488  43.042  54.974  1.00  0.00     0.001 A 
BRANCH  27  32
HETATM   32  C   UNL     1      26.976  46.955  54.714  1.00  0.00     0.081 C 
HETATM   33  C   UNL     1      25.736  47.506  54.004  1.00  0.00     0.032 C 
HETATM   34  C   UNL     1      28.078  48.009  54.813  1.00  0.00     0.032 C 
ENDBRANCH  27  32
ENDBRANCH  22  23
ENDBRANCH  19  22
ENDBRANCH   1  18
TORSDOF 4
ENDMDL
MODEL 6
REMARK VINA RESULT:     -11.0      2.020      9.430
REMARK  4 active torsions:
REMARK  status: ('A' for Active; 'I' for Inactive)
REMARK    1  A    between atoms: C_2  and  N_3 
REMARK    2  A    between atoms: C_10  and  C_11 
REMARK    3  A    between atoms: C_11  and  C_12 
REMARK       I    between atoms: C_12  and  N_13 
REMARK    4  A    between atoms: N_13  and  C_14 
ROOT
HETATM    1  C   UNL     1      25.194  46.561  51.533  1.00  0.00     0.035 A 
HETATM    2  C   UNL     1      26.111  46.591  52.584  1.00  0.00     0.049 A 
HETATM    3  C   UNL     1      26.549  45.405  53.212  1.00  0.00     0.061 A 
HETATM    4  C   UNL     1      26.057  44.167  52.779  1.00  0.00     0.050 A 
HETATM    5  N   UNL     1      26.481  42.904  53.227  1.00  0.00    -0.324 N 
HETATM    6  C   UNL     1      27.724  42.533  53.667  1.00  0.00     0.245 C 
HETATM    7  O   UNL     1      27.949  41.329  53.815  1.00  0.00    -0.271 OA
HETATM    8  C   UNL     1      28.817  43.597  53.750  1.00  0.00     0.180 C 
HETATM    9  N   UNL     1      28.414  44.670  54.645  1.00  0.00    -0.334 N 
HETATM   10  C   UNL     1      27.427  45.591  54.397  1.00  0.00     0.256 C 
HETATM   11  O   UNL     1      27.249  46.569  55.119  1.00  0.00    -0.267 OA
HETATM   12  C   UNL     1      30.120  43.062  54.358  1.00  0.00     0.037 C 
HETATM   13  C   UNL     1      30.653  44.242  55.159  1.00  0.00     0.022 C 
HETATM   14  C   UNL     1      29.385  44.873  55.706  1.00  0.00     0.127 C 
HETATM   15  C   UNL     1      25.057  44.152  51.797  1.00  0.00     0.033 A 
HETATM   16  C   UNL     1      24.640  45.332  51.171  1.00  0.00     0.032 A 
HETATM   17  H   UNL     1      25.905  42.098  53.008  1.00  0.00     0.169 HD
ENDROOT
BRANCH   1  18
HETATM   18  N   UNL     1      24.834  47.685  50.761  1.00  0.00    -0.327 N 
HETATM   19  C   UNL     1      25.436  48.128  49.595  1.00  0.00     0.226 C 
HETATM   20  O   UNL     1      26.526  47.752  49.166  1.00  0.00    -0.273 OA
HETATM   21  H   UNL     1      24.021  48.208  51.070  1.00  0.00     0.169 HD
BRANCH  19  22
HETATM   22  C   UNL     1      24.560  49.034  48.745  1.00  0.00     0.144 C 
BRANCH  22  23
HETATM   23  C   UNL     1      23.088  48.827  48.900  1.00  0.00    -0.021 A 
HETATM   24  C   UNL     1      22.347  47.637  48.617  1.00  0.00    -0.001 A 
HETATM   25  C   UNL     1      20.991  47.924  48.813  1.00  0.00     0.045 A 
HETATM   26  C   UNL     1      22.712  46.341  48.190  1.00  0.00     0.014 A 
HETATM   27  N   UNL     1      20.908  49.255  49.176  1.00  0.00    -0.351 N 
HETATM   28  C   UNL     1      19.996  46.951  48.612  1.00  0.00     0.030 A 
HETATM   29  C   UNL     1      22.171  49.786  49.279  1.00  0.00     0.100 A 
HETATM   30  C   UNL     1      20.386  45.675  48.200  1.00  0.00     0.002 A 
HETATM   31  C   UNL     1      21.726  45.372  47.989  1.00  0.00     0.001 A 
BRANCH  27  32
HETATM   32  C   UNL     1      19.674  50.021  49.364  1.00  0.00     0.081 C 
HETATM   33  C   UNL     1      19.900  51.521  49.155  1.00  0.00     0.032 C 
HETATM   34  C   UNL     1      19.034  49.736  50.722  1.00  0.00     0.032 C 
ENDBRANCH  27  32
ENDBRANCH  22  23
ENDBRANCH  19  22
ENDBRANCH   1  18
TORSDOF 4
ENDMDL
MODEL 7
REMARK VINA RESULT:     -10.5      2.576      9.603
REMARK  4 active torsions:
REMARK  status: ('A' for Active; 'I' for Inactive)
REMARK    1  A    between atoms: C_2  and  N_3 
REMARK    2  A    between atoms: C_10  and  C_11 
REMARK    3  A    between atoms: C_11  and  C_12 
REMARK       I    between atoms: C_12  and  N_13 
REMARK    4  A    between atoms: N_13  and  C_14 
ROOT
HETATM    1  C   UNL     1      24.298  43.725  49.301  1.00  0.00     0.035 A 
HETATM    2  C   UNL     1      24.617  44.228  50.563  1.00  0.00     0.049 A 
HETATM    3  C   UNL     1      25.427  43.501  51.461  1.00  0.00     0.061 A 
HETATM    4  C   UNL     1      25.924  42.246  51.088  1.00  0.00     0.050 A 
HETATM    5  N   UNL     1      26.828  41.459  51.823  1.00  0.00    -0.324 N 
HETATM    6  C   UNL     1      27.823  41.876  52.667  1.00  0.00     0.245 C 
HETATM    7  O   UNL     1      28.643  41.038  53.052  1.00  0.00    -0.271 OA
HETATM    8  C   UNL     1      27.989  43.374  52.918  1.00  0.00     0.180 C 
HETATM    9  N   UNL     1      26.771  43.932  53.481  1.00  0.00    -0.334 N 
HETATM   10  C   UNL     1      25.582  44.095  52.814  1.00  0.00     0.256 C 
HETATM   11  O   UNL     1      24.643  44.723  53.297  1.00  0.00    -0.267 OA
HETATM   12  C   UNL     1      29.070  43.684  53.962  1.00  0.00     0.037 C 
HETATM   13  C   UNL     1      28.516  44.893  54.703  1.00  0.00     0.022 C 
HETATM   14  C   UNL     1      27.026  44.605  54.743  1.00  0.00     0.127 C 
HETATM   15  C   UNL     1      25.512  41.701  49.863  1.00  0.00     0.033 A 
HETATM   16  C   UNL     1      24.720  42.436  48.975  1.00  0.00     0.032 A 
HETATM   17  H   UNL     1      26.941  40.486  51.562  1.00  0.00     0.169 HD
ENDROOT
BRANCH   1  18
HETATM   18  N   UNL     1      23.629  44.460  48.299  1.00  0.00    -0.327 N 
HETATM   19  C   UNL     1      22.311  44.885  48.312  1.00  0.00     0.226 C 
HETATM   20  O   UNL     1      21.442  44.495  49.089  1.00  0.00    -0.273 OA
HETATM   21  H   UNL     1      24.182  44.742  47.497  1.00  0.00     0.169 HD
BRANCH  19  22
HETATM   22  C   UNL     1      22.019  46.040  47.366  1.00  0.00     0.144 C 
BRANCH  22  23
HETATM   23  C   UNL     1      21.368  47.230  47.993  1.00  0.00    -0.021 A 
HETATM   24  C   UNL     1      21.999  48.447  48.401  1.00  0.00    -0.001 A 
HETATM   25  C   UNL     1      21.029  49.241  49.024  1.00  0.00     0.045 A 
HETATM   26  C   UNL     1      23.321  48.937  48.310  1.00  0.00     0.014 A 
HETATM   27  N   UNL     1      19.852  48.516  49.021  1.00  0.00    -0.351 N 
HETATM   28  C   UNL     1      21.338  50.511  49.542  1.00  0.00     0.030 A 
HETATM   29  C   UNL     1      20.041  47.329  48.356  1.00  0.00     0.100 A 
HETATM   30  C   UNL     1      22.651  50.974  49.430  1.00  0.00     0.002 A 
HETATM   31  C   UNL     1      23.632  50.198  48.824  1.00  0.00     0.001 A 
BRANCH  27  32
HETATM   32  C   UNL     1      18.601  48.904  49.677  1.00  0.00     0.081 C 
HETATM   33  C   UNL     1      18.643  48.635  51.184  1.00  0.00     0.032 C 
HETATM   34  C   UNL     1      17.392  48.236  49.023  1.00  0.00     0.032 C 
ENDBRANCH  27  32
ENDBRANCH  22  23
ENDBRANCH  19  22
ENDBRANCH   1  18
TORSDOF 4
ENDMDL
MODEL 8
REMARK VINA RESULT:     -10.3      4.708      9.652
REMARK  4 active torsions:
REMARK  status: ('A' for Active; 'I' for Inactive)
REMARK    1  A    between atoms: C_2  and  N_3 
REMARK    2  A    between atoms: C_10  and  C_11 
REMARK    3  A    between atoms: C_11  and  C_12 
REMARK       I    between atoms: C_12  and  N_13 
REMARK    4  A    between atoms: N_13  and  C_14 
ROOT
HETATM    1  C   UNL     1      27.147  43.246  50.469  1.00  0.00     0.035 A 
HETATM    2  C   UNL     1      27.273  42.483  49.307  1.00  0.00     0.049 A 
HETATM    3  C   UNL     1      27.863  41.200  49.331  1.00  0.00     0.061 A 
HETATM    4  C   UNL     1      28.335  40.675  50.540  1.00  0.00     0.050 A 
HETATM    5  N   UNL     1      28.839  39.378  50.741  1.00  0.00    -0.324 N 
HETATM    6  C   UNL     1      28.492  38.224  50.091  1.00  0.00     0.245 C 
HETATM    7  O   UNL     1      28.895  37.155  50.557  1.00  0.00    -0.271 OA
HETATM    8  C   UNL     1      27.466  38.301  48.962  1.00  0.00     0.180 C 
HETATM    9  N   UNL     1      27.934  39.188  47.910  1.00  0.00    -0.334 N 
HETATM   10  C   UNL     1      28.048  40.553  48.006  1.00  0.00     0.256 C 
HETATM   11  O   UNL     1      28.292  41.258  47.030  1.00  0.00    -0.267 OA
HETATM   12  C   UNL     1      27.255  36.953  48.260  1.00  0.00     0.037 C 
HETATM   13  C   UNL     1      27.029  37.339  46.804  1.00  0.00     0.022 C 
HETATM   14  C   UNL     1      27.969  38.517  46.623  1.00  0.00     0.127 C 
HETATM   15  C   UNL     1      28.303  41.490  51.681  1.00  0.00     0.033 A 
HETATM   16  C   UNL     1      27.704  42.754  51.650  1.00  0.00     0.032 A 
HETATM   17  H   UNL     1      29.351  39.188  51.595  1.00  0.00     0.169 HD
ENDROOT
BRANCH   1  18
HETATM   18  N   UNL     1      26.432  44.460  50.547  1.00  0.00    -0.327 N 
HETATM   19  C   UNL     1      25.142  44.702  50.104  1.00  0.00     0.226 C 
HETATM   20  O   UNL     1      24.492  43.968  49.363  1.00  0.00    -0.273 OA
HETATM   21  H   UNL     1      26.898  45.232  51.011  1.00  0.00     0.169 HD
BRANCH  19  22
HETATM   22  C   UNL     1      24.479  45.911  50.746  1.00  0.00     0.144 C 
BRANCH  22  23
HETATM   23  C   UNL     1      24.386  47.124  49.879  1.00  0.00    -0.021 A 
HETATM   24  C   UNL     1      25.453  47.995  49.492  1.00  0.00    -0.001 A 
HETATM   25  C   UNL     1      24.896  49.051  48.761  1.00  0.00     0.045 A 
HETATM   26  C   UNL     1      26.847  47.987  49.717  1.00  0.00     0.014 A 
HETATM   27  N   UNL     1      23.529  48.843  48.730  1.00  0.00    -0.351 N 
HETATM   28  C   UNL     1      25.691  50.085  48.237  1.00  0.00     0.030 A 
HETATM   29  C   UNL     1      23.227  47.659  49.357  1.00  0.00     0.100 A 
HETATM   30  C   UNL     1      27.069  50.046  48.467  1.00  0.00     0.002 A 
HETATM   31  C   UNL     1      27.641  49.013  49.199  1.00  0.00     0.001 A 
BRANCH  27  32
HETATM   32  C   UNL     1      22.531  49.762  48.178  1.00  0.00     0.081 C 
HETATM   33  C   UNL     1      22.176  50.875  49.168  1.00  0.00     0.032 C 
HETATM   34  C   UNL     1      21.284  49.019  47.700  1.00  0.00     0.032 C 
ENDBRANCH  27  32
ENDBRANCH  22  23
ENDBRANCH  19  22
ENDBRANCH   1  18
TORSDOF 4
ENDMDL
MODEL 9
REMARK VINA RESULT:     -10.3      2.773      9.937
REMARK  4 active torsions:
REMARK  status: ('A' for Active; 'I' for Inactive)
REMARK    1  A    between atoms: C_2  and  N_3 
REMARK    2  A    between atoms: C_10  and  C_11 
REMARK    3  A    between atoms: C_11  and  C_12 
REMARK       I    between atoms: C_12  and  N_13 
REMARK    4  A    between atoms: N_13  and  C_14 
ROOT
HETATM    1  C   UNL     1      24.262  43.731  49.356  1.00  0.00     0.035 A 
HETATM    2  C   UNL     1      24.623  44.191  50.623  1.00  0.00     0.049 A 
HETATM    3  C   UNL     1      25.456  43.429  51.471  1.00  0.00     0.061 A 
HETATM    4  C   UNL     1      25.933  42.184  51.041  1.00  0.00     0.050 A 
HETATM    5  N   UNL     1      26.854  41.369  51.722  1.00  0.00    -0.324 N 
HETATM    6  C   UNL     1      27.877  41.752  52.548  1.00  0.00     0.245 C 
HETATM    7  O   UNL     1      28.704  40.898  52.879  1.00  0.00    -0.271 OA
HETATM    8  C   UNL     1      28.061  43.240  52.842  1.00  0.00     0.180 C 
HETATM    9  N   UNL     1      26.864  43.787  53.461  1.00  0.00    -0.334 N 
HETATM   10  C   UNL     1      25.657  43.978  52.838  1.00  0.00     0.256 C 
HETATM   11  O   UNL     1      24.737  44.595  53.370  1.00  0.00    -0.267 OA
HETATM   12  C   UNL     1      29.176  43.510  53.861  1.00  0.00     0.037 C 
HETATM   13  C   UNL     1      28.653  44.697  54.659  1.00  0.00     0.022 C 
HETATM   14  C   UNL     1      27.163  44.416  54.736  1.00  0.00     0.127 C 
HETATM   15  C   UNL     1      25.479  41.682  49.813  1.00  0.00     0.033 A 
HETATM   16  C   UNL     1      24.665  42.451  48.974  1.00  0.00     0.032 A 
HETATM   17  H   UNL     1      26.952  40.404  51.426  1.00  0.00     0.169 HD
ENDROOT
BRANCH   1  18
HETATM   18  N   UNL     1      23.567  44.502  48.400  1.00  0.00    -0.327 N 
HETATM   19  C   UNL     1      22.228  44.858  48.424  1.00  0.00     0.226 C 
HETATM   20  O   UNL     1      21.372  44.369  49.158  1.00  0.00    -0.273 OA
HETATM   21  H   UNL     1      24.113  44.869  47.628  1.00  0.00     0.169 HD
BRANCH  19  22
HETATM   22  C   UNL     1      21.888  46.062  47.560  1.00  0.00     0.144 C 
BRANCH  22  23
HETATM   23  C   UNL     1      21.034  47.098  48.216  1.00  0.00    -0.021 A 
HETATM   24  C   UNL     1      19.611  47.080  48.365  1.00  0.00    -0.001 A 
HETATM   25  C   UNL     1      19.229  48.292  48.951  1.00  0.00     0.045 A 
HETATM   26  C   UNL     1      18.610  46.141  48.032  1.00  0.00     0.014 A 
HETATM   27  N   UNL     1      20.381  49.036  49.127  1.00  0.00    -0.351 N 
HETATM   28  C   UNL     1      17.883  48.585  49.228  1.00  0.00     0.030 A 
HETATM   29  C   UNL     1      21.472  48.300  48.733  1.00  0.00     0.100 A 
HETATM   30  C   UNL     1      16.914  47.634  48.897  1.00  0.00     0.002 A 
HETATM   31  C   UNL     1      17.270  46.428  48.305  1.00  0.00     0.001 A 
BRANCH  27  32
HETATM   32  C   UNL     1      20.448  50.422  49.596  1.00  0.00     0.081 C 
HETATM   33  C   UNL     1      19.973  51.407  48.524  1.00  0.00     0.032 C 
HETATM   34  C   UNL     1      21.844  50.778  50.104  1.00  0.00     0.032 C 
ENDBRANCH  27  32
ENDBRANCH  22  23
ENDBRANCH  19  22
ENDBRANCH   1  18
TORSDOF 4
ENDMDL
MODEL 10
REMARK VINA RESULT:      -9.9      3.389      6.515
REMARK  4 active torsions:
REMARK  status: ('A' for Active; 'I' for Inactive)
REMARK    1  A    between atoms: C_2  and  N_3 
REMARK    2  A    between atoms: C_10  and  C_11 
REMARK    3  A    between atoms: C_11  and  C_12 
REMARK       I    between atoms: C_12  and  N_13 
REMARK    4  A    between atoms: N_13  and  C_14 
ROOT
HETATM    1  C   UNL     1      21.337  49.345  49.382  1.00  0.00     0.035 A 
HETATM    2  C   UNL     1      20.082  48.761  49.208  1.00  0.00     0.049 A 
HETATM    3  C   UNL     1      18.970  49.520  48.784  1.00  0.00     0.061 A 
HETATM    4  C   UNL     1      19.120  50.889  48.532  1.00  0.00     0.050 A 
HETATM    5  N   UNL     1      18.141  51.746  48.000  1.00  0.00    -0.324 N 
HETATM    6  C   UNL     1      17.135  51.444  47.121  1.00  0.00     0.245 C 
HETATM    7  O   UNL     1      16.511  52.379  46.612  1.00  0.00    -0.271 OA
HETATM    8  C   UNL     1      16.979  49.995  46.660  1.00  0.00     0.180 C 
HETATM    9  N   UNL     1      16.746  49.123  47.800  1.00  0.00    -0.334 N 
HETATM   10  C   UNL     1      17.670  48.801  48.763  1.00  0.00     0.256 C 
HETATM   11  O   UNL     1      17.459  47.930  49.604  1.00  0.00    -0.267 OA
HETATM   12  C   UNL     1      15.751  49.788  45.764  1.00  0.00     0.037 C 
HETATM   13  C   UNL     1      15.253  48.403  46.153  1.00  0.00     0.022 C 
HETATM   14  C   UNL     1      15.519  48.361  47.647  1.00  0.00     0.127 C 
HETATM   15  C   UNL     1      20.356  51.490  48.812  1.00  0.00     0.033 A 
HETATM   16  C   UNL     1      21.455  50.725  49.219  1.00  0.00     0.032 A 
HETATM   17  H   UNL     1      18.289  52.748  48.070  1.00  0.00     0.169 HD
ENDROOT
BRANCH   1  18
HETATM   18  N   UNL     1      22.519  48.622  49.650  1.00  0.00    -0.327 N 
HETATM   19  C   UNL     1      23.687  48.621  48.906  1.00  0.00     0.226 C 
HETATM   20  O   UNL     1      23.808  49.067  47.767  1.00  0.00    -0.273 OA
HETATM   21  H   UNL     1      22.531  48.069  50.501  1.00  0.00     0.169 HD
BRANCH  19  22
HETATM   22  C   UNL     1      24.916  48.160  49.674  1.00  0.00     0.144 C 
BRANCH  22  23
HETATM   23  C   UNL     1      24.767  46.858  50.393  1.00  0.00    -0.021 A 
HETATM   24  C   UNL     1      25.177  46.557  51.730  1.00  0.00    -0.001 A 
HETATM   25  C   UNL     1      24.932  45.198  51.954  1.00  0.00     0.045 A 
HETATM   26  C   UNL     1      25.754  47.323  52.768  1.00  0.00     0.014 A 
HETATM   27  N   UNL     1      24.417  44.681  50.779  1.00  0.00    -0.351 N 
HETATM   28  C   UNL     1      25.232  44.587  53.184  1.00  0.00     0.030 A 
HETATM   29  C   UNL     1      24.269  45.689  49.857  1.00  0.00     0.100 A 
HETATM   30  C   UNL     1      25.793  45.371  54.196  1.00  0.00     0.002 A 
HETATM   31  C   UNL     1      26.053  46.720  53.992  1.00  0.00     0.001 A 
BRANCH  27  32
HETATM   32  C   UNL     1      24.128  43.271  50.512  1.00  0.00     0.081 C 
HETATM   33  C   UNL     1      25.273  42.590  49.756  1.00  0.00     0.032 C 
HETATM   34  C   UNL     1      22.796  43.097  49.785  1.00  0.00     0.032 C 
ENDBRANCH  27  32
ENDBRANCH  22  23
ENDBRANCH  19  22
ENDBRANCH   1  18
TORSDOF 4
ENDMDL
