MODEL 1
REMARK VINA RESULT:     -10.4      0.000      0.000
REMARK  1 active torsions:
REMARK  status: ('A' for Active; 'I' for Inactive)
REMARK    1  A    between atoms: C_8  and  C_9 
ROOT
HETATM    1  C   UNL     1      29.736  42.506  52.927  1.00  0.00     0.049 C 
HETATM    2  C   UNL     1      29.707  43.452  54.098  1.00  0.00    -0.050 A 
HETATM    3  C   UNL     1      28.733  44.462  54.233  1.00  0.00    -0.002 A 
HETATM    4  C   UNL     1      28.752  45.301  55.365  1.00  0.00     0.051 A 
HETATM    5  N   UNL     1      27.752  46.276  55.495  1.00  0.00    -0.322 N 
HETATM    6  C   UNL     1      26.753  46.485  54.588  1.00  0.00     0.256 A 
HETATM    7  O   UNL     1      25.881  47.325  54.794  1.00  0.00    -0.267 OA
HETATM    8  C   UNL     1      26.765  45.663  53.343  1.00  0.00     0.053 A 
HETATM    9  C   UNL     1      27.694  44.697  53.219  1.00  0.00     0.031 A 
HETATM   10  C   UNL     1      29.740  45.165  56.355  1.00  0.00    -0.034 A 
HETATM   11  C   UNL     1      29.797  46.063  57.559  1.00  0.00     0.050 C 
HETATM   12  C   UNL     1      30.699  44.158  56.208  1.00  0.00     0.009 A 
HETATM   13  C   UNL     1      30.680  43.311  55.098  1.00  0.00     0.008 A 
HETATM   14  H   UNL     1      27.724  46.872  56.310  1.00  0.00     0.169 HD
ENDROOT
BRANCH   8  15
HETATM   15  C   UNL     1      25.677  46.026  52.360  1.00  0.00     0.224 C 
HETATM   16  N   UNL     1      26.243  46.486  51.126  1.00  0.00    -0.331 N 
HETATM   17  C   UNL     1      26.679  45.644  50.143  1.00  0.00     0.255 C 
HETATM   18  H   UNL     1      26.699  47.390  51.145  1.00  0.00     0.165 HD
HETATM   19  O   UNL     1      27.466  46.011  49.279  1.00  0.00    -0.268 OA
HETATM   20  C   UNL     1      26.128  44.277  50.167  1.00  0.00     0.058 A 
HETATM   21  C   UNL     1      25.175  43.971  51.149  1.00  0.00     0.045 A 
HETATM   22  C   UNL     1      26.528  43.331  49.218  1.00  0.00     0.019 A 
HETATM   23  N   UNL     1      24.755  44.932  52.075  1.00  0.00    -0.364 N 
HETATM   24  C   UNL     1      24.570  42.710  51.110  1.00  0.00     0.030 A 
HETATM   25  H   UNL     1      24.303  44.556  52.899  1.00  0.00     0.162 HD
HETATM   26  C   UNL     1      24.966  41.758  50.165  1.00  0.00     0.002 A 
HETATM   27  C   UNL     1      25.951  42.064  49.226  1.00  0.00     0.001 A 
ENDBRANCH   8  15
TORSDOF 1
ENDMDL
MODEL 2
REMARK VINA RESULT:     -10.3      2.232      3.852
REMARK  1 active torsions:
REMARK  status: ('A' for Active; 'I' for Inactive)
REMARK    1  A    between atoms: C_8  and  C_9 
ROOT
HETATM    1  C   UNL     1      27.749  47.098  55.361  1.00  0.00     0.049 C 
HETATM    2  C   UNL     1      28.764  46.038  55.694  1.00  0.00    -0.050 A 
HETATM    3  C   UNL     1      28.920  44.869  54.922  1.00  0.00    -0.002 A 
HETATM    4  C   UNL     1      29.905  43.926  55.278  1.00  0.00     0.051 A 
HETATM    5  N   UNL     1      30.066  42.787  54.474  1.00  0.00    -0.322 N 
HETATM    6  C   UNL     1      29.322  42.513  53.364  1.00  0.00     0.256 A 
HETATM    7  O   UNL     1      29.553  41.519  52.679  1.00  0.00    -0.267 OA
HETATM    8  C   UNL     1      28.218  43.457  53.019  1.00  0.00     0.053 A 
HETATM    9  C   UNL     1      28.074  44.575  53.755  1.00  0.00     0.031 A 
HETATM   10  C   UNL     1      30.722  44.117  56.404  1.00  0.00    -0.034 A 
HETATM   11  C   UNL     1      31.763  43.115  56.820  1.00  0.00     0.050 C 
HETATM   12  C   UNL     1      30.557  45.282  57.160  1.00  0.00     0.009 A 
HETATM   13  C   UNL     1      29.595  46.231  56.807  1.00  0.00     0.008 A 
HETATM   14  H   UNL     1      30.783  42.109  54.689  1.00  0.00     0.169 HD
ENDROOT
BRANCH   8  15
HETATM   15  C   UNL     1      27.393  43.026  51.829  1.00  0.00     0.224 C 
HETATM   16  N   UNL     1      25.997  43.039  52.151  1.00  0.00    -0.331 N 
HETATM   17  C   UNL     1      25.231  44.170  52.116  1.00  0.00     0.255 C 
HETATM   18  H   UNL     1      25.672  42.326  52.793  1.00  0.00     0.165 HD
HETATM   19  O   UNL     1      24.168  44.250  52.719  1.00  0.00    -0.268 OA
HETATM   20  C   UNL     1      25.746  45.277  51.290  1.00  0.00     0.058 A 
HETATM   21  C   UNL     1      26.934  45.065  50.576  1.00  0.00     0.045 A 
HETATM   22  C   UNL     1      25.049  46.485  51.205  1.00  0.00     0.019 A 
HETATM   23  N   UNL     1      27.608  43.841  50.639  1.00  0.00    -0.364 N 
HETATM   24  C   UNL     1      27.369  46.071  49.707  1.00  0.00     0.030 A 
HETATM   25  H   UNL     1      28.575  43.875  50.339  1.00  0.00     0.162 HD
HETATM   26  C   UNL     1      26.678  47.284  49.619  1.00  0.00     0.002 A 
HETATM   27  C   UNL     1      25.525  47.496  50.374  1.00  0.00     0.001 A 
ENDBRANCH   8  15
TORSDOF 1
ENDMDL
MODEL 3
REMARK VINA RESULT:      -9.4      6.239      8.737
REMARK  1 active torsions:
REMARK  status: ('A' for Active; 'I' for Inactive)
REMARK    1  A    between atoms: C_8  and  C_9 
ROOT
HETATM    1  C   UNL     1      24.427  50.022  48.615  1.00  0.00     0.049 C 
HETATM    2  C   UNL     1      24.691  48.617  49.088  1.00  0.00    -0.050 A 
HETATM    3  C   UNL     1      23.695  47.619  49.091  1.00  0.00    -0.002 A 
HETATM    4  C   UNL     1      24.015  46.318  49.528  1.00  0.00     0.051 A 
HETATM    5  N   UNL     1      23.017  45.333  49.490  1.00  0.00    -0.322 N 
HETATM    6  C   UNL     1      21.737  45.545  49.067  1.00  0.00     0.256 A 
HETATM    7  O   UNL     1      20.930  44.620  49.014  1.00  0.00    -0.267 OA
HETATM    8  C   UNL     1      21.356  46.935  48.681  1.00  0.00     0.053 A 
HETATM    9  C   UNL     1      22.310  47.885  48.674  1.00  0.00     0.031 A 
HETATM   10  C   UNL     1      25.305  46.000  49.983  1.00  0.00    -0.034 A 
HETATM   11  C   UNL     1      25.666  44.627  50.477  1.00  0.00     0.050 C 
HETATM   12  C   UNL     1      26.283  47.000  49.972  1.00  0.00     0.009 A 
HETATM   13  C   UNL     1      25.982  48.288  49.526  1.00  0.00     0.008 A 
HETATM   14  H   UNL     1      23.226  44.385  49.770  1.00  0.00     0.169 HD
ENDROOT
BRANCH   8  15
HETATM   15  C   UNL     1      19.899  47.091  48.313  1.00  0.00     0.224 C 
HETATM   16  N   UNL     1      19.084  47.140  49.490  1.00  0.00    -0.331 N 
HETATM   17  C   UNL     1      18.893  48.278  50.221  1.00  0.00     0.255 C 
HETATM   18  H   UNL     1      18.988  46.278  50.013  1.00  0.00     0.165 HD
HETATM   19  O   UNL     1      18.509  48.243  51.384  1.00  0.00    -0.268 OA
HETATM   20  C   UNL     1      19.150  49.550  49.521  1.00  0.00     0.058 A 
HETATM   21  C   UNL     1      19.512  49.493  48.169  1.00  0.00     0.045 A 
HETATM   22  C   UNL     1      19.006  50.771  50.188  1.00  0.00     0.019 A 
HETATM   23  N   UNL     1      19.622  48.269  47.499  1.00  0.00    -0.364 N 
HETATM   24  C   UNL     1      19.652  50.698  47.472  1.00  0.00     0.030 A 
HETATM   25  H   UNL     1      20.155  48.303  46.639  1.00  0.00     0.162 HD
HETATM   26  C   UNL     1      19.512  51.923  48.132  1.00  0.00     0.002 A 
HETATM   27  C   UNL     1      19.199  51.960  49.491  1.00  0.00     0.001 A 
ENDBRANCH   8  15
TORSDOF 1
ENDMDL
MODEL 4
REMARK VINA RESULT:      -8.7      3.206      4.867
REMARK  1 active torsions:
REMARK  status: ('A' for Active; 'I' for Inactive)
REMARK    1  A    between atoms: C_8  and  C_9 
ROOT
HETATM    1  C   UNL     1      28.445  41.088  53.388  1.00  0.00     0.049 C 
HETATM    2  C   UNL     1      27.881  42.475  53.239  1.00  0.00    -0.050 A 
HETATM    3  C   UNL     1      27.047  42.844  52.164  1.00  0.00    -0.002 A 
HETATM    4  C   UNL     1      26.536  44.155  52.097  1.00  0.00     0.051 A 
HETATM    5  N   UNL     1      25.680  44.489  51.037  1.00  0.00    -0.322 N 
HETATM    6  C   UNL     1      25.308  43.631  50.044  1.00  0.00     0.256 A 
HETATM    7  O   UNL     1      24.513  43.979  49.174  1.00  0.00    -0.267 OA
HETATM    8  C   UNL     1      25.905  42.263  50.050  1.00  0.00     0.053 A 
HETATM    9  C   UNL     1      26.698  41.913  51.081  1.00  0.00     0.031 A 
HETATM   10  C   UNL     1      26.860  45.114  53.072  1.00  0.00    -0.034 A 
HETATM   11  C   UNL     1      26.348  46.526  53.011  1.00  0.00     0.050 C 
HETATM   12  C   UNL     1      27.688  44.733  54.134  1.00  0.00     0.009 A 
HETATM   13  C   UNL     1      28.187  43.432  54.218  1.00  0.00     0.008 A 
HETATM   14  H   UNL     1      25.276  45.413  50.980  1.00  0.00     0.169 HD
ENDROOT
BRANCH   8  15
HETATM   15  C   UNL     1      25.506  41.415  48.866  1.00  0.00     0.224 C 
HETATM   16  N   UNL     1      26.385  41.649  47.758  1.00  0.00    -0.331 N 
HETATM   17  C   UNL     1      27.601  41.042  47.626  1.00  0.00     0.255 C 
HETATM   18  H   UNL     1      26.307  42.548  47.299  1.00  0.00     0.165 HD
HETATM   19  O   UNL     1      28.476  41.498  46.900  1.00  0.00    -0.268 OA
HETATM   20  C   UNL     1      27.790  39.794  48.388  1.00  0.00     0.058 A 
HETATM   21  C   UNL     1      26.706  39.310  49.133  1.00  0.00     0.045 A 
HETATM   22  C   UNL     1      29.007  39.107  48.339  1.00  0.00     0.019 A 
HETATM   23  N   UNL     1      25.480  39.985  49.150  1.00  0.00    -0.364 N 
HETATM   24  C   UNL     1      26.844  38.072  49.769  1.00  0.00     0.030 A 
HETATM   25  H   UNL     1      24.870  39.734  49.919  1.00  0.00     0.162 HD
HETATM   26  C   UNL     1      28.059  37.380  49.727  1.00  0.00     0.002 A 
HETATM   27  C   UNL     1      29.143  37.901  49.022  1.00  0.00     0.001 A 
ENDBRANCH   8  15
TORSDOF 1
ENDMDL
MODEL 5
REMARK VINA RESULT:      -8.6     12.461     14.151
REMARK  1 active torsions:
REMARK  status: ('A' for Active; 'I' for Inactive)
REMARK    1  A    between atoms: C_8  and  C_9 
ROOT
HETATM    1  C   UNL     1      32.283  48.230  42.221  1.00  0.00     0.049 C 
HETATM    2  C   UNL     1      32.627  49.510  41.509  1.00  0.00    -0.050 A 
HETATM    3  C   UNL     1      31.648  50.447  41.119  1.00  0.00    -0.002 A 
HETATM    4  C   UNL     1      32.041  51.637  40.473  1.00  0.00     0.051 A 
HETATM    5  N   UNL     1      31.054  52.570  40.125  1.00  0.00    -0.322 N 
HETATM    6  C   UNL     1      29.719  52.406  40.357  1.00  0.00     0.256 A 
HETATM    7  O   UNL     1      28.916  53.290  40.069  1.00  0.00    -0.267 OA
HETATM    8  C   UNL     1      29.274  51.116  40.962  1.00  0.00     0.053 A 
HETATM    9  C   UNL     1      30.211  50.226  41.338  1.00  0.00     0.031 A 
HETATM   10  C   UNL     1      33.392  51.899  40.190  1.00  0.00    -0.034 A 
HETATM   11  C   UNL     1      33.836  53.148  39.481  1.00  0.00     0.050 C 
HETATM   12  C   UNL     1      34.352  50.961  40.585  1.00  0.00     0.009 A 
HETATM   13  C   UNL     1      33.975  49.787  41.239  1.00  0.00     0.008 A 
HETATM   14  H   UNL     1      31.309  53.444  39.688  1.00  0.00     0.169 HD
ENDROOT
BRANCH   8  15
HETATM   15  C   UNL     1      27.775  50.988  41.098  1.00  0.00     0.224 C 
HETATM   16  N   UNL     1      27.133  51.214  39.837  1.00  0.00    -0.331 N 
HETATM   17  C   UNL     1      27.004  50.248  38.880  1.00  0.00     0.255 C 
HETATM   18  H   UNL     1      27.144  52.163  39.484  1.00  0.00     0.165 HD
HETATM   19  O   UNL     1      26.790  50.526  37.706  1.00  0.00    -0.268 OA
HETATM   20  C   UNL     1      27.111  48.853  39.345  1.00  0.00     0.058 A 
HETATM   21  C   UNL     1      27.281  48.632  40.719  1.00  0.00     0.045 A 
HETATM   22  C   UNL     1      27.016  47.792  38.440  1.00  0.00     0.019 A 
HETATM   23  N   UNL     1      27.341  49.699  41.623  1.00  0.00    -0.364 N 
HETATM   24  C   UNL     1      27.275  47.311  41.179  1.00  0.00     0.030 A 
HETATM   25  H   UNL     1      27.746  49.468  42.522  1.00  0.00     0.162 HD
HETATM   26  C   UNL     1      27.183  46.243  40.280  1.00  0.00     0.002 A 
HETATM   27  C   UNL     1      27.064  46.482  38.911  1.00  0.00     0.001 A 
ENDBRANCH   8  15
TORSDOF 1
ENDMDL
MODEL 6
REMARK VINA RESULT:      -8.6     12.612     14.404
REMARK  1 active torsions:
REMARK  status: ('A' for Active; 'I' for Inactive)
REMARK    1  A    between atoms: C_8  and  C_9 
ROOT
HETATM    1  C   UNL     1      31.199  47.305  40.122  1.00  0.00     0.049 C 
HETATM    2  C   UNL     1      29.717  47.516  40.286  1.00  0.00    -0.050 A 
HETATM    3  C   UNL     1      29.162  48.767  40.623  1.00  0.00    -0.002 A 
HETATM    4  C   UNL     1      27.764  48.899  40.741  1.00  0.00     0.051 A 
HETATM    5  N   UNL     1      27.232  50.162  41.042  1.00  0.00    -0.322 N 
HETATM    6  C   UNL     1      27.978  51.287  41.245  1.00  0.00     0.256 A 
HETATM    7  O   UNL     1      27.439  52.371  41.456  1.00  0.00    -0.267 OA
HETATM    8  C   UNL     1      29.463  51.150  41.208  1.00  0.00     0.053 A 
HETATM    9  C   UNL     1      29.990  49.954  40.881  1.00  0.00     0.031 A 
HETATM   10  C   UNL     1      26.910  47.800  40.551  1.00  0.00    -0.034 A 
HETATM   11  C   UNL     1      25.418  47.908  40.695  1.00  0.00     0.050 C 
HETATM   12  C   UNL     1      27.476  46.565  40.216  1.00  0.00     0.009 A 
HETATM   13  C   UNL     1      28.858  46.426  40.081  1.00  0.00     0.008 A 
HETATM   14  H   UNL     1      26.232  50.292  41.105  1.00  0.00     0.169 HD
ENDROOT
BRANCH   8  15
HETATM   15  C   UNL     1      30.204  52.426  41.531  1.00  0.00     0.224 C 
HETATM   16  N   UNL     1      30.702  52.393  42.874  1.00  0.00    -0.331 N 
HETATM   17  C   UNL     1      31.868  51.773  43.226  1.00  0.00     0.255 C 
HETATM   18  H   UNL     1      30.015  52.458  43.616  1.00  0.00     0.165 HD
HETATM   19  O   UNL     1      32.101  51.443  44.383  1.00  0.00    -0.268 OA
HETATM   20  C   UNL     1      32.838  51.549  42.139  1.00  0.00     0.058 A 
HETATM   21  C   UNL     1      32.515  52.030  40.862  1.00  0.00     0.045 A 
HETATM   22  C   UNL     1      34.051  50.902  42.390  1.00  0.00     0.019 A 
HETATM   23  N   UNL     1      31.313  52.706  40.626  1.00  0.00    -0.364 N 
HETATM   24  C   UNL     1      33.476  51.916  39.853  1.00  0.00     0.030 A 
HETATM   25  H   UNL     1      31.039  52.755  39.652  1.00  0.00     0.162 HD
HETATM   26  C   UNL     1      34.691  51.268  40.095  1.00  0.00     0.002 A 
HETATM   27  C   UNL     1      34.975  50.752  41.359  1.00  0.00     0.001 A 
ENDBRANCH   8  15
TORSDOF 1
ENDMDL
MODEL 7
REMARK VINA RESULT:      -8.4      9.558     12.859
REMARK  1 active torsions:
REMARK  status: ('A' for Active; 'I' for Inactive)
REMARK    1  A    between atoms: C_8  and  C_9 
ROOT
HETATM    1  C   UNL     1      16.830  52.364  47.689  1.00  0.00     0.049 C 
HETATM    2  C   UNL     1      16.123  51.171  47.104  1.00  0.00    -0.050 A 
HETATM    3  C   UNL     1      16.406  49.850  47.506  1.00  0.00    -0.002 A 
HETATM    4  C   UNL     1      15.692  48.780  46.932  1.00  0.00     0.051 A 
HETATM    5  N   UNL     1      15.967  47.476  47.372  1.00  0.00    -0.322 N 
HETATM    6  C   UNL     1      16.897  47.160  48.319  1.00  0.00     0.256 A 
HETATM    7  O   UNL     1      17.048  45.999  48.691  1.00  0.00    -0.267 OA
HETATM    8  C   UNL     1      17.722  48.271  48.878  1.00  0.00     0.053 A 
HETATM    9  C   UNL     1      17.446  49.532  48.496  1.00  0.00     0.031 A 
HETATM   10  C   UNL     1      14.714  49.001  45.948  1.00  0.00    -0.034 A 
HETATM   11  C   UNL     1      13.955  47.876  45.302  1.00  0.00     0.050 C 
HETATM   12  C   UNL     1      14.442  50.318  45.561  1.00  0.00     0.009 A 
HETATM   13  C   UNL     1      15.133  51.387  46.134  1.00  0.00     0.008 A 
HETATM   14  H   UNL     1      15.450  46.693  46.999  1.00  0.00     0.169 HD
ENDROOT
BRANCH   8  15
HETATM   15  C   UNL     1      18.784  47.815  49.851  1.00  0.00     0.224 C 
HETATM   16  N   UNL     1      19.633  46.831  49.249  1.00  0.00    -0.331 N 
HETATM   17  C   UNL     1      20.687  47.145  48.439  1.00  0.00     0.255 C 
HETATM   18  H   UNL     1      19.223  45.920  49.078  1.00  0.00     0.165 HD
HETATM   19  O   UNL     1      21.170  46.332  47.660  1.00  0.00    -0.268 OA
HETATM   20  C   UNL     1      21.225  48.511  48.574  1.00  0.00     0.058 A 
HETATM   21  C   UNL     1      20.655  49.346  49.545  1.00  0.00     0.045 A 
HETATM   22  C   UNL     1      22.288  48.940  47.775  1.00  0.00     0.019 A 
HETATM   23  N   UNL     1      19.613  48.899  50.365  1.00  0.00    -0.364 N 
HETATM   24  C   UNL     1      21.232  50.604  49.752  1.00  0.00     0.030 A 
HETATM   25  H   UNL     1      19.085  49.636  50.818  1.00  0.00     0.162 HD
HETATM   26  C   UNL     1      22.294  51.042  48.955  1.00  0.00     0.002 A 
HETATM   27  C   UNL     1      22.816  50.215  47.960  1.00  0.00     0.001 A 
ENDBRANCH   8  15
TORSDOF 1
ENDMDL
MODEL 8
REMARK VINA RESULT:      -8.0     14.886     17.290
REMARK  1 active torsions:
REMARK  status: ('A' for Active; 'I' for Inactive)
REMARK    1  A    between atoms: C_8  and  C_9 
ROOT
HETATM    1  C   UNL     1      42.193  46.470  64.928  1.00  0.00     0.049 C 
HETATM    2  C   UNL     1      42.139  44.981  65.136  1.00  0.00    -0.050 A 
HETATM    3  C   UNL     1      41.025  44.203  64.761  1.00  0.00    -0.002 A 
HETATM    4  C   UNL     1      41.048  42.809  64.966  1.00  0.00     0.051 A 
HETATM    5  N   UNL     1      39.942  42.051  64.553  1.00  0.00    -0.322 N 
HETATM    6  C   UNL     1      38.823  42.570  63.970  1.00  0.00     0.256 A 
HETATM    7  O   UNL     1      37.914  41.838  63.588  1.00  0.00    -0.267 OA
HETATM    8  C   UNL     1      38.743  44.053  63.822  1.00  0.00     0.053 A 
HETATM    9  C   UNL     1      39.811  44.793  64.176  1.00  0.00     0.031 A 
HETATM   10  C   UNL     1      42.155  42.179  65.559  1.00  0.00    -0.034 A 
HETATM   11  C   UNL     1      42.196  40.697  65.810  1.00  0.00     0.050 C 
HETATM   12  C   UNL     1      43.254  42.964  65.924  1.00  0.00     0.009 A 
HETATM   13  C   UNL     1      43.248  44.343  65.711  1.00  0.00     0.008 A 
HETATM   14  H   UNL     1      39.944  41.047  64.661  1.00  0.00     0.169 HD
ENDROOT
BRANCH   8  15
HETATM   15  C   UNL     1      37.433  44.542  63.250  1.00  0.00     0.224 C 
HETATM   16  N   UNL     1      36.331  44.049  64.022  1.00  0.00    -0.331 N 
HETATM   17  C   UNL     1      35.904  44.638  65.178  1.00  0.00     0.255 C 
HETATM   18  H   UNL     1      36.134  43.058  63.952  1.00  0.00     0.165 HD
HETATM   19  O   UNL     1      35.224  44.034  65.999  1.00  0.00    -0.268 OA
HETATM   20  C   UNL     1      36.286  46.050  65.367  1.00  0.00     0.058 A 
HETATM   21  C   UNL     1      37.000  46.679  64.338  1.00  0.00     0.045 A 
HETATM   22  C   UNL     1      35.918  46.737  66.528  1.00  0.00     0.019 A 
HETATM   23  N   UNL     1      37.336  45.994  63.165  1.00  0.00    -0.364 N 
HETATM   24  C   UNL     1      37.271  48.046  64.465  1.00  0.00     0.030 A 
HETATM   25  H   UNL     1      38.078  46.421  62.624  1.00  0.00     0.162 HD
HETATM   26  C   UNL     1      36.908  48.740  65.624  1.00  0.00     0.002 A 
HETATM   27  C   UNL     1      36.242  48.085  66.659  1.00  0.00     0.001 A 
ENDBRANCH   8  15
TORSDOF 1
ENDMDL
MODEL 9
REMARK VINA RESULT:      -8.0     12.016     13.847
REMARK  1 active torsions:
REMARK  status: ('A' for Active; 'I' for Inactive)
REMARK    1  A    between atoms: C_8  and  C_9 
ROOT
HETATM    1  C   UNL     1      30.949  48.636  42.518  1.00  0.00     0.049 C 
HETATM    2  C   UNL     1      30.599  49.953  41.879  1.00  0.00    -0.050 A 
HETATM    3  C   UNL     1      29.727  50.053  40.775  1.00  0.00    -0.002 A 
HETATM    4  C   UNL     1      29.426  51.320  40.239  1.00  0.00     0.051 A 
HETATM    5  N   UNL     1      28.529  51.398  39.163  1.00  0.00    -0.322 N 
HETATM    6  C   UNL     1      27.927  50.321  38.579  1.00  0.00     0.256 A 
HETATM    7  O   UNL     1      27.113  50.470  37.671  1.00  0.00    -0.267 OA
HETATM    8  C   UNL     1      28.298  48.965  39.077  1.00  0.00     0.053 A 
HETATM    9  C   UNL     1      29.127  48.873  40.135  1.00  0.00     0.031 A 
HETATM   10  C   UNL     1      29.995  52.490  40.770  1.00  0.00    -0.034 A 
HETATM   11  C   UNL     1      29.709  53.851  40.201  1.00  0.00     0.050 C 
HETATM   12  C   UNL     1      30.856  52.375  41.866  1.00  0.00     0.009 A 
HETATM   13  C   UNL     1      31.150  51.126  42.416  1.00  0.00     0.008 A 
HETATM   14  H   UNL     1      28.273  52.295  38.777  1.00  0.00     0.169 HD
ENDROOT
BRANCH   8  15
HETATM   15  C   UNL     1      27.651  47.833  38.314  1.00  0.00     0.224 C 
HETATM   16  N   UNL     1      28.358  46.606  38.534  1.00  0.00    -0.331 N 
HETATM   17  C   UNL     1      28.160  45.815  39.630  1.00  0.00     0.255 C 
HETATM   18  H   UNL     1      29.277  46.529  38.115  1.00  0.00     0.165 HD
HETATM   19  O   UNL     1      28.990  44.988  39.989  1.00  0.00    -0.268 OA
HETATM   20  C   UNL     1      26.880  45.996  40.339  1.00  0.00     0.058 A 
HETATM   21  C   UNL     1      25.962  46.913  39.810  1.00  0.00     0.045 A 
HETATM   22  C   UNL     1      26.590  45.250  41.485  1.00  0.00     0.019 A 
HETATM   23  N   UNL     1      26.245  47.631  38.643  1.00  0.00    -0.364 N 
HETATM   24  C   UNL     1      24.705  47.010  40.415  1.00  0.00     0.030 A 
HETATM   25  H   UNL     1      25.673  48.455  38.503  1.00  0.00     0.162 HD
HETATM   26  C   UNL     1      24.407  46.270  41.564  1.00  0.00     0.002 A 
HETATM   27  C   UNL     1      25.352  45.398  42.105  1.00  0.00     0.001 A 
ENDBRANCH   8  15
TORSDOF 1
ENDMDL
MODEL 10
REMARK VINA RESULT:      -7.9      9.007     11.184
REMARK  1 active torsions:
REMARK  status: ('A' for Active; 'I' for Inactive)
REMARK    1  A    between atoms: C_8  and  C_9 
ROOT
HETATM    1  C   UNL     1      19.481  51.867  48.454  1.00  0.00     0.049 C 
HETATM    2  C   UNL     1      20.540  50.823  48.688  1.00  0.00    -0.050 A 
HETATM    3  C   UNL     1      20.250  49.444  48.725  1.00  0.00    -0.002 A 
HETATM    4  C   UNL     1      21.293  48.519  48.928  1.00  0.00     0.051 A 
HETATM    5  N   UNL     1      20.986  47.150  48.925  1.00  0.00    -0.322 N 
HETATM    6  C   UNL     1      19.733  46.639  48.751  1.00  0.00     0.256 A 
HETATM    7  O   UNL     1      19.547  45.425  48.711  1.00  0.00    -0.267 OA
HETATM    8  C   UNL     1      18.603  47.604  48.619  1.00  0.00     0.053 A 
HETATM    9  C   UNL     1      18.883  48.921  48.580  1.00  0.00     0.031 A 
HETATM   10  C   UNL     1      22.618  48.945  49.118  1.00  0.00    -0.034 A 
HETATM   11  C   UNL     1      23.745  47.981  49.360  1.00  0.00     0.050 C 
HETATM   12  C   UNL     1      22.890  50.317  49.077  1.00  0.00     0.009 A 
HETATM   13  C   UNL     1      21.867  51.241  48.861  1.00  0.00     0.008 A 
HETATM   14  H   UNL     1      21.718  46.463  49.040  1.00  0.00     0.169 HD
ENDROOT
BRANCH   8  15
HETATM   15  C   UNL     1      17.245  46.949  48.520  1.00  0.00     0.224 C 
HETATM   16  N   UNL     1      16.208  47.937  48.487  1.00  0.00    -0.331 N 
HETATM   17  C   UNL     1      15.836  48.594  47.349  1.00  0.00     0.255 C 
HETATM   18  H   UNL     1      16.038  48.446  49.346  1.00  0.00     0.165 HD
HETATM   19  O   UNL     1      15.228  49.657  47.385  1.00  0.00    -0.268 OA
HETATM   20  C   UNL     1      16.187  47.937  46.076  1.00  0.00     0.058 A 
HETATM   21  C   UNL     1      16.815  46.686  46.136  1.00  0.00     0.045 A 
HETATM   22  C   UNL     1      15.870  48.539  44.854  1.00  0.00     0.019 A 
HETATM   23  N   UNL     1      17.098  46.075  47.362  1.00  0.00    -0.364 N 
HETATM   24  C   UNL     1      17.052  46.010  44.934  1.00  0.00     0.030 A 
HETATM   25  H   UNL     1      17.792  45.338  47.318  1.00  0.00     0.162 HD
HETATM   26  C   UNL     1      16.741  46.606  43.707  1.00  0.00     0.002 A 
HETATM   27  C   UNL     1      16.160  47.873  43.666  1.00  0.00     0.001 A 
ENDBRANCH   8  15
TORSDOF 1
ENDMDL
