MODEL 1
REMARK VINA RESULT:     -10.1      0.000      0.000
REMARK  10 active torsions:
REMARK  status: ('A' for Active; 'I' for Inactive)
REMARK    1  A    between atoms: O_2  and  C_3 
REMARK    2  A    between atoms: C_4  and  O_5 
REMARK    3  A    between atoms: O_5  and  C_6 
REMARK    4  A    between atoms: C_6  and  C_7 
REMARK    5  A    between atoms: C_16  and  C_17 
REMARK       I    between atoms: C_17  and  N_18 
REMARK    6  A    between atoms: N_18  and  C_19 
REMARK    7  A    between atoms: C_19  and  N_20 
REMARK    8  A    between atoms: N_20  and  C_21 
REMARK    9  A    between atoms: C_24  and  C_25 
REMARK   10  A    between atoms: C_25  and  N_26 
ROOT
HETATM    1  C   UNL     1      23.552  47.037  49.337  1.00  0.00     0.257 C 
HETATM    2  N   UNL     1      22.944  48.169  49.873  1.00  0.00    -0.299 N 
HETATM    3  O   UNL     1      23.147  46.420  48.362  1.00  0.00    -0.267 OA
HETATM    4  H   UNL     1      23.145  48.344  50.845  1.00  0.00     0.171 HD
ENDROOT
BRANCH   2   5
HETATM    5  C   UNL     1      22.610  49.330  49.209  1.00  0.00     0.179 C 
HETATM    6  S   UNL     1      23.438  50.025  47.937  1.00  0.00    -0.040 SA
BRANCH   5   7
HETATM    7  N   UNL     1      21.563  50.042  49.747  1.00  0.00    -0.333 N 
HETATM    8  H   UNL     1      21.746  50.347  50.701  1.00  0.00     0.168 HD
BRANCH   7   9
HETATM    9  C   UNL     1      20.373  50.513  49.159  1.00  0.00     0.034 A 
HETATM   10  C   UNL     1      19.306  49.618  49.045  1.00  0.00     0.030 A 
HETATM   11  C   UNL     1      18.077  50.023  48.503  1.00  0.00     0.011 A 
HETATM   12  C   UNL     1      17.875  51.348  48.096  1.00  0.00    -0.032 A 
HETATM   13  C   UNL     1      18.949  52.246  48.240  1.00  0.00     0.011 A 
HETATM   14  C   UNL     1      20.183  51.834  48.760  1.00  0.00     0.030 A 
BRANCH  12  15
HETATM   15  C   UNL     1      16.581  51.897  47.535  1.00  0.00     0.273 C 
BRANCH  15  16
HETATM   16  N   UNL     1      15.811  52.883  48.391  1.00  0.00    -0.067 N 
HETATM   17  H   UNL     1      16.476  53.619  48.658  1.00  0.00     0.280 HD
HETATM   18  C   UNL     1      14.650  53.512  47.649  1.00  0.00     0.235 C 
HETATM   19  C   UNL     1      14.021  54.588  48.522  1.00  0.00     0.028 C 
HETATM   20  C   UNL     1      13.567  54.026  49.865  1.00  0.00     0.003 C 
HETATM   21  C   UNL     1      14.704  53.300  50.573  1.00  0.00     0.028 C 
HETATM   22  C   UNL     1      15.344  52.243  49.683  1.00  0.00     0.235 C 
ENDBRANCH  15  16
ENDBRANCH  12  15
ENDBRANCH   7   9
ENDBRANCH   5   7
ENDBRANCH   2   5
BRANCH   1  23
HETATM   23  C   UNL     1      24.631  46.471  50.192  1.00  0.00     0.035 A 
HETATM   24  C   UNL     1      25.064  47.162  51.333  1.00  0.00     0.020 A 
HETATM   25  C   UNL     1      25.993  46.573  52.190  1.00  0.00     0.040 A 
HETATM   26  C   UNL     1      26.506  45.309  51.899  1.00  0.00     0.102 A 
HETATM   27  C   UNL     1      26.091  44.632  50.747  1.00  0.00     0.102 A 
HETATM   28  C   UNL     1      25.177  45.225  49.873  1.00  0.00     0.056 A 
BRANCH  26  29
HETATM   29  O   UNL     1      27.298  44.752  52.861  1.00  0.00    -0.344 OA
BRANCH  29  30
HETATM   30  C   UNL     1      27.436  45.566  54.029  1.00  0.00     0.214 C 
BRANCH  30  31
HETATM   31  C   UNL     1      28.666  45.047  54.739  1.00  0.00    -0.034 A 
HETATM   32  C   UNL     1      29.196  43.793  54.394  1.00  0.00     0.011 A 
HETATM   33  C   UNL     1      30.278  43.262  55.100  1.00  0.00     0.024 A 
HETATM   34  C   UNL     1      30.833  43.981  56.155  1.00  0.00     0.034 A 
HETATM   35 CL   UNL     1      32.147  43.314  57.043  1.00  0.00    -0.084 Cl
HETATM   36  C   UNL     1      30.322  45.228  56.505  1.00  0.00     0.024 A 
HETATM   37  C   UNL     1      29.238  45.760  55.801  1.00  0.00     0.011 A 
ENDBRANCH  30  31
ENDBRANCH  29  30
ENDBRANCH  26  29
BRANCH  27  38
HETATM   38  O   UNL     1      26.571  43.392  50.423  1.00  0.00    -0.353 OA
HETATM   39  C   UNL     1      25.598  42.387  50.714  1.00  0.00     0.210 C 
ENDBRANCH  27  38
ENDBRANCH   1  23
TORSDOF 10
ENDMDL
MODEL 2
REMARK VINA RESULT:     -10.0      5.184     12.445
REMARK  10 active torsions:
REMARK  status: ('A' for Active; 'I' for Inactive)
REMARK    1  A    between atoms: O_2  and  C_3 
REMARK    2  A    between atoms: C_4  and  O_5 
REMARK    3  A    between atoms: O_5  and  C_6 
REMARK    4  A    between atoms: C_6  and  C_7 
REMARK    5  A    between atoms: C_16  and  C_17 
REMARK       I    between atoms: C_17  and  N_18 
REMARK    6  A    between atoms: N_18  and  C_19 
REMARK    7  A    between atoms: C_19  and  N_20 
REMARK    8  A    between atoms: N_20  and  C_21 
REMARK    9  A    between atoms: C_24  and  C_25 
REMARK   10  A    between atoms: C_25  and  N_26 
ROOT
HETATM    1  C   UNL     1      24.012  43.243  50.239  1.00  0.00     0.257 C 
HETATM    2  N   UNL     1      25.019  42.566  49.558  1.00  0.00    -0.299 N 
HETATM    3  O   UNL     1      23.083  42.709  50.827  1.00  0.00    -0.267 OA
HETATM    4  H   UNL     1      25.480  43.098  48.835  1.00  0.00     0.171 HD
ENDROOT
BRANCH   2   5
HETATM    5  C   UNL     1      25.833  41.567  50.048  1.00  0.00     0.179 C 
HETATM    6  S   UNL     1      26.408  40.247  49.204  1.00  0.00    -0.040 SA
BRANCH   5   7
HETATM    7  N   UNL     1      26.075  41.609  51.401  1.00  0.00    -0.333 N 
HETATM    8  H   UNL     1      25.354  41.138  51.943  1.00  0.00     0.168 HD
BRANCH   7   9
HETATM    9  C   UNL     1      27.195  42.069  52.121  1.00  0.00     0.034 A 
HETATM   10  C   UNL     1      27.057  43.251  52.852  1.00  0.00     0.030 A 
HETATM   11  C   UNL     1      28.117  43.753  53.622  1.00  0.00     0.011 A 
HETATM   12  C   UNL     1      29.331  43.061  53.708  1.00  0.00    -0.032 A 
HETATM   13  C   UNL     1      29.449  41.858  52.987  1.00  0.00     0.011 A 
HETATM   14  C   UNL     1      28.398  41.370  52.200  1.00  0.00     0.030 A 
BRANCH  12  15
HETATM   15  C   UNL     1      30.522  43.493  54.536  1.00  0.00     0.273 C 
BRANCH  15  16
HETATM   16  N   UNL     1      30.242  44.100  55.898  1.00  0.00    -0.067 N 
HETATM   17  H   UNL     1      29.478  43.550  56.310  1.00  0.00     0.280 HD
HETATM   18  C   UNL     1      31.445  44.041  56.816  1.00  0.00     0.235 C 
HETATM   19  C   UNL     1      31.044  44.533  58.199  1.00  0.00     0.028 C 
HETATM   20  C   UNL     1      30.469  45.944  58.147  1.00  0.00     0.003 C 
HETATM   21  C   UNL     1      29.323  46.037  57.146  1.00  0.00     0.028 C 
HETATM   22  C   UNL     1      29.726  45.519  55.773  1.00  0.00     0.235 C 
ENDBRANCH  15  16
ENDBRANCH  12  15
ENDBRANCH   7   9
ENDBRANCH   5   7
ENDBRANCH   2   5
BRANCH   1  23
HETATM   23  C   UNL     1      24.009  44.713  50.005  1.00  0.00     0.035 A 
HETATM   24  C   UNL     1      23.255  45.260  48.956  1.00  0.00     0.020 A 
HETATM   25  C   UNL     1      23.166  46.644  48.814  1.00  0.00     0.040 A 
HETATM   26  C   UNL     1      23.844  47.481  49.700  1.00  0.00     0.102 A 
HETATM   27  C   UNL     1      24.616  46.933  50.730  1.00  0.00     0.102 A 
HETATM   28  C   UNL     1      24.727  45.548  50.866  1.00  0.00     0.056 A 
BRANCH  26  29
HETATM   29  O   UNL     1      23.587  48.815  49.572  1.00  0.00    -0.344 OA
BRANCH  29  30
HETATM   30  C   UNL     1      22.906  49.154  48.361  1.00  0.00     0.214 C 
BRANCH  30  31
HETATM   31  C   UNL     1      21.644  49.863  48.793  1.00  0.00    -0.034 A 
HETATM   32  C   UNL     1      20.618  49.143  49.426  1.00  0.00     0.011 A 
HETATM   33  C   UNL     1      19.411  49.765  49.752  1.00  0.00     0.024 A 
HETATM   34  C   UNL     1      19.222  51.110  49.443  1.00  0.00     0.034 A 
HETATM   35 CL   UNL     1      17.725  51.870  49.817  1.00  0.00    -0.084 Cl
HETATM   36  C   UNL     1      20.232  51.839  48.820  1.00  0.00     0.024 A 
HETATM   37  C   UNL     1      21.440  51.217  48.492  1.00  0.00     0.011 A 
ENDBRANCH  30  31
ENDBRANCH  29  30
ENDBRANCH  26  29
BRANCH  27  38
HETATM   38  O   UNL     1      25.299  47.718  51.618  1.00  0.00    -0.353 OA
HETATM   39  C   UNL     1      26.003  46.910  52.563  1.00  0.00     0.210 C 
ENDBRANCH  27  38
ENDBRANCH   1  23
TORSDOF 10
ENDMDL
MODEL 3
REMARK VINA RESULT:     -10.0      1.544      2.427
REMARK  10 active torsions:
REMARK  status: ('A' for Active; 'I' for Inactive)
REMARK    1  A    between atoms: O_2  and  C_3 
REMARK    2  A    between atoms: C_4  and  O_5 
REMARK    3  A    between atoms: O_5  and  C_6 
REMARK    4  A    between atoms: C_6  and  C_7 
REMARK    5  A    between atoms: C_16  and  C_17 
REMARK       I    between atoms: C_17  and  N_18 
REMARK    6  A    between atoms: N_18  and  C_19 
REMARK    7  A    between atoms: C_19  and  N_20 
REMARK    8  A    between atoms: N_20  and  C_21 
REMARK    9  A    between atoms: C_24  and  C_25 
REMARK   10  A    between atoms: C_25  and  N_26 
ROOT
HETATM    1  C   UNL     1      24.267  47.707  49.828  1.00  0.00     0.257 C 
HETATM    2  N   UNL     1      23.118  47.171  49.256  1.00  0.00    -0.299 N 
HETATM    3  O   UNL     1      24.905  48.645  49.372  1.00  0.00    -0.267 OA
HETATM    4  H   UNL     1      22.921  46.214  49.506  1.00  0.00     0.171 HD
ENDROOT
BRANCH   2   5
HETATM    5  C   UNL     1      21.970  47.846  48.897  1.00  0.00     0.179 C 
HETATM    6  S   UNL     1      21.014  47.546  47.563  1.00  0.00    -0.040 SA
BRANCH   5   7
HETATM    7  N   UNL     1      21.675  48.958  49.651  1.00  0.00    -0.333 N 
HETATM    8  H   UNL     1      22.439  49.228  50.267  1.00  0.00     0.168 HD
BRANCH   7   9
HETATM    9  C   UNL     1      20.570  49.831  49.608  1.00  0.00     0.034 A 
HETATM   10  C   UNL     1      19.378  49.399  50.194  1.00  0.00     0.030 A 
HETATM   11  C   UNL     1      18.245  50.225  50.223  1.00  0.00     0.011 A 
HETATM   12  C   UNL     1      18.290  51.523  49.698  1.00  0.00    -0.032 A 
HETATM   13  C   UNL     1      19.505  51.955  49.133  1.00  0.00     0.011 A 
HETATM   14  C   UNL     1      20.629  51.120  49.084  1.00  0.00     0.030 A 
BRANCH  12  15
HETATM   15  C   UNL     1      17.141  52.507  49.710  1.00  0.00     0.273 C 
BRANCH  15  16
HETATM   16  N   UNL     1      16.518  52.871  48.376  1.00  0.00    -0.067 N 
HETATM   17  H   UNL     1      16.985  53.730  48.062  1.00  0.00     0.280 HD
HETATM   18  C   UNL     1      16.713  51.792  47.333  1.00  0.00     0.235 C 
HETATM   19  C   UNL     1      16.190  52.291  45.993  1.00  0.00     0.028 C 
HETATM   20  C   UNL     1      14.725  52.703  46.081  1.00  0.00     0.003 C 
HETATM   21  C   UNL     1      14.502  53.713  47.200  1.00  0.00     0.028 C 
HETATM   22  C   UNL     1      15.051  53.216  48.530  1.00  0.00     0.235 C 
ENDBRANCH  15  16
ENDBRANCH  12  15
ENDBRANCH   7   9
ENDBRANCH   5   7
ENDBRANCH   2   5
BRANCH   1  23
HETATM   23  C   UNL     1      24.821  46.893  50.945  1.00  0.00     0.035 A 
HETATM   24  C   UNL     1      24.608  45.507  50.981  1.00  0.00     0.020 A 
HETATM   25  C   UNL     1      25.225  44.736  51.966  1.00  0.00     0.040 A 
HETATM   26  C   UNL     1      26.032  45.347  52.926  1.00  0.00     0.102 A 
HETATM   27  C   UNL     1      26.222  46.732  52.903  1.00  0.00     0.102 A 
HETATM   28  C   UNL     1      25.591  47.513  51.932  1.00  0.00     0.056 A 
BRANCH  26  29
HETATM   29  O   UNL     1      26.706  44.503  53.760  1.00  0.00    -0.344 OA
BRANCH  29  30
HETATM   30  C   UNL     1      27.913  43.985  53.197  1.00  0.00     0.214 C 
BRANCH  30  31
HETATM   31  C   UNL     1      28.947  44.087  54.295  1.00  0.00    -0.034 A 
HETATM   32  C   UNL     1      29.881  43.053  54.476  1.00  0.00     0.011 A 
HETATM   33  C   UNL     1      30.784  43.091  55.540  1.00  0.00     0.024 A 
HETATM   34  C   UNL     1      30.758  44.162  56.430  1.00  0.00     0.034 A 
HETATM   35 CL   UNL     1      31.851  44.196  57.757  1.00  0.00    -0.084 Cl
HETATM   36  C   UNL     1      29.841  45.197  56.261  1.00  0.00     0.024 A 
HETATM   37  C   UNL     1      28.935  45.160  55.197  1.00  0.00     0.011 A 
ENDBRANCH  30  31
ENDBRANCH  29  30
ENDBRANCH  26  29
BRANCH  27  38
HETATM   38  O   UNL     1      27.004  47.371  53.826  1.00  0.00    -0.353 OA
HETATM   39  C   UNL     1      26.200  47.902  54.881  1.00  0.00     0.210 C 
ENDBRANCH  27  38
ENDBRANCH   1  23
TORSDOF 10
ENDMDL
MODEL 4
REMARK VINA RESULT:     -10.0      1.387      1.913
REMARK  10 active torsions:
REMARK  status: ('A' for Active; 'I' for Inactive)
REMARK    1  A    between atoms: O_2  and  C_3 
REMARK    2  A    between atoms: C_4  and  O_5 
REMARK    3  A    between atoms: O_5  and  C_6 
REMARK    4  A    between atoms: C_6  and  C_7 
REMARK    5  A    between atoms: C_16  and  C_17 
REMARK       I    between atoms: C_17  and  N_18 
REMARK    6  A    between atoms: N_18  and  C_19 
REMARK    7  A    between atoms: C_19  and  N_20 
REMARK    8  A    between atoms: N_20  and  C_21 
REMARK    9  A    between atoms: C_24  and  C_25 
REMARK   10  A    between atoms: C_25  and  N_26 
ROOT
HETATM    1  C   UNL     1      24.241  47.851  49.578  1.00  0.00     0.257 C 
HETATM    2  N   UNL     1      23.098  47.274  49.035  1.00  0.00    -0.299 N 
HETATM    3  O   UNL     1      24.768  48.878  49.174  1.00  0.00    -0.267 OA
HETATM    4  H   UNL     1      22.995  46.285  49.203  1.00  0.00     0.171 HD
ENDROOT
BRANCH   2   5
HETATM    5  C   UNL     1      21.878  47.880  48.821  1.00  0.00     0.179 C 
HETATM    6  S   UNL     1      20.676  47.362  47.786  1.00  0.00    -0.040 SA
BRANCH   5   7
HETATM    7  N   UNL     1      21.706  49.102  49.430  1.00  0.00    -0.333 N 
HETATM    8  H   UNL     1      22.585  49.514  49.736  1.00  0.00     0.168 HD
BRANCH   7   9
HETATM    9  C   UNL     1      20.558  49.906  49.571  1.00  0.00     0.034 A 
HETATM   10  C   UNL     1      20.569  51.166  48.970  1.00  0.00     0.030 A 
HETATM   11  C   UNL     1      19.451  52.010  49.037  1.00  0.00     0.011 A 
HETATM   12  C   UNL     1      18.276  51.593  49.677  1.00  0.00    -0.032 A 
HETATM   13  C   UNL     1      18.269  50.310  50.256  1.00  0.00     0.011 A 
HETATM   14  C   UNL     1      19.396  49.479  50.209  1.00  0.00     0.030 A 
BRANCH  12  15
HETATM   15  C   UNL     1      17.004  52.406  49.774  1.00  0.00     0.273 C 
BRANCH  15  16
HETATM   16  N   UNL     1      16.370  52.870  48.477  1.00  0.00    -0.067 N 
HETATM   17  H   UNL     1      16.923  53.673  48.153  1.00  0.00     0.280 HD
HETATM   18  C   UNL     1      16.386  51.797  47.409  1.00  0.00     0.235 C 
HETATM   19  C   UNL     1      15.867  52.383  46.103  1.00  0.00     0.028 C 
HETATM   20  C   UNL     1      14.468  52.967  46.266  1.00  0.00     0.003 C 
HETATM   21  C   UNL     1      14.421  53.973  47.410  1.00  0.00     0.028 C 
HETATM   22  C   UNL     1      14.964  53.387  48.705  1.00  0.00     0.235 C 
ENDBRANCH  15  16
ENDBRANCH  12  15
ENDBRANCH   7   9
ENDBRANCH   5   7
ENDBRANCH   2   5
BRANCH   1  23
HETATM   23  C   UNL     1      24.939  46.988  50.570  1.00  0.00     0.035 A 
HETATM   24  C   UNL     1      25.969  47.514  51.364  1.00  0.00     0.020 A 
HETATM   25  C   UNL     1      26.539  46.733  52.368  1.00  0.00     0.040 A 
HETATM   26  C   UNL     1      26.101  45.423  52.566  1.00  0.00     0.102 A 
HETATM   27  C   UNL     1      25.092  44.892  51.756  1.00  0.00     0.102 A 
HETATM   28  C   UNL     1      24.531  45.662  50.735  1.00  0.00     0.056 A 
BRANCH  26  29
HETATM   29  O   UNL     1      26.613  44.783  53.657  1.00  0.00    -0.344 OA
BRANCH  29  30
HETATM   30  C   UNL     1      27.006  45.669  54.708  1.00  0.00     0.214 C 
BRANCH  30  31
HETATM   31  C   UNL     1      28.337  45.148  55.198  1.00  0.00    -0.034 A 
HETATM   32  C   UNL     1      28.852  43.947  54.683  1.00  0.00     0.011 A 
HETATM   33  C   UNL     1      30.036  43.407  55.188  1.00  0.00     0.024 A 
HETATM   34  C   UNL     1      30.712  44.065  56.213  1.00  0.00     0.034 A 
HETATM   35 CL   UNL     1      32.156  43.386  56.856  1.00  0.00    -0.084 Cl
HETATM   36  C   UNL     1      30.218  45.260  56.731  1.00  0.00     0.024 A 
HETATM   37  C   UNL     1      29.031  45.800  56.227  1.00  0.00     0.011 A 
ENDBRANCH  30  31
ENDBRANCH  29  30
ENDBRANCH  26  29
BRANCH  27  38
HETATM   38  O   UNL     1      24.635  43.612  51.914  1.00  0.00    -0.353 OA
HETATM   39  C   UNL     1      24.090  43.119  50.689  1.00  0.00     0.210 C 
ENDBRANCH  27  38
ENDBRANCH   1  23
TORSDOF 10
ENDMDL
MODEL 5
REMARK VINA RESULT:      -9.8      5.014     12.339
REMARK  10 active torsions:
REMARK  status: ('A' for Active; 'I' for Inactive)
REMARK    1  A    between atoms: O_2  and  C_3 
REMARK    2  A    between atoms: C_4  and  O_5 
REMARK    3  A    between atoms: O_5  and  C_6 
REMARK    4  A    between atoms: C_6  and  C_7 
REMARK    5  A    between atoms: C_16  and  C_17 
REMARK       I    between atoms: C_17  and  N_18 
REMARK    6  A    between atoms: N_18  and  C_19 
REMARK    7  A    between atoms: C_19  and  N_20 
REMARK    8  A    between atoms: N_20  and  C_21 
REMARK    9  A    between atoms: C_24  and  C_25 
REMARK   10  A    between atoms: C_25  and  N_26 
ROOT
HETATM    1  C   UNL     1      23.069  44.175  49.800  1.00  0.00     0.257 C 
HETATM    2  N   UNL     1      24.279  43.537  49.546  1.00  0.00    -0.299 N 
HETATM    3  O   UNL     1      22.048  43.618  50.177  1.00  0.00    -0.267 OA
HETATM    4  H   UNL     1      24.894  44.021  48.910  1.00  0.00     0.171 HD
ENDROOT
BRANCH   2   5
HETATM    5  C   UNL     1      24.981  42.709  50.396  1.00  0.00     0.179 C 
HETATM    6  S   UNL     1      25.694  41.252  50.005  1.00  0.00    -0.040 SA
BRANCH   5   7
HETATM    7  N   UNL     1      24.969  43.072  51.723  1.00  0.00    -0.333 N 
HETATM    8  H   UNL     1      24.186  42.669  52.232  1.00  0.00     0.168 HD
BRANCH   7   9
HETATM    9  C   UNL     1      25.913  43.782  52.490  1.00  0.00     0.034 A 
HETATM   10  C   UNL     1      25.550  44.154  53.787  1.00  0.00     0.030 A 
HETATM   11  C   UNL     1      26.448  44.831  54.624  1.00  0.00     0.011 A 
HETATM   12  C   UNL     1      27.750  45.119  54.195  1.00  0.00    -0.032 A 
HETATM   13  C   UNL     1      28.113  44.716  52.896  1.00  0.00     0.011 A 
HETATM   14  C   UNL     1      27.206  44.061  52.052  1.00  0.00     0.030 A 
BRANCH  12  15
HETATM   15  C   UNL     1      28.808  45.810  55.028  1.00  0.00     0.273 C 
BRANCH  15  16
HETATM   16  N   UNL     1      29.537  44.976  56.063  1.00  0.00    -0.067 N 
HETATM   17  H   UNL     1      28.818  44.436  56.561  1.00  0.00     0.280 HD
HETATM   18  C   UNL     1      30.531  44.019  55.440  1.00  0.00     0.235 C 
HETATM   19  C   UNL     1      31.111  43.123  56.526  1.00  0.00     0.028 C 
HETATM   20  C   UNL     1      31.765  43.939  57.636  1.00  0.00     0.003 C 
HETATM   21  C   UNL     1      30.801  44.978  58.198  1.00  0.00     0.028 C 
HETATM   22  C   UNL     1      30.206  45.852  57.103  1.00  0.00     0.235 C 
ENDBRANCH  15  16
ENDBRANCH  12  15
ENDBRANCH   7   9
ENDBRANCH   5   7
ENDBRANCH   2   5
BRANCH   1  23
HETATM   23  C   UNL     1      23.029  45.593  49.348  1.00  0.00     0.035 A 
HETATM   24  C   UNL     1      21.911  46.082  48.655  1.00  0.00     0.020 A 
HETATM   25  C   UNL     1      21.831  47.436  48.336  1.00  0.00     0.040 A 
HETATM   26  C   UNL     1      22.871  48.298  48.684  1.00  0.00     0.102 A 
HETATM   27  C   UNL     1      23.996  47.804  49.353  1.00  0.00     0.102 A 
HETATM   28  C   UNL     1      24.093  46.444  49.658  1.00  0.00     0.056 A 
BRANCH  26  29
HETATM   29  O   UNL     1      22.645  49.625  48.460  1.00  0.00    -0.344 OA
BRANCH  29  30
HETATM   30  C   UNL     1      22.356  50.365  49.649  1.00  0.00     0.214 C 
BRANCH  30  31
HETATM   31  C   UNL     1      20.916  50.802  49.511  1.00  0.00    -0.034 A 
HETATM   32  C   UNL     1      19.927  50.220  50.322  1.00  0.00     0.011 A 
HETATM   33  C   UNL     1      18.581  50.549  50.147  1.00  0.00     0.024 A 
HETATM   34  C   UNL     1      18.217  51.459  49.158  1.00  0.00     0.034 A 
HETATM   35 CL   UNL     1      16.556  51.843  48.922  1.00  0.00    -0.084 Cl
HETATM   36  C   UNL     1      19.186  52.048  48.349  1.00  0.00     0.024 A 
HETATM   37  C   UNL     1      20.533  51.719  48.522  1.00  0.00     0.011 A 
ENDBRANCH  30  31
ENDBRANCH  29  30
ENDBRANCH  26  29
BRANCH  27  38
HETATM   38  O   UNL     1      25.039  48.613  49.712  1.00  0.00    -0.353 OA
HETATM   39  C   UNL     1      26.186  47.832  50.051  1.00  0.00     0.210 C 
ENDBRANCH  27  38
ENDBRANCH   1  23
TORSDOF 10
ENDMDL
MODEL 6
REMARK VINA RESULT:      -9.7      1.395      2.023
REMARK  10 active torsions:
REMARK  status: ('A' for Active; 'I' for Inactive)
REMARK    1  A    between atoms: O_2  and  C_3 
REMARK    2  A    between atoms: C_4  and  O_5 
REMARK    3  A    between atoms: O_5  and  C_6 
REMARK    4  A    between atoms: C_6  and  C_7 
REMARK    5  A    between atoms: C_16  and  C_17 
REMARK       I    between atoms: C_17  and  N_18 
REMARK    6  A    between atoms: N_18  and  C_19 
REMARK    7  A    between atoms: C_19  and  N_20 
REMARK    8  A    between atoms: N_20  and  C_21 
REMARK    9  A    between atoms: C_24  and  C_25 
REMARK   10  A    between atoms: C_25  and  N_26 
ROOT
HETATM    1  C   UNL     1      23.428  47.458  49.255  1.00  0.00     0.257 C 
HETATM    2  N   UNL     1      22.846  48.576  49.845  1.00  0.00    -0.299 N 
HETATM    3  O   UNL     1      23.098  46.983  48.178  1.00  0.00    -0.267 OA
HETATM    4  H   UNL     1      22.942  48.630  50.848  1.00  0.00     0.171 HD
ENDROOT
BRANCH   2   5
HETATM    5  C   UNL     1      22.678  49.824  49.284  1.00  0.00     0.179 C 
HETATM    6  S   UNL     1      23.559  50.478  48.027  1.00  0.00    -0.040 SA
BRANCH   5   7
HETATM    7  N   UNL     1      21.780  50.647  49.924  1.00  0.00    -0.333 N 
HETATM    8  H   UNL     1      22.192  51.136  50.716  1.00  0.00     0.168 HD
BRANCH   7   9
HETATM    9  C   UNL     1      20.461  51.008  49.586  1.00  0.00     0.034 A 
HETATM   10  C   UNL     1      19.425  50.480  50.358  1.00  0.00     0.030 A 
HETATM   11  C   UNL     1      18.088  50.821  50.105  1.00  0.00     0.011 A 
HETATM   12  C   UNL     1      17.760  51.733  49.093  1.00  0.00    -0.032 A 
HETATM   13  C   UNL     1      18.816  52.277  48.339  1.00  0.00     0.011 A 
HETATM   14  C   UNL     1      20.149  51.917  48.578  1.00  0.00     0.030 A 
BRANCH  12  15
HETATM   15  C   UNL     1      16.358  52.196  48.762  1.00  0.00     0.273 C 
BRANCH  15  16
HETATM   16  N   UNL     1      15.582  51.396  47.734  1.00  0.00    -0.067 N 
HETATM   17  H   UNL     1      14.589  51.490  47.980  1.00  0.00     0.280 HD
HETATM   18  C   UNL     1      15.792  51.907  46.324  1.00  0.00     0.235 C 
HETATM   19  C   UNL     1      14.873  51.150  45.375  1.00  0.00     0.028 C 
HETATM   20  C   UNL     1      15.109  49.645  45.448  1.00  0.00     0.003 C 
HETATM   21  C   UNL     1      15.003  49.139  46.882  1.00  0.00     0.028 C 
HETATM   22  C   UNL     1      15.905  49.919  47.828  1.00  0.00     0.235 C 
ENDBRANCH  15  16
ENDBRANCH  12  15
ENDBRANCH   7   9
ENDBRANCH   5   7
ENDBRANCH   2   5
BRANCH   1  23
HETATM   23  C   UNL     1      24.354  46.716  50.153  1.00  0.00     0.035 A 
HETATM   24  C   UNL     1      25.474  47.359  50.701  1.00  0.00     0.020 A 
HETATM   25  C   UNL     1      26.271  46.691  51.629  1.00  0.00     0.040 A 
HETATM   26  C   UNL     1      25.968  45.380  51.995  1.00  0.00     0.102 A 
HETATM   27  C   UNL     1      24.865  44.732  51.429  1.00  0.00     0.102 A 
HETATM   28  C   UNL     1      24.074  45.386  50.482  1.00  0.00     0.056 A 
BRANCH  26  29
HETATM   29  O   UNL     1      26.715  44.857  53.011  1.00  0.00    -0.344 OA
BRANCH  29  30
HETATM   30  C   UNL     1      27.766  43.996  52.564  1.00  0.00     0.214 C 
BRANCH  30  31
HETATM   31  C   UNL     1      28.799  44.016  53.667  1.00  0.00    -0.034 A 
HETATM   32  C   UNL     1      29.772  43.005  53.733  1.00  0.00     0.011 A 
HETATM   33  C   UNL     1      30.678  42.959  54.794  1.00  0.00     0.024 A 
HETATM   34  C   UNL     1      30.614  43.924  55.797  1.00  0.00     0.034 A 
HETATM   35 CL   UNL     1      31.711  43.852  57.120  1.00  0.00    -0.084 Cl
HETATM   36  C   UNL     1      29.659  44.936  55.743  1.00  0.00     0.024 A 
HETATM   37  C   UNL     1      28.750  44.981  54.682  1.00  0.00     0.011 A 
ENDBRANCH  30  31
ENDBRANCH  29  30
ENDBRANCH  26  29
BRANCH  27  38
HETATM   38  O   UNL     1      24.534  43.446  51.758  1.00  0.00    -0.353 OA
HETATM   39  C   UNL     1      24.725  42.577  50.640  1.00  0.00     0.210 C 
ENDBRANCH  27  38
ENDBRANCH   1  23
TORSDOF 10
ENDMDL
MODEL 7
REMARK VINA RESULT:      -9.6      5.036     12.497
REMARK  10 active torsions:
REMARK  status: ('A' for Active; 'I' for Inactive)
REMARK    1  A    between atoms: O_2  and  C_3 
REMARK    2  A    between atoms: C_4  and  O_5 
REMARK    3  A    between atoms: O_5  and  C_6 
REMARK    4  A    between atoms: C_6  and  C_7 
REMARK    5  A    between atoms: C_16  and  C_17 
REMARK       I    between atoms: C_17  and  N_18 
REMARK    6  A    between atoms: N_18  and  C_19 
REMARK    7  A    between atoms: C_19  and  N_20 
REMARK    8  A    between atoms: N_20  and  C_21 
REMARK    9  A    between atoms: C_24  and  C_25 
REMARK   10  A    between atoms: C_25  and  N_26 
ROOT
HETATM    1  C   UNL     1      24.595  44.298  50.936  1.00  0.00     0.257 C 
HETATM    2  N   UNL     1      24.699  43.168  50.131  1.00  0.00    -0.299 N 
HETATM    3  O   UNL     1      24.666  44.297  52.157  1.00  0.00    -0.267 OA
HETATM    4  H   UNL     1      24.264  43.246  49.225  1.00  0.00     0.171 HD
ENDROOT
BRANCH   2   5
HETATM    5  C   UNL     1      25.717  42.238  50.125  1.00  0.00     0.179 C 
HETATM    6  S   UNL     1      26.360  41.474  48.788  1.00  0.00    -0.040 SA
BRANCH   5   7
HETATM    7  N   UNL     1      26.141  41.813  51.362  1.00  0.00    -0.333 N 
HETATM    8  H   UNL     1      25.637  40.990  51.688  1.00  0.00     0.168 HD
BRANCH   7   9
HETATM    9  C   UNL     1      27.216  42.243  52.164  1.00  0.00     0.034 A 
HETATM   10  C   UNL     1      27.419  41.592  53.383  1.00  0.00     0.030 A 
HETATM   11  C   UNL     1      28.490  41.940  54.219  1.00  0.00     0.011 A 
HETATM   12  C   UNL     1      29.409  42.925  53.835  1.00  0.00    -0.032 A 
HETATM   13  C   UNL     1      29.208  43.555  52.593  1.00  0.00     0.011 A 
HETATM   14  C   UNL     1      28.124  43.223  51.769  1.00  0.00     0.030 A 
BRANCH  12  15
HETATM   15  C   UNL     1      30.617  43.350  54.642  1.00  0.00     0.273 C 
BRANCH  15  16
HETATM   16  N   UNL     1      30.364  44.001  55.987  1.00  0.00    -0.067 N 
HETATM   17  H   UNL     1      29.642  43.438  56.453  1.00  0.00     0.280 HD
HETATM   18  C   UNL     1      31.603  44.033  56.857  1.00  0.00     0.235 C 
HETATM   19  C   UNL     1      31.234  44.567  58.234  1.00  0.00     0.028 C 
HETATM   20  C   UNL     1      30.595  45.949  58.148  1.00  0.00     0.003 C 
HETATM   21  C   UNL     1      29.408  45.949  57.192  1.00  0.00     0.028 C 
HETATM   22  C   UNL     1      29.780  45.390  55.825  1.00  0.00     0.235 C 
ENDBRANCH  15  16
ENDBRANCH  12  15
ENDBRANCH   7   9
ENDBRANCH   5   7
ENDBRANCH   2   5
BRANCH   1  23
HETATM   23  C   UNL     1      24.146  45.517  50.210  1.00  0.00     0.035 A 
HETATM   24  C   UNL     1      24.722  46.763  50.498  1.00  0.00     0.020 A 
HETATM   25  C   UNL     1      24.379  47.878  49.735  1.00  0.00     0.040 A 
HETATM   26  C   UNL     1      23.447  47.759  48.704  1.00  0.00     0.102 A 
HETATM   27  C   UNL     1      22.855  46.520  48.435  1.00  0.00     0.102 A 
HETATM   28  C   UNL     1      23.178  45.403  49.208  1.00  0.00     0.056 A 
BRANCH  26  29
HETATM   29  O   UNL     1      23.279  48.865  47.922  1.00  0.00    -0.344 OA
BRANCH  29  30
HETATM   30  C   UNL     1      23.425  50.096  48.635  1.00  0.00     0.214 C 
BRANCH  30  31
HETATM   31  C   UNL     1      22.017  50.555  48.940  1.00  0.00    -0.034 A 
HETATM   32  C   UNL     1      21.127  50.829  47.889  1.00  0.00     0.011 A 
HETATM   33  C   UNL     1      19.853  51.337  48.152  1.00  0.00     0.024 A 
HETATM   34  C   UNL     1      19.464  51.575  49.468  1.00  0.00     0.034 A 
HETATM   35 CL   UNL     1      17.905  52.229  49.791  1.00  0.00    -0.084 Cl
HETATM   36  C   UNL     1      20.333  51.304  50.521  1.00  0.00     0.024 A 
HETATM   37  C   UNL     1      21.609  50.797  50.259  1.00  0.00     0.011 A 
ENDBRANCH  30  31
ENDBRANCH  29  30
ENDBRANCH  26  29
BRANCH  27  38
HETATM   38  O   UNL     1      21.935  46.359  47.435  1.00  0.00    -0.353 OA
HETATM   39  C   UNL     1      20.621  46.223  47.979  1.00  0.00     0.210 C 
ENDBRANCH  27  38
ENDBRANCH   1  23
TORSDOF 10
ENDMDL
MODEL 8
REMARK VINA RESULT:      -9.6      0.992      1.925
REMARK  10 active torsions:
REMARK  status: ('A' for Active; 'I' for Inactive)
REMARK    1  A    between atoms: O_2  and  C_3 
REMARK    2  A    between atoms: C_4  and  O_5 
REMARK    3  A    between atoms: O_5  and  C_6 
REMARK    4  A    between atoms: C_6  and  C_7 
REMARK    5  A    between atoms: C_16  and  C_17 
REMARK       I    between atoms: C_17  and  N_18 
REMARK    6  A    between atoms: N_18  and  C_19 
REMARK    7  A    between atoms: C_19  and  N_20 
REMARK    8  A    between atoms: N_20  and  C_21 
REMARK    9  A    between atoms: C_24  and  C_25 
REMARK   10  A    between atoms: C_25  and  N_26 
ROOT
HETATM    1  C   UNL     1      23.125  47.266  48.852  1.00  0.00     0.257 C 
HETATM    2  N   UNL     1      22.525  48.277  49.597  1.00  0.00    -0.299 N 
HETATM    3  O   UNL     1      22.714  46.848  47.779  1.00  0.00    -0.267 OA
HETATM    4  H   UNL     1      22.731  48.262  50.584  1.00  0.00     0.171 HD
ENDROOT
BRANCH   2   5
HETATM    5  C   UNL     1      22.192  49.545  49.168  1.00  0.00     0.179 C 
HETATM    6  S   UNL     1      23.046  50.486  48.087  1.00  0.00    -0.040 SA
BRANCH   5   7
HETATM    7  N   UNL     1      21.121  50.125  49.806  1.00  0.00    -0.333 N 
HETATM    8  H   UNL     1      21.294  50.286  50.796  1.00  0.00     0.168 HD
BRANCH   7   9
HETATM    9  C   UNL     1      19.912  50.635  49.293  1.00  0.00     0.034 A 
HETATM   10  C   UNL     1      18.952  49.719  48.857  1.00  0.00     0.030 A 
HETATM   11  C   UNL     1      17.711  50.149  48.367  1.00  0.00     0.011 A 
HETATM   12  C   UNL     1      17.385  51.512  48.338  1.00  0.00    -0.032 A 
HETATM   13  C   UNL     1      18.351  52.423  48.803  1.00  0.00     0.011 A 
HETATM   14  C   UNL     1      19.600  51.993  49.271  1.00  0.00     0.030 A 
BRANCH  12  15
HETATM   15  C   UNL     1      16.065  52.080  47.865  1.00  0.00     0.273 C 
BRANCH  15  16
HETATM   16  N   UNL     1      15.414  53.145  48.726  1.00  0.00    -0.067 N 
HETATM   17  H   UNL     1      16.166  53.777  49.026  1.00  0.00     0.280 HD
HETATM   18  C   UNL     1      14.370  53.941  47.972  1.00  0.00     0.235 C 
HETATM   19  C   UNL     1      13.871  55.076  48.856  1.00  0.00     0.028 C 
HETATM   20  C   UNL     1      13.309  54.554  50.174  1.00  0.00     0.003 C 
HETATM   21  C   UNL     1      14.318  53.665  50.891  1.00  0.00     0.028 C 
HETATM   22  C   UNL     1      14.831  52.549  49.992  1.00  0.00     0.235 C 
ENDBRANCH  15  16
ENDBRANCH  12  15
ENDBRANCH   7   9
ENDBRANCH   5   7
ENDBRANCH   2   5
BRANCH   1  23
HETATM   23  C   UNL     1      24.206  46.543  49.577  1.00  0.00     0.035 A 
HETATM   24  C   UNL     1      24.647  45.292  49.122  1.00  0.00     0.020 A 
HETATM   25  C   UNL     1      25.735  44.675  49.738  1.00  0.00     0.040 A 
HETATM   26  C   UNL     1      26.367  45.290  50.818  1.00  0.00     0.102 A 
HETATM   27  C   UNL     1      25.909  46.526  51.287  1.00  0.00     0.102 A 
HETATM   28  C   UNL     1      24.807  47.141  50.688  1.00  0.00     0.056 A 
BRANCH  26  29
HETATM   29  O   UNL     1      27.506  44.685  51.266  1.00  0.00    -0.344 OA
BRANCH  29  30
HETATM   30  C   UNL     1      27.260  43.529  52.071  1.00  0.00     0.214 C 
BRANCH  30  31
HETATM   31  C   UNL     1      28.269  43.598  53.194  1.00  0.00    -0.034 A 
HETATM   32  C   UNL     1      28.095  44.525  54.235  1.00  0.00     0.011 A 
HETATM   33  C   UNL     1      29.062  44.661  55.232  1.00  0.00     0.024 A 
HETATM   34  C   UNL     1      30.210  43.873  55.193  1.00  0.00     0.034 A 
HETATM   35 CL   UNL     1      31.416  44.061  56.405  1.00  0.00    -0.084 Cl
HETATM   36  C   UNL     1      30.395  42.946  54.170  1.00  0.00     0.024 A 
HETATM   37  C   UNL     1      29.428  42.810  53.170  1.00  0.00     0.011 A 
ENDBRANCH  30  31
ENDBRANCH  29  30
ENDBRANCH  26  29
BRANCH  27  38
HETATM   38  O   UNL     1      26.498  47.163  52.344  1.00  0.00    -0.353 OA
HETATM   39  C   UNL     1      25.643  47.132  53.488  1.00  0.00     0.210 C 
ENDBRANCH  27  38
ENDBRANCH   1  23
TORSDOF 10
ENDMDL
MODEL 9
REMARK VINA RESULT:      -9.5      1.278      2.483
REMARK  10 active torsions:
REMARK  status: ('A' for Active; 'I' for Inactive)
REMARK    1  A    between atoms: O_2  and  C_3 
REMARK    2  A    between atoms: C_4  and  O_5 
REMARK    3  A    between atoms: O_5  and  C_6 
REMARK    4  A    between atoms: C_6  and  C_7 
REMARK    5  A    between atoms: C_16  and  C_17 
REMARK       I    between atoms: C_17  and  N_18 
REMARK    6  A    between atoms: N_18  and  C_19 
REMARK    7  A    between atoms: C_19  and  N_20 
REMARK    8  A    between atoms: N_20  and  C_21 
REMARK    9  A    between atoms: C_24  and  C_25 
REMARK   10  A    between atoms: C_25  and  N_26 
ROOT
HETATM    1  C   UNL     1      23.254  47.125  49.182  1.00  0.00     0.257 C 
HETATM    2  N   UNL     1      22.925  48.310  49.832  1.00  0.00    -0.299 N 
HETATM    3  O   UNL     1      22.591  46.604  48.296  1.00  0.00    -0.267 OA
HETATM    4  H   UNL     1      23.326  48.421  50.750  1.00  0.00     0.171 HD
ENDROOT
BRANCH   2   5
HETATM    5  C   UNL     1      22.641  49.529  49.253  1.00  0.00     0.179 C 
HETATM    6  S   UNL     1      23.305  50.145  47.852  1.00  0.00    -0.040 SA
BRANCH   5   7
HETATM    7  N   UNL     1      21.828  50.361  49.988  1.00  0.00    -0.333 N 
HETATM    8  H   UNL     1      22.308  50.776  50.783  1.00  0.00     0.168 HD
BRANCH   7   9
HETATM    9  C   UNL     1      20.517  50.816  49.744  1.00  0.00     0.034 A 
HETATM   10  C   UNL     1      20.349  51.841  48.810  1.00  0.00     0.030 A 
HETATM   11  C   UNL     1      19.072  52.323  48.488  1.00  0.00     0.011 A 
HETATM   12  C   UNL     1      17.926  51.761  49.066  1.00  0.00    -0.032 A 
HETATM   13  C   UNL     1      18.108  50.711  49.986  1.00  0.00     0.011 A 
HETATM   14  C   UNL     1      19.386  50.247  50.325  1.00  0.00     0.030 A 
BRANCH  12  15
HETATM   15  C   UNL     1      16.504  52.178  48.762  1.00  0.00     0.273 C 
BRANCH  15  16
HETATM   16  N   UNL     1      16.214  52.709  47.371  1.00  0.00    -0.067 N 
HETATM   17  H   UNL     1      16.834  53.516  47.232  1.00  0.00     0.280 HD
HETATM   18  C   UNL     1      16.489  51.684  46.291  1.00  0.00     0.235 C 
HETATM   19  C   UNL     1      16.314  52.335  44.926  1.00  0.00     0.028 C 
HETATM   20  C   UNL     1      14.921  52.933  44.765  1.00  0.00     0.003 C 
HETATM   21  C   UNL     1      14.596  53.889  45.907  1.00  0.00     0.028 C 
HETATM   22  C   UNL     1      14.798  53.238  47.268  1.00  0.00     0.235 C 
ENDBRANCH  15  16
ENDBRANCH  12  15
ENDBRANCH   7   9
ENDBRANCH   5   7
ENDBRANCH   2   5
BRANCH   1  23
HETATM   23  C   UNL     1      24.381  46.385  49.811  1.00  0.00     0.035 A 
HETATM   24  C   UNL     1      24.891  45.226  49.207  1.00  0.00     0.020 A 
HETATM   25  C   UNL     1      26.019  44.604  49.741  1.00  0.00     0.040 A 
HETATM   26  C   UNL     1      26.624  45.121  50.886  1.00  0.00     0.102 A 
HETATM   27  C   UNL     1      26.099  46.262  51.502  1.00  0.00     0.102 A 
HETATM   28  C   UNL     1      24.957  46.878  50.985  1.00  0.00     0.056 A 
BRANCH  26  29
HETATM   29  O   UNL     1      27.800  44.534  51.254  1.00  0.00    -0.344 OA
BRANCH  29  30
HETATM   30  C   UNL     1      27.631  43.404  52.113  1.00  0.00     0.214 C 
BRANCH  30  31
HETATM   31  C   UNL     1      28.624  43.598  53.236  1.00  0.00    -0.034 A 
HETATM   32  C   UNL     1      29.711  42.718  53.369  1.00  0.00     0.011 A 
HETATM   33  C   UNL     1      30.587  42.831  54.450  1.00  0.00     0.024 A 
HETATM   34  C   UNL     1      30.380  43.824  55.405  1.00  0.00     0.034 A 
HETATM   35 CL   UNL     1      31.442  43.946  56.753  1.00  0.00    -0.084 Cl
HETATM   36  C   UNL     1      29.311  44.708  55.284  1.00  0.00     0.024 A 
HETATM   37  C   UNL     1      28.431  44.594  54.203  1.00  0.00     0.011 A 
ENDBRANCH  30  31
ENDBRANCH  29  30
ENDBRANCH  26  29
BRANCH  27  38
HETATM   38  O   UNL     1      26.660  46.800  52.628  1.00  0.00    -0.353 OA
HETATM   39  C   UNL     1      25.646  47.228  53.538  1.00  0.00     0.210 C 
ENDBRANCH  27  38
ENDBRANCH   1  23
TORSDOF 10
ENDMDL
MODEL 10
REMARK VINA RESULT:      -9.3      1.816      2.837
REMARK  10 active torsions:
REMARK  status: ('A' for Active; 'I' for Inactive)
REMARK    1  A    between atoms: O_2  and  C_3 
REMARK    2  A    between atoms: C_4  and  O_5 
REMARK    3  A    between atoms: O_5  and  C_6 
REMARK    4  A    between atoms: C_6  and  C_7 
REMARK    5  A    between atoms: C_16  and  C_17 
REMARK       I    between atoms: C_17  and  N_18 
REMARK    6  A    between atoms: N_18  and  C_19 
REMARK    7  A    between atoms: C_19  and  N_20 
REMARK    8  A    between atoms: N_20  and  C_21 
REMARK    9  A    between atoms: C_24  and  C_25 
REMARK   10  A    between atoms: C_25  and  N_26 
ROOT
HETATM    1  C   UNL     1      24.732  47.062  50.006  1.00  0.00     0.257 C 
HETATM    2  N   UNL     1      23.911  46.741  48.929  1.00  0.00    -0.299 N 
HETATM    3  O   UNL     1      25.038  48.199  50.339  1.00  0.00    -0.267 OA
HETATM    4  H   UNL     1      24.043  45.815  48.552  1.00  0.00     0.171 HD
ENDROOT
BRANCH   2   5
HETATM    5  C   UNL     1      22.641  47.215  48.677  1.00  0.00     0.179 C 
HETATM    6  S   UNL     1      21.634  46.749  47.431  1.00  0.00    -0.040 SA
BRANCH   5   7
HETATM    7  N   UNL     1      22.234  48.269  49.461  1.00  0.00    -0.333 N 
HETATM    8  H   UNL     1      22.853  48.431  50.252  1.00  0.00     0.168 HD
BRANCH   7   9
HETATM    9  C   UNL     1      21.203  49.210  49.273  1.00  0.00     0.034 A 
HETATM   10  C   UNL     1      21.536  50.428  48.675  1.00  0.00     0.030 A 
HETATM   11  C   UNL     1      20.558  51.401  48.422  1.00  0.00     0.011 A 
HETATM   12  C   UNL     1      19.212  51.161  48.728  1.00  0.00    -0.032 A 
HETATM   13  C   UNL     1      18.886  49.920  49.306  1.00  0.00     0.011 A 
HETATM   14  C   UNL     1      19.868  48.958  49.580  1.00  0.00     0.030 A 
BRANCH  12  15
HETATM   15  C   UNL     1      18.075  52.124  48.463  1.00  0.00     0.273 C 
BRANCH  15  16
HETATM   16  N   UNL     1      17.135  51.797  47.319  1.00  0.00    -0.067 N 
HETATM   17  H   UNL     1      16.972  50.784  47.356  1.00  0.00     0.280 HD
HETATM   18  C   UNL     1      15.807  52.515  47.439  1.00  0.00     0.235 C 
HETATM   19  C   UNL     1      14.873  52.027  46.340  1.00  0.00     0.028 C 
HETATM   20  C   UNL     1      15.479  52.232  44.957  1.00  0.00     0.003 C 
HETATM   21  C   UNL     1      16.863  51.601  44.861  1.00  0.00     0.028 C 
HETATM   22  C   UNL     1      17.782  52.076  45.978  1.00  0.00     0.235 C 
ENDBRANCH  15  16
ENDBRANCH  12  15
ENDBRANCH   7   9
ENDBRANCH   5   7
ENDBRANCH   2   5
BRANCH   1  23
HETATM   23  C   UNL     1      25.424  45.890  50.607  1.00  0.00     0.035 A 
HETATM   24  C   UNL     1      26.626  45.420  50.057  1.00  0.00     0.020 A 
HETATM   25  C   UNL     1      27.326  44.396  50.692  1.00  0.00     0.040 A 
HETATM   26  C   UNL     1      26.820  43.825  51.861  1.00  0.00     0.102 A 
HETATM   27  C   UNL     1      25.609  44.279  52.394  1.00  0.00     0.102 A 
HETATM   28  C   UNL     1      24.891  45.290  51.751  1.00  0.00     0.056 A 
BRANCH  26  29
HETATM   29  O   UNL     1      27.638  42.932  52.489  1.00  0.00    -0.344 OA
BRANCH  29  30
HETATM   30  C   UNL     1      29.022  43.287  52.434  1.00  0.00     0.214 C 
BRANCH  30  31
HETATM   31  C   UNL     1      29.380  43.734  53.833  1.00  0.00    -0.034 A 
HETATM   32  C   UNL     1      28.745  44.854  54.393  1.00  0.00     0.011 A 
HETATM   33  C   UNL     1      29.126  45.332  55.648  1.00  0.00     0.024 A 
HETATM   34  C   UNL     1      30.147  44.694  56.349  1.00  0.00     0.034 A 
HETATM   35 CL   UNL     1      30.637  45.299  57.883  1.00  0.00    -0.084 Cl
HETATM   36  C   UNL     1      30.783  43.579  55.809  1.00  0.00     0.024 A 
HETATM   37  C   UNL     1      30.403  43.100  54.552  1.00  0.00     0.011 A 
ENDBRANCH  30  31
ENDBRANCH  29  30
ENDBRANCH  26  29
BRANCH  27  38
HETATM   38  O   UNL     1      25.076  43.746  53.536  1.00  0.00    -0.353 OA
HETATM   39  C   UNL     1      25.086  44.709  54.591  1.00  0.00     0.210 C 
ENDBRANCH  27  38
ENDBRANCH   1  23
TORSDOF 10
ENDMDL
