MODEL 1
REMARK VINA RESULT:      -9.5      0.000      0.000
REMARK  8 active torsions:
REMARK  status: ('A' for Active; 'I' for Inactive)
REMARK       I    between atoms: N_2  and  C_3 
REMARK       I    between atoms: C_3  and  N_4 
REMARK       I    between atoms: N_4  and  C_5 
REMARK    1  A    between atoms: C_5  and  C_6 
REMARK    2  A    between atoms: C_6  and  N_7 
REMARK    3  A    between atoms: N_7  and  C_8 
REMARK    4  A    between atoms: C_9  and  C_10 
REMARK       I    between atoms: C_10  and  N_11 
REMARK    5  A    between atoms: N_11  and  C_12 
REMARK    6  A    between atoms: C_12  and  C_13 
REMARK    7  A    between atoms: C_13  and  C_14 
REMARK    8  A    between atoms: C_17  and  O_18 
ROOT
HETATM    1  C   UNL     1      24.624  48.605  49.598  1.00  0.00     0.024 A 
HETATM    2  C   UNL     1      25.786  48.017  50.146  1.00  0.00     0.053 A 
HETATM    3  C   UNL     1      27.057  48.372  49.658  1.00  0.00     0.019 A 
HETATM    4  C   UNL     1      27.183  49.302  48.628  1.00  0.00     0.001 A 
HETATM    5  C   UNL     1      26.045  49.878  48.074  1.00  0.00     0.002 A 
HETATM    6  C   UNL     1      24.779  49.529  48.550  1.00  0.00     0.024 A 
ENDROOT
BRANCH   2   7
HETATM    7  C   UNL     1      25.724  47.014  51.245  1.00  0.00     0.253 C 
HETATM    8  N   UNL     1      26.277  45.778  50.964  1.00  0.00    -0.357 N 
HETATM    9  H   UNL     1      26.899  45.700  50.168  1.00  0.00     0.162 HD
HETATM   10  O   UNL     1      25.200  47.279  52.320  1.00  0.00    -0.268 OA
BRANCH   8  11
HETATM   11  C   UNL     1      26.358  44.764  52.000  1.00  0.00     0.127 C 
BRANCH  11  12
HETATM   12  C   UNL     1      27.711  44.049  52.035  1.00  0.00     0.058 C 
BRANCH  12  13
HETATM   13  C   UNL     1      28.511  44.099  53.319  1.00  0.00    -0.057 A 
HETATM   14  C   UNL     1      29.592  43.255  53.589  1.00  0.00     0.010 A 
HETATM   15  C   UNL     1      30.331  43.403  54.768  1.00  0.00     0.037 A 
HETATM   16  C   UNL     1      30.021  44.405  55.688  1.00  0.00     0.068 A 
HETATM   17  C   UNL     1      28.944  45.249  55.431  1.00  0.00     0.037 A 
HETATM   18  C   UNL     1      28.200  45.098  54.256  1.00  0.00     0.010 A 
BRANCH  16  19
HETATM   19  O   UNL     1      30.835  44.454  56.786  1.00  0.00    -0.356 OA
HETATM   20  C   UNL     1      31.663  43.321  57.014  1.00  0.00     0.210 C 
ENDBRANCH  16  19
ENDBRANCH  12  13
ENDBRANCH  11  12
ENDBRANCH   8  11
ENDBRANCH   2   7
BRANCH   1  21
HETATM   21  N   UNL     1      23.314  48.291  50.025  1.00  0.00    -0.283 NA
HETATM   22  H   UNL     1      22.913  49.071  50.546  1.00  0.00     0.128 HD
BRANCH  21  23
HETATM   23  C   UNL     1      22.394  47.938  48.906  1.00  0.00     0.195 C 
BRANCH  23  24
HETATM   24  C   UNL     1      21.201  48.903  48.878  1.00  0.00     0.238 C 
HETATM   25  N   UNL     1      20.373  48.754  49.981  1.00  0.00    -0.278 N 
HETATM   26  C   UNL     1      19.294  49.488  50.387  1.00  0.00     0.322 C 
HETATM   27  H   UNL     1      20.630  47.991  50.597  1.00  0.00     0.173 HD
HETATM   28  N   UNL     1      18.946  50.528  49.575  1.00  0.00    -0.347 N 
HETATM   29  O   UNL     1      18.717  49.223  51.439  1.00  0.00    -0.247 OA
HETATM   30  C   UNL     1      17.773  51.319  49.826  1.00  0.00     0.151 C 
HETATM   31  H   UNL     1      19.356  50.523  48.644  1.00  0.00     0.163 HD
HETATM   32  O   UNL     1      21.010  49.701  47.962  1.00  0.00    -0.272 OA
ENDBRANCH  23  24
ENDBRANCH  21  23
ENDBRANCH   1  21
TORSDOF 8
ENDMDL
MODEL 2
REMARK VINA RESULT:      -9.1      2.383      3.567
REMARK  8 active torsions:
REMARK  status: ('A' for Active; 'I' for Inactive)
REMARK       I    between atoms: N_2  and  C_3 
REMARK       I    between atoms: C_3  and  N_4 
REMARK       I    between atoms: N_4  and  C_5 
REMARK    1  A    between atoms: C_5  and  C_6 
REMARK    2  A    between atoms: C_6  and  N_7 
REMARK    3  A    between atoms: N_7  and  C_8 
REMARK    4  A    between atoms: C_9  and  C_10 
REMARK       I    between atoms: C_10  and  N_11 
REMARK    5  A    between atoms: N_11  and  C_12 
REMARK    6  A    between atoms: C_12  and  C_13 
REMARK    7  A    between atoms: C_13  and  C_14 
REMARK    8  A    between atoms: C_17  and  O_18 
ROOT
HETATM    1  C   UNL     1      24.585  48.446  49.476  1.00  0.00     0.024 A 
HETATM    2  C   UNL     1      25.756  47.929  50.072  1.00  0.00     0.053 A 
HETATM    3  C   UNL     1      27.021  48.386  49.660  1.00  0.00     0.019 A 
HETATM    4  C   UNL     1      27.133  49.348  48.658  1.00  0.00     0.001 A 
HETATM    5  C   UNL     1      25.986  49.855  48.057  1.00  0.00     0.002 A 
HETATM    6  C   UNL     1      24.726  49.405  48.457  1.00  0.00     0.024 A 
ENDROOT
BRANCH   2   7
HETATM    7  C   UNL     1      25.711  46.898  51.146  1.00  0.00     0.253 C 
HETATM    8  N   UNL     1      26.245  45.665  50.818  1.00  0.00    -0.357 N 
HETATM    9  H   UNL     1      26.847  45.602  50.005  1.00  0.00     0.162 HD
HETATM   10  O   UNL     1      25.215  47.139  52.240  1.00  0.00    -0.268 OA
BRANCH   8  11
HETATM   11  C   UNL     1      26.340  44.622  51.825  1.00  0.00     0.127 C 
BRANCH  11  12
HETATM   12  C   UNL     1      27.714  43.947  51.860  1.00  0.00     0.058 C 
BRANCH  12  13
HETATM   13  C   UNL     1      28.545  44.089  53.116  1.00  0.00    -0.057 A 
HETATM   14  C   UNL     1      28.260  45.007  54.132  1.00  0.00     0.010 A 
HETATM   15  C   UNL     1      29.031  45.037  55.300  1.00  0.00     0.037 A 
HETATM   16  C   UNL     1      30.085  44.142  55.485  1.00  0.00     0.068 A 
HETATM   17  C   UNL     1      30.381  43.226  54.480  1.00  0.00     0.037 A 
HETATM   18  C   UNL     1      29.615  43.200  53.309  1.00  0.00     0.010 A 
BRANCH  16  19
HETATM   19  O   UNL     1      30.742  44.263  56.679  1.00  0.00    -0.356 OA
HETATM   20  C   UNL     1      31.686  43.247  56.991  1.00  0.00     0.210 C 
ENDBRANCH  16  19
ENDBRANCH  12  13
ENDBRANCH  11  12
ENDBRANCH   8  11
ENDBRANCH   2   7
BRANCH   1  21
HETATM   21  N   UNL     1      23.281  48.029  49.826  1.00  0.00    -0.283 NA
HETATM   22  H   UNL     1      22.785  48.779  50.309  1.00  0.00     0.128 HD
BRANCH  21  23
HETATM   23  C   UNL     1      22.465  47.589  48.658  1.00  0.00     0.195 C 
BRANCH  23  24
HETATM   24  C   UNL     1      22.681  46.091  48.397  1.00  0.00     0.238 C 
HETATM   25  N   UNL     1      22.856  45.370  49.569  1.00  0.00    -0.278 N 
HETATM   26  C   UNL     1      22.954  44.021  49.776  1.00  0.00     0.322 C 
HETATM   27  H   UNL     1      22.891  45.937  50.409  1.00  0.00     0.173 HD
HETATM   28  N   UNL     1      22.894  43.245  48.656  1.00  0.00    -0.347 N 
HETATM   29  O   UNL     1      23.054  43.569  50.914  1.00  0.00    -0.247 OA
HETATM   30  C   UNL     1      23.084  41.822  48.716  1.00  0.00     0.151 C 
HETATM   31  H   UNL     1      23.019  43.730  47.770  1.00  0.00     0.163 HD
HETATM   32  O   UNL     1      22.709  45.608  47.267  1.00  0.00    -0.272 OA
ENDBRANCH  23  24
ENDBRANCH  21  23
ENDBRANCH   1  21
TORSDOF 8
ENDMDL
MODEL 3
REMARK VINA RESULT:      -8.8      4.962      9.280
REMARK  8 active torsions:
REMARK  status: ('A' for Active; 'I' for Inactive)
REMARK       I    between atoms: N_2  and  C_3 
REMARK       I    between atoms: C_3  and  N_4 
REMARK       I    between atoms: N_4  and  C_5 
REMARK    1  A    between atoms: C_5  and  C_6 
REMARK    2  A    between atoms: C_6  and  N_7 
REMARK    3  A    between atoms: N_7  and  C_8 
REMARK    4  A    between atoms: C_9  and  C_10 
REMARK       I    between atoms: C_10  and  N_11 
REMARK    5  A    between atoms: N_11  and  C_12 
REMARK    6  A    between atoms: C_12  and  C_13 
REMARK    7  A    between atoms: C_13  and  C_14 
REMARK    8  A    between atoms: C_17  and  O_18 
ROOT
HETATM    1  C   UNL     1      28.729  43.393  54.538  1.00  0.00     0.024 A 
HETATM    2  C   UNL     1      28.313  44.692  54.905  1.00  0.00     0.053 A 
HETATM    3  C   UNL     1      29.174  45.531  55.635  1.00  0.00     0.019 A 
HETATM    4  C   UNL     1      30.442  45.090  56.007  1.00  0.00     0.001 A 
HETATM    5  C   UNL     1      30.857  43.808  55.660  1.00  0.00     0.002 A 
HETATM    6  C   UNL     1      30.007  42.967  54.938  1.00  0.00     0.024 A 
ENDROOT
BRANCH   2   7
HETATM    7  C   UNL     1      26.971  45.227  54.544  1.00  0.00     0.253 C 
HETATM    8  N   UNL     1      26.955  46.509  54.025  1.00  0.00    -0.357 N 
HETATM    9  H   UNL     1      27.825  46.901  53.685  1.00  0.00     0.162 HD
HETATM   10  O   UNL     1      25.954  44.566  54.715  1.00  0.00    -0.268 OA
BRANCH   8  11
HETATM   11  C   UNL     1      25.710  47.086  53.549  1.00  0.00     0.127 C 
BRANCH  11  12
HETATM   12  C   UNL     1      25.651  47.207  52.024  1.00  0.00     0.058 C 
BRANCH  12  13
HETATM   13  C   UNL     1      25.635  45.932  51.208  1.00  0.00    -0.057 A 
HETATM   14  C   UNL     1      26.586  45.629  50.228  1.00  0.00     0.010 A 
HETATM   15  C   UNL     1      26.550  44.401  49.560  1.00  0.00     0.037 A 
HETATM   16  C   UNL     1      25.582  43.445  49.869  1.00  0.00     0.068 A 
HETATM   17  C   UNL     1      24.628  43.736  50.839  1.00  0.00     0.037 A 
HETATM   18  C   UNL     1      24.658  44.968  51.504  1.00  0.00     0.010 A 
BRANCH  16  19
HETATM   19  O   UNL     1      25.674  42.279  49.158  1.00  0.00    -0.356 OA
HETATM   20  C   UNL     1      24.482  41.513  49.037  1.00  0.00     0.210 C 
ENDBRANCH  16  19
ENDBRANCH  12  13
ENDBRANCH  11  12
ENDBRANCH   8  11
ENDBRANCH   2   7
BRANCH   1  21
HETATM   21  N   UNL     1      27.917  42.487  53.818  1.00  0.00    -0.283 NA
HETATM   22  H   UNL     1      26.933  42.630  54.049  1.00  0.00     0.128 HD
BRANCH  21  23
HETATM   23  C   UNL     1      28.083  42.588  52.340  1.00  0.00     0.195 C 
BRANCH  23  24
HETATM   24  C   UNL     1      28.541  41.240  51.767  1.00  0.00     0.238 C 
HETATM   25  N   UNL     1      28.258  41.115  50.415  1.00  0.00    -0.278 N 
HETATM   26  C   UNL     1      28.604  40.140  49.521  1.00  0.00     0.322 C 
HETATM   27  H   UNL     1      27.731  41.889  50.023  1.00  0.00     0.173 HD
HETATM   28  N   UNL     1      29.326  39.100  50.029  1.00  0.00    -0.347 N 
HETATM   29  O   UNL     1      28.297  40.241  48.335  1.00  0.00    -0.247 OA
HETATM   30  C   UNL     1      29.670  37.959  49.226  1.00  0.00     0.151 C 
HETATM   31  H   UNL     1      29.340  39.021  51.044  1.00  0.00     0.163 HD
HETATM   32  O   UNL     1      29.082  40.373  52.451  1.00  0.00    -0.272 OA
ENDBRANCH  23  24
ENDBRANCH  21  23
ENDBRANCH   1  21
TORSDOF 8
ENDMDL
MODEL 4
REMARK VINA RESULT:      -8.8      3.777     10.047
REMARK  8 active torsions:
REMARK  status: ('A' for Active; 'I' for Inactive)
REMARK       I    between atoms: N_2  and  C_3 
REMARK       I    between atoms: C_3  and  N_4 
REMARK       I    between atoms: N_4  and  C_5 
REMARK    1  A    between atoms: C_5  and  C_6 
REMARK    2  A    between atoms: C_6  and  N_7 
REMARK    3  A    between atoms: N_7  and  C_8 
REMARK    4  A    between atoms: C_9  and  C_10 
REMARK       I    between atoms: C_10  and  N_11 
REMARK    5  A    between atoms: N_11  and  C_12 
REMARK    6  A    between atoms: C_12  and  C_13 
REMARK    7  A    between atoms: C_13  and  C_14 
REMARK    8  A    between atoms: C_17  and  O_18 
ROOT
HETATM    1  C   UNL     1      28.931  43.352  54.580  1.00  0.00     0.024 A 
HETATM    2  C   UNL     1      28.315  44.601  54.817  1.00  0.00     0.053 A 
HETATM    3  C   UNL     1      28.964  45.573  55.601  1.00  0.00     0.019 A 
HETATM    4  C   UNL     1      30.216  45.313  56.155  1.00  0.00     0.001 A 
HETATM    5  C   UNL     1      30.825  44.082  55.937  1.00  0.00     0.002 A 
HETATM    6  C   UNL     1      30.187  43.110  55.163  1.00  0.00     0.024 A 
ENDROOT
BRANCH   2   7
HETATM    7  C   UNL     1      26.978  44.945  54.259  1.00  0.00     0.253 C 
HETATM    8  N   UNL     1      26.944  46.035  53.408  1.00  0.00    -0.357 N 
HETATM    9  H   UNL     1      27.818  46.366  53.015  1.00  0.00     0.162 HD
HETATM   10  O   UNL     1      25.979  44.302  54.556  1.00  0.00    -0.268 OA
BRANCH   8  11
HETATM   11  C   UNL     1      25.709  46.392  52.732  1.00  0.00     0.127 C 
BRANCH  11  12
HETATM   12  C   UNL     1      25.727  46.061  51.237  1.00  0.00     0.058 C 
BRANCH  12  13
HETATM   13  C   UNL     1      25.364  47.159  50.261  1.00  0.00    -0.057 A 
HETATM   14  C   UNL     1      24.055  47.418  49.841  1.00  0.00     0.010 A 
HETATM   15  C   UNL     1      23.782  48.494  48.989  1.00  0.00     0.037 A 
HETATM   16  C   UNL     1      24.802  49.342  48.557  1.00  0.00     0.068 A 
HETATM   17  C   UNL     1      26.109  49.092  48.965  1.00  0.00     0.037 A 
HETATM   18  C   UNL     1      26.384  48.013  49.811  1.00  0.00     0.010 A 
BRANCH  16  19
HETATM   19  O   UNL     1      24.396  50.367  47.747  1.00  0.00    -0.356 OA
HETATM   20  C   UNL     1      23.258  51.104  48.174  1.00  0.00     0.210 C 
ENDBRANCH  16  19
ENDBRANCH  12  13
ENDBRANCH  11  12
ENDBRANCH   8  11
ENDBRANCH   2   7
BRANCH   1  21
HETATM   21  N   UNL     1      28.339  42.322  53.816  1.00  0.00    -0.283 NA
HETATM   22  H   UNL     1      27.526  42.676  53.310  1.00  0.00     0.128 HD
BRANCH  21  23
HETATM   23  C   UNL     1      29.274  41.692  52.841  1.00  0.00     0.195 C 
BRANCH  23  24
HETATM   24  C   UNL     1      28.497  40.804  51.860  1.00  0.00     0.238 C 
HETATM   25  N   UNL     1      29.275  39.781  51.340  1.00  0.00    -0.278 N 
HETATM   26  C   UNL     1      28.935  38.723  50.543  1.00  0.00     0.322 C 
HETATM   27  H   UNL     1      30.250  39.811  51.621  1.00  0.00     0.173 HD
HETATM   28  N   UNL     1      27.625  38.660  50.170  1.00  0.00    -0.347 N 
HETATM   29  O   UNL     1      29.774  37.881  50.229  1.00  0.00    -0.247 OA
HETATM   30  C   UNL     1      27.150  37.660  49.253  1.00  0.00     0.151 C 
HETATM   31  H   UNL     1      27.079  39.507  50.313  1.00  0.00     0.163 HD
HETATM   32  O   UNL     1      27.319  41.005  51.568  1.00  0.00    -0.272 OA
ENDBRANCH  23  24
ENDBRANCH  21  23
ENDBRANCH   1  21
TORSDOF 8
ENDMDL
MODEL 5
REMARK VINA RESULT:      -8.8      4.631      8.809
REMARK  8 active torsions:
REMARK  status: ('A' for Active; 'I' for Inactive)
REMARK       I    between atoms: N_2  and  C_3 
REMARK       I    between atoms: C_3  and  N_4 
REMARK       I    between atoms: N_4  and  C_5 
REMARK    1  A    between atoms: C_5  and  C_6 
REMARK    2  A    between atoms: C_6  and  N_7 
REMARK    3  A    between atoms: N_7  and  C_8 
REMARK    4  A    between atoms: C_9  and  C_10 
REMARK       I    between atoms: C_10  and  N_11 
REMARK    5  A    between atoms: N_11  and  C_12 
REMARK    6  A    between atoms: C_12  and  C_13 
REMARK    7  A    between atoms: C_13  and  C_14 
REMARK    8  A    between atoms: C_17  and  O_18 
ROOT
HETATM    1  C   UNL     1      29.626  43.848  54.765  1.00  0.00     0.024 A 
HETATM    2  C   UNL     1      28.869  44.898  55.331  1.00  0.00     0.053 A 
HETATM    3  C   UNL     1      29.314  45.542  56.500  1.00  0.00     0.019 A 
HETATM    4  C   UNL     1      30.502  45.148  57.114  1.00  0.00     0.001 A 
HETATM    5  C   UNL     1      31.248  44.107  56.571  1.00  0.00     0.002 A 
HETATM    6  C   UNL     1      30.811  43.460  55.413  1.00  0.00     0.024 A 
ENDROOT
BRANCH   2   7
HETATM    7  C   UNL     1      27.591  45.368  54.729  1.00  0.00     0.253 C 
HETATM    8  N   UNL     1      26.589  44.419  54.628  1.00  0.00    -0.357 N 
HETATM    9  H   UNL     1      26.672  43.572  55.178  1.00  0.00     0.162 HD
HETATM   10  O   UNL     1      27.456  46.521  54.340  1.00  0.00    -0.268 OA
BRANCH   8  11
HETATM   11  C   UNL     1      25.272  44.800  54.148  1.00  0.00     0.127 C 
BRANCH  11  12
HETATM   12  C   UNL     1      25.058  44.475  52.667  1.00  0.00     0.058 C 
BRANCH  12  13
HETATM   13  C   UNL     1      25.644  45.419  51.639  1.00  0.00    -0.057 A 
HETATM   14  C   UNL     1      26.604  45.036  50.697  1.00  0.00     0.010 A 
HETATM   15  C   UNL     1      27.052  45.943  49.730  1.00  0.00     0.037 A 
HETATM   16  C   UNL     1      26.537  47.239  49.670  1.00  0.00     0.068 A 
HETATM   17  C   UNL     1      25.583  47.632  50.605  1.00  0.00     0.037 A 
HETATM   18  C   UNL     1      25.140  46.728  51.576  1.00  0.00     0.010 A 
BRANCH  16  19
HETATM   19  O   UNL     1      27.043  48.015  48.664  1.00  0.00    -0.356 OA
HETATM   20  C   UNL     1      27.817  49.141  49.058  1.00  0.00     0.210 C 
ENDBRANCH  16  19
ENDBRANCH  12  13
ENDBRANCH  11  12
ENDBRANCH   8  11
ENDBRANCH   2   7
BRANCH   1  21
HETATM   21  N   UNL     1      29.238  43.145  53.602  1.00  0.00    -0.283 NA
HETATM   22  H   UNL     1      30.035  43.030  52.974  1.00  0.00     0.128 HD
BRANCH  21  23
HETATM   23  C   UNL     1      28.654  41.803  53.887  1.00  0.00     0.195 C 
BRANCH  23  24
HETATM   24  C   UNL     1      28.325  41.081  52.573  1.00  0.00     0.238 C 
HETATM   25  N   UNL     1      27.079  41.432  52.074  1.00  0.00    -0.278 N 
HETATM   26  C   UNL     1      26.474  41.112  50.890  1.00  0.00     0.322 C 
HETATM   27  H   UNL     1      26.543  42.047  52.678  1.00  0.00     0.173 HD
HETATM   28  N   UNL     1      27.188  40.298  50.061  1.00  0.00    -0.347 N 
HETATM   29  O   UNL     1      25.370  41.574  50.607  1.00  0.00    -0.247 OA
HETATM   30  C   UNL     1      26.634  39.802  48.832  1.00  0.00     0.151 C 
HETATM   31  H   UNL     1      27.981  39.819  50.481  1.00  0.00     0.163 HD
HETATM   32  O   UNL     1      29.087  40.272  52.046  1.00  0.00    -0.272 OA
ENDBRANCH  23  24
ENDBRANCH  21  23
ENDBRANCH   1  21
TORSDOF 8
ENDMDL
MODEL 6
REMARK VINA RESULT:      -8.5      3.638     10.597
REMARK  8 active torsions:
REMARK  status: ('A' for Active; 'I' for Inactive)
REMARK       I    between atoms: N_2  and  C_3 
REMARK       I    between atoms: C_3  and  N_4 
REMARK       I    between atoms: N_4  and  C_5 
REMARK    1  A    between atoms: C_5  and  C_6 
REMARK    2  A    between atoms: C_6  and  N_7 
REMARK    3  A    between atoms: N_7  and  C_8 
REMARK    4  A    between atoms: C_9  and  C_10 
REMARK       I    between atoms: C_10  and  N_11 
REMARK    5  A    between atoms: N_11  and  C_12 
REMARK    6  A    between atoms: C_12  and  C_13 
REMARK    7  A    between atoms: C_13  and  C_14 
REMARK    8  A    between atoms: C_17  and  O_18 
ROOT
HETATM    1  C   UNL     1      25.320  47.961  49.758  1.00  0.00     0.024 A 
HETATM    2  C   UNL     1      24.739  48.930  48.911  1.00  0.00     0.053 A 
HETATM    3  C   UNL     1      25.547  49.892  48.278  1.00  0.00     0.019 A 
HETATM    4  C   UNL     1      26.926  49.904  48.484  1.00  0.00     0.001 A 
HETATM    5  C   UNL     1      27.505  48.960  49.326  1.00  0.00     0.002 A 
HETATM    6  C   UNL     1      26.710  48.003  49.961  1.00  0.00     0.024 A 
ENDROOT
BRANCH   2   7
HETATM    7  C   UNL     1      23.275  48.979  48.648  1.00  0.00     0.253 C 
HETATM    8  N   UNL     1      22.495  49.477  49.676  1.00  0.00    -0.357 N 
HETATM    9  H   UNL     1      22.951  50.003  50.413  1.00  0.00     0.162 HD
HETATM   10  O   UNL     1      22.804  48.585  47.588  1.00  0.00    -0.268 OA
BRANCH   8  11
HETATM   11  C   UNL     1      21.067  49.659  49.484  1.00  0.00     0.127 C 
BRANCH  11  12
HETATM   12  C   UNL     1      20.673  51.124  49.277  1.00  0.00     0.058 C 
BRANCH  12  13
HETATM   13  C   UNL     1      19.215  51.440  49.021  1.00  0.00    -0.057 A 
HETATM   14  C   UNL     1      18.254  51.525  50.034  1.00  0.00     0.010 A 
HETATM   15  C   UNL     1      16.936  51.889  49.734  1.00  0.00     0.037 A 
HETATM   16  C   UNL     1      16.558  52.196  48.426  1.00  0.00     0.068 A 
HETATM   17  C   UNL     1      17.505  52.111  47.409  1.00  0.00     0.037 A 
HETATM   18  C   UNL     1      18.821  51.740  47.707  1.00  0.00     0.010 A 
BRANCH  16  19
HETATM   19  O   UNL     1      15.248  52.559  48.274  1.00  0.00    -0.356 OA
HETATM   20  C   UNL     1      14.831  53.736  48.955  1.00  0.00     0.210 C 
ENDBRANCH  16  19
ENDBRANCH  12  13
ENDBRANCH  11  12
ENDBRANCH   8  11
ENDBRANCH   2   7
BRANCH   1  21
HETATM   21  N   UNL     1      24.575  46.972  50.439  1.00  0.00    -0.283 NA
HETATM   22  H   UNL     1      24.367  46.191  49.815  1.00  0.00     0.128 HD
BRANCH  21  23
HETATM   23  C   UNL     1      25.258  46.446  51.655  1.00  0.00     0.195 C 
BRANCH  23  24
HETATM   24  C   UNL     1      25.287  44.911  51.622  1.00  0.00     0.238 C 
HETATM   25  N   UNL     1      25.990  44.418  50.533  1.00  0.00    -0.278 N 
HETATM   26  C   UNL     1      26.346  43.137  50.212  1.00  0.00     0.322 C 
HETATM   27  H   UNL     1      26.314  45.129  49.886  1.00  0.00     0.173 HD
HETATM   28  N   UNL     1      25.930  42.172  51.081  1.00  0.00    -0.347 N 
HETATM   29  O   UNL     1      27.026  42.909  49.214  1.00  0.00    -0.247 OA
HETATM   30  C   UNL     1      26.146  40.776  50.815  1.00  0.00     0.151 C 
HETATM   31  H   UNL     1      25.211  42.449  51.745  1.00  0.00     0.163 HD
HETATM   32  O   UNL     1      24.729  44.215  52.468  1.00  0.00    -0.272 OA
ENDBRANCH  23  24
ENDBRANCH  21  23
ENDBRANCH   1  21
TORSDOF 8
ENDMDL
MODEL 7
REMARK VINA RESULT:      -8.3      4.263      9.346
REMARK  8 active torsions:
REMARK  status: ('A' for Active; 'I' for Inactive)
REMARK       I    between atoms: N_2  and  C_3 
REMARK       I    between atoms: C_3  and  N_4 
REMARK       I    between atoms: N_4  and  C_5 
REMARK    1  A    between atoms: C_5  and  C_6 
REMARK    2  A    between atoms: C_6  and  N_7 
REMARK    3  A    between atoms: N_7  and  C_8 
REMARK    4  A    between atoms: C_9  and  C_10 
REMARK       I    between atoms: C_10  and  N_11 
REMARK    5  A    between atoms: N_11  and  C_12 
REMARK    6  A    between atoms: C_12  and  C_13 
REMARK    7  A    between atoms: C_13  and  C_14 
REMARK    8  A    between atoms: C_17  and  O_18 
ROOT
HETATM    1  C   UNL     1      29.310  43.979  54.586  1.00  0.00     0.024 A 
HETATM    2  C   UNL     1      28.555  45.044  55.125  1.00  0.00     0.053 A 
HETATM    3  C   UNL     1      29.045  45.776  56.221  1.00  0.00     0.019 A 
HETATM    4  C   UNL     1      30.277  45.456  56.790  1.00  0.00     0.001 A 
HETATM    5  C   UNL     1      31.023  44.402  56.274  1.00  0.00     0.002 A 
HETATM    6  C   UNL     1      30.542  43.668  55.187  1.00  0.00     0.024 A 
ENDROOT
BRANCH   2   7
HETATM    7  C   UNL     1      27.231  45.438  54.569  1.00  0.00     0.253 C 
HETATM    8  N   UNL     1      27.133  46.741  54.114  1.00  0.00    -0.357 N 
HETATM    9  H   UNL     1      27.989  47.256  53.943  1.00  0.00     0.162 HD
HETATM   10  O   UNL     1      26.293  44.650  54.537  1.00  0.00    -0.268 OA
BRANCH   8  11
HETATM   11  C   UNL     1      25.916  47.195  53.463  1.00  0.00     0.127 C 
BRANCH  11  12
HETATM   12  C   UNL     1      26.038  47.247  51.938  1.00  0.00     0.058 C 
BRANCH  12  13
HETATM   13  C   UNL     1      25.036  46.464  51.117  1.00  0.00    -0.057 A 
HETATM   14  C   UNL     1      24.377  46.986  49.999  1.00  0.00     0.010 A 
HETATM   15  C   UNL     1      23.514  46.183  49.244  1.00  0.00     0.037 A 
HETATM   16  C   UNL     1      23.309  44.844  49.575  1.00  0.00     0.068 A 
HETATM   17  C   UNL     1      23.956  44.314  50.688  1.00  0.00     0.037 A 
HETATM   18  C   UNL     1      24.813  45.118  51.448  1.00  0.00     0.010 A 
BRANCH  16  19
HETATM   19  O   UNL     1      22.460  44.166  48.743  1.00  0.00    -0.356 OA
HETATM   20  C   UNL     1      21.264  44.839  48.371  1.00  0.00     0.210 C 
ENDBRANCH  16  19
ENDBRANCH  12  13
ENDBRANCH  11  12
ENDBRANCH   8  11
ENDBRANCH   2   7
BRANCH   1  21
HETATM   21  N   UNL     1      28.880  43.190  53.496  1.00  0.00    -0.283 NA
HETATM   22  H   UNL     1      29.654  43.018  52.853  1.00  0.00     0.128 HD
BRANCH  21  23
HETATM   23  C   UNL     1      28.297  41.880  53.905  1.00  0.00     0.195 C 
BRANCH  23  24
HETATM   24  C   UNL     1      28.217  40.937  52.696  1.00  0.00     0.238 C 
HETATM   25  N   UNL     1      27.015  41.053  52.012  1.00  0.00    -0.278 N 
HETATM   26  C   UNL     1      26.605  40.490  50.836  1.00  0.00     0.322 C 
HETATM   27  H   UNL     1      26.345  41.679  52.446  1.00  0.00     0.173 HD
HETATM   28  N   UNL     1      27.501  39.658  50.233  1.00  0.00    -0.347 N 
HETATM   29  O   UNL     1      25.504  40.764  50.362  1.00  0.00    -0.247 OA
HETATM   30  C   UNL     1      27.165  38.921  49.046  1.00  0.00     0.151 C 
HETATM   31  H   UNL     1      28.280  39.348  50.810  1.00  0.00     0.163 HD
HETATM   32  O   UNL     1      29.121  40.160  52.394  1.00  0.00    -0.272 OA
ENDBRANCH  23  24
ENDBRANCH  21  23
ENDBRANCH   1  21
TORSDOF 8
ENDMDL
MODEL 8
REMARK VINA RESULT:      -8.3      1.648      2.245
REMARK  8 active torsions:
REMARK  status: ('A' for Active; 'I' for Inactive)
REMARK       I    between atoms: N_2  and  C_3 
REMARK       I    between atoms: C_3  and  N_4 
REMARK       I    between atoms: N_4  and  C_5 
REMARK    1  A    between atoms: C_5  and  C_6 
REMARK    2  A    between atoms: C_6  and  N_7 
REMARK    3  A    between atoms: N_7  and  C_8 
REMARK    4  A    between atoms: C_9  and  C_10 
REMARK       I    between atoms: C_10  and  N_11 
REMARK    5  A    between atoms: N_11  and  C_12 
REMARK    6  A    between atoms: C_12  and  C_13 
REMARK    7  A    between atoms: C_13  and  C_14 
REMARK    8  A    between atoms: C_17  and  O_18 
ROOT
HETATM    1  C   UNL     1      24.506  48.634  49.544  1.00  0.00     0.024 A 
HETATM    2  C   UNL     1      25.603  48.016  50.184  1.00  0.00     0.053 A 
HETATM    3  C   UNL     1      26.918  48.322  49.788  1.00  0.00     0.019 A 
HETATM    4  C   UNL     1      27.152  49.231  48.758  1.00  0.00     0.001 A 
HETATM    5  C   UNL     1      26.077  49.835  48.113  1.00  0.00     0.002 A 
HETATM    6  C   UNL     1      24.769  49.535  48.498  1.00  0.00     0.024 A 
ENDROOT
BRANCH   2   7
HETATM    7  C   UNL     1      25.426  47.034  51.290  1.00  0.00     0.253 C 
HETATM    8  N   UNL     1      25.076  45.753  50.905  1.00  0.00    -0.357 N 
HETATM    9  H   UNL     1      25.209  45.488  49.936  1.00  0.00     0.162 HD
HETATM   10  O   UNL     1      25.571  47.361  52.461  1.00  0.00    -0.268 OA
BRANCH   8  11
HETATM   11  C   UNL     1      24.977  44.696  51.897  1.00  0.00     0.127 C 
BRANCH  11  12
HETATM   12  C   UNL     1      26.189  43.762  51.900  1.00  0.00     0.058 C 
BRANCH  12  13
HETATM   13  C   UNL     1      27.276  44.008  52.925  1.00  0.00    -0.057 A 
HETATM   14  C   UNL     1      27.108  44.825  54.047  1.00  0.00     0.010 A 
HETATM   15  C   UNL     1      28.132  44.954  54.992  1.00  0.00     0.037 A 
HETATM   16  C   UNL     1      29.331  44.255  54.848  1.00  0.00     0.068 A 
HETATM   17  C   UNL     1      29.511  43.441  53.733  1.00  0.00     0.037 A 
HETATM   18  C   UNL     1      28.490  43.317  52.784  1.00  0.00     0.010 A 
BRANCH  16  19
HETATM   19  O   UNL     1      30.239  44.451  55.853  1.00  0.00    -0.356 OA
HETATM   20  C   UNL     1      31.074  43.348  56.180  1.00  0.00     0.210 C 
ENDBRANCH  16  19
ENDBRANCH  12  13
ENDBRANCH  11  12
ENDBRANCH   8  11
ENDBRANCH   2   7
BRANCH   1  21
HETATM   21  N   UNL     1      23.158  48.369  49.875  1.00  0.00    -0.283 NA
HETATM   22  H   UNL     1      23.033  48.376  50.888  1.00  0.00     0.128 HD
BRANCH  21  23
HETATM   23  C   UNL     1      22.197  49.332  49.266  1.00  0.00     0.195 C 
BRANCH  23  24
HETATM   24  C   UNL     1      20.818  48.676  49.111  1.00  0.00     0.238 C 
HETATM   25  N   UNL     1      20.868  47.509  48.362  1.00  0.00    -0.278 N 
HETATM   26  C   UNL     1      19.901  46.579  48.099  1.00  0.00     0.322 C 
HETATM   27  H   UNL     1      21.781  47.302  47.969  1.00  0.00     0.173 HD
HETATM   28  N   UNL     1      18.673  46.837  48.633  1.00  0.00    -0.347 N 
HETATM   29  O   UNL     1      20.163  45.571  47.447  1.00  0.00    -0.247 OA
HETATM   30  C   UNL     1      17.539  45.998  48.354  1.00  0.00     0.151 C 
HETATM   31  H   UNL     1      18.522  47.785  48.969  1.00  0.00     0.163 HD
HETATM   32  O   UNL     1      19.792  49.155  49.590  1.00  0.00    -0.272 OA
ENDBRANCH  23  24
ENDBRANCH  21  23
ENDBRANCH   1  21
TORSDOF 8
ENDMDL
MODEL 9
REMARK VINA RESULT:      -8.2      3.095     10.206
REMARK  8 active torsions:
REMARK  status: ('A' for Active; 'I' for Inactive)
REMARK       I    between atoms: N_2  and  C_3 
REMARK       I    between atoms: C_3  and  N_4 
REMARK       I    between atoms: N_4  and  C_5 
REMARK    1  A    between atoms: C_5  and  C_6 
REMARK    2  A    between atoms: C_6  and  N_7 
REMARK    3  A    between atoms: N_7  and  C_8 
REMARK    4  A    between atoms: C_9  and  C_10 
REMARK       I    between atoms: C_10  and  N_11 
REMARK    5  A    between atoms: N_11  and  C_12 
REMARK    6  A    between atoms: C_12  and  C_13 
REMARK    7  A    between atoms: C_13  and  C_14 
REMARK    8  A    between atoms: C_17  and  O_18 
ROOT
HETATM    1  C   UNL     1      27.383  45.093  53.682  1.00  0.00     0.024 A 
HETATM    2  C   UNL     1      26.516  46.164  53.373  1.00  0.00     0.053 A 
HETATM    3  C   UNL     1      26.615  47.380  54.074  1.00  0.00     0.019 A 
HETATM    4  C   UNL     1      27.564  47.538  55.083  1.00  0.00     0.001 A 
HETATM    5  C   UNL     1      28.414  46.485  55.402  1.00  0.00     0.002 A 
HETATM    6  C   UNL     1      28.321  45.274  54.713  1.00  0.00     0.024 A 
ENDROOT
BRANCH   2   7
HETATM    7  C   UNL     1      25.478  46.064  52.310  1.00  0.00     0.253 C 
HETATM    8  N   UNL     1      25.389  47.145  51.452  1.00  0.00    -0.357 N 
HETATM    9  H   UNL     1      26.164  47.797  51.419  1.00  0.00     0.162 HD
HETATM   10  O   UNL     1      24.747  45.085  52.225  1.00  0.00    -0.268 OA
BRANCH   8  11
HETATM   11  C   UNL     1      24.478  47.103  50.321  1.00  0.00     0.127 C 
BRANCH  11  12
HETATM   12  C   UNL     1      24.625  48.310  49.390  1.00  0.00     0.058 C 
BRANCH  12  13
HETATM   13  C   UNL     1      23.378  49.093  49.038  1.00  0.00    -0.057 A 
HETATM   14  C   UNL     1      23.378  50.467  48.773  1.00  0.00     0.010 A 
HETATM   15  C   UNL     1      22.200  51.116  48.386  1.00  0.00     0.037 A 
HETATM   16  C   UNL     1      21.008  50.406  48.236  1.00  0.00     0.068 A 
HETATM   17  C   UNL     1      20.995  49.040  48.500  1.00  0.00     0.037 A 
HETATM   18  C   UNL     1      22.171  48.391  48.894  1.00  0.00     0.010 A 
BRANCH  16  19
HETATM   19  O   UNL     1      19.938  51.156  47.831  1.00  0.00    -0.356 OA
HETATM   20  C   UNL     1      19.414  52.079  48.777  1.00  0.00     0.210 C 
ENDBRANCH  16  19
ENDBRANCH  12  13
ENDBRANCH  11  12
ENDBRANCH   8  11
ENDBRANCH   2   7
BRANCH   1  21
HETATM   21  N   UNL     1      27.336  43.839  53.033  1.00  0.00    -0.283 NA
HETATM   22  H   UNL     1      28.020  43.805  52.276  1.00  0.00     0.128 HD
BRANCH  21  23
HETATM   23  C   UNL     1      27.577  42.687  53.948  1.00  0.00     0.195 C 
BRANCH  23  24
HETATM   24  C   UNL     1      28.029  41.460  53.146  1.00  0.00     0.238 C 
HETATM   25  N   UNL     1      27.759  41.583  51.791  1.00  0.00    -0.278 N 
HETATM   26  C   UNL     1      28.105  40.782  50.739  1.00  0.00     0.322 C 
HETATM   27  H   UNL     1      27.242  42.420  51.541  1.00  0.00     0.173 HD
HETATM   28  N   UNL     1      28.813  39.661  51.057  1.00  0.00    -0.347 N 
HETATM   29  O   UNL     1      27.810  41.097  49.588  1.00  0.00    -0.247 OA
HETATM   30  C   UNL     1      29.156  38.679  50.065  1.00  0.00     0.151 C 
HETATM   31  H   UNL     1      28.817  39.400  52.041  1.00  0.00     0.163 HD
HETATM   32  O   UNL     1      28.557  40.478  53.667  1.00  0.00    -0.272 OA
ENDBRANCH  23  24
ENDBRANCH  21  23
ENDBRANCH   1  21
TORSDOF 8
ENDMDL
MODEL 10
REMARK VINA RESULT:      -8.2      4.770      6.262
REMARK  8 active torsions:
REMARK  status: ('A' for Active; 'I' for Inactive)
REMARK       I    between atoms: N_2  and  C_3 
REMARK       I    between atoms: C_3  and  N_4 
REMARK       I    between atoms: N_4  and  C_5 
REMARK    1  A    between atoms: C_5  and  C_6 
REMARK    2  A    between atoms: C_6  and  N_7 
REMARK    3  A    between atoms: N_7  and  C_8 
REMARK    4  A    between atoms: C_9  and  C_10 
REMARK       I    between atoms: C_10  and  N_11 
REMARK    5  A    between atoms: N_11  and  C_12 
REMARK    6  A    between atoms: C_12  and  C_13 
REMARK    7  A    between atoms: C_13  and  C_14 
REMARK    8  A    between atoms: C_17  and  O_18 
ROOT
HETATM    1  C   UNL     1      26.157  41.366  48.873  1.00  0.00     0.024 A 
HETATM    2  C   UNL     1      27.321  41.041  49.604  1.00  0.00     0.053 A 
HETATM    3  C   UNL     1      28.425  40.460  48.954  1.00  0.00     0.019 A 
HETATM    4  C   UNL     1      28.380  40.194  47.586  1.00  0.00     0.001 A 
HETATM    5  C   UNL     1      27.233  40.500  46.861  1.00  0.00     0.002 A 
HETATM    6  C   UNL     1      26.132  41.074  47.499  1.00  0.00     0.024 A 
ENDROOT
BRANCH   2   7
HETATM    7  C   UNL     1      27.437  41.295  51.066  1.00  0.00     0.253 C 
HETATM    8  N   UNL     1      28.709  41.175  51.598  1.00  0.00    -0.357 N 
HETATM    9  H   UNL     1      29.498  41.184  50.963  1.00  0.00     0.162 HD
HETATM   10  O   UNL     1      26.457  41.576  51.744  1.00  0.00    -0.268 OA
BRANCH   8  11
HETATM   11  C   UNL     1      28.947  41.499  52.994  1.00  0.00     0.127 C 
BRANCH  11  12
HETATM   12  C   UNL     1      30.159  42.411  53.199  1.00  0.00     0.058 C 
BRANCH  12  13
HETATM   13  C   UNL     1      30.089  43.454  54.294  1.00  0.00    -0.057 A 
HETATM   14  C   UNL     1      29.076  44.414  54.382  1.00  0.00     0.010 A 
HETATM   15  C   UNL     1      29.034  45.306  55.460  1.00  0.00     0.037 A 
HETATM   16  C   UNL     1      29.986  45.243  56.478  1.00  0.00     0.068 A 
HETATM   17  C   UNL     1      31.001  44.295  56.399  1.00  0.00     0.037 A 
HETATM   18  C   UNL     1      31.048  43.408  55.318  1.00  0.00     0.010 A 
BRANCH  16  19
HETATM   19  O   UNL     1      29.817  46.156  57.483  1.00  0.00    -0.356 OA
HETATM   20  C   UNL     1      28.508  46.266  58.029  1.00  0.00     0.210 C 
ENDBRANCH  16  19
ENDBRANCH  12  13
ENDBRANCH  11  12
ENDBRANCH   8  11
ENDBRANCH   2   7
BRANCH   1  21
HETATM   21  N   UNL     1      25.004  41.939  49.457  1.00  0.00    -0.283 NA
HETATM   22  H   UNL     1      25.122  42.026  50.467  1.00  0.00     0.128 HD
BRANCH  21  23
HETATM   23  C   UNL     1      24.658  43.277  48.897  1.00  0.00     0.195 C 
BRANCH  23  24
HETATM   24  C   UNL     1      25.087  44.384  49.870  1.00  0.00     0.238 C 
HETATM   25  N   UNL     1      24.762  44.088  51.186  1.00  0.00    -0.278 N 
HETATM   26  C   UNL     1      25.073  44.741  52.346  1.00  0.00     0.322 C 
HETATM   27  H   UNL     1      24.231  43.232  51.304  1.00  0.00     0.173 HD
HETATM   28  N   UNL     1      25.800  45.886  52.204  1.00  0.00    -0.347 N 
HETATM   29  O   UNL     1      24.731  44.281  53.433  1.00  0.00    -0.247 OA
HETATM   30  C   UNL     1      26.110  46.726  53.328  1.00  0.00     0.151 C 
HETATM   31  H   UNL     1      25.844  46.273  51.264  1.00  0.00     0.163 HD
HETATM   32  O   UNL     1      25.641  45.418  49.502  1.00  0.00    -0.272 OA
ENDBRANCH  23  24
ENDBRANCH  21  23
ENDBRANCH   1  21
TORSDOF 8
ENDMDL
