MODEL 1
REMARK VINA RESULT:      -8.7      0.000      0.000
REMARK  7 active torsions:
REMARK  status: ('A' for Active; 'I' for Inactive)
REMARK    1  A    between atoms: C_3  and  N_4 
REMARK    2  A    between atoms: N_7  and  C_9 
REMARK    3  A    between atoms: N_12  and  C_13 
REMARK    4  A    between atoms: C_16  and  C_17 
REMARK       I    between atoms: C_17  and  N_18 
REMARK    5  A    between atoms: C_20  and  C_21 
REMARK    6  A    between atoms: C_21  and  O_22 
REMARK    7  A    between atoms: C_33  and  O_34 
ROOT
HETATM    1  C   UNL     1      23.521  46.988  48.822  1.00  0.00     0.191 C 
HETATM    2  C   UNL     1      24.700  47.566  49.625  1.00  0.00     0.053 C 
HETATM    3  C   UNL     1      24.682  47.120  51.085  1.00  0.00     0.125 C 
HETATM    4  N   UNL     1      24.567  45.668  51.149  1.00  0.00    -0.381 N 
HETATM    5  C   UNL     1      23.550  44.976  50.374  1.00  0.00     0.125 C 
HETATM    6  C   UNL     1      23.568  45.456  48.929  1.00  0.00     0.053 C 
ENDROOT
BRANCH   4   7
HETATM    7  C   UNL     1      25.607  44.965  51.743  1.00  0.00     0.030 A 
HETATM    8  C   UNL     1      25.511  44.563  53.084  1.00  0.00     0.030 A 
HETATM    9  C   UNL     1      26.554  43.882  53.718  1.00  0.00     0.019 A 
HETATM   10  C   UNL     1      27.727  43.590  53.020  1.00  0.00     0.032 A 
HETATM   11  C   UNL     1      27.854  44.005  51.692  1.00  0.00     0.019 A 
HETATM   12  C   UNL     1      26.792  44.662  51.056  1.00  0.00     0.030 A 
BRANCH  10  13
HETATM   13  C   UNL     1      28.851  42.963  53.758  1.00  0.00     0.253 C 
HETATM   14  N   UNL     1      29.520  43.675  54.761  1.00  0.00    -0.348 N 
HETATM   15  C   UNL     1      29.702  45.130  54.714  1.00  0.00     0.132 C 
HETATM   16  C   UNL     1      30.573  42.947  55.472  1.00  0.00     0.126 C 
HETATM   17  C   UNL     1      29.889  45.736  56.112  1.00  0.00     0.027 C 
HETATM   18  C   UNL     1      31.018  45.008  56.859  1.00  0.00     0.010 C 
HETATM   19  C   UNL     1      30.806  43.496  56.875  1.00  0.00     0.020 C 
HETATM   20  O   UNL     1      29.125  41.800  53.463  1.00  0.00    -0.267 OA
BRANCH  17  21
HETATM   21  C   UNL     1      28.562  45.728  56.884  1.00  0.00     0.170 C 
BRANCH  21  22
HETATM   22  O   UNL     1      28.693  46.361  58.149  1.00  0.00    -0.400 OA
HETATM   23  H   UNL     1      28.779  47.319  58.005  1.00  0.00     0.209 HD
ENDBRANCH  21  22
ENDBRANCH  17  21
ENDBRANCH  10  13
ENDBRANCH   4   7
BRANCH   1  24
HETATM   24  N   UNL     1      22.180  47.585  49.295  1.00  0.00    -0.064 N 
HETATM   25  C   UNL     1      22.157  49.127  49.182  1.00  0.00     0.255 C 
HETATM   26  C   UNL     1      20.874  49.701  49.812  1.00  0.00     0.150 C 
HETATM   27  N   UNL     1      19.654  49.111  49.217  1.00  0.00    -0.375 N 
HETATM   28  C   UNL     1      19.639  47.639  49.158  1.00  0.00     0.150 C 
HETATM   29  C   UNL     1      20.937  47.041  48.569  1.00  0.00     0.255 C 
HETATM   30  H   UNL     1      22.052  47.355  50.288  1.00  0.00     0.280 HD
BRANCH  27  31
HETATM   31  C   UNL     1      19.094  49.853  48.164  1.00  0.00     0.063 A 
HETATM   32  C   UNL     1      19.394  49.646  46.812  1.00  0.00     0.032 A 
HETATM   33  C   UNL     1      18.827  50.448  45.812  1.00  0.00     0.002 A 
HETATM   34  C   UNL     1      17.939  51.470  46.141  1.00  0.00     0.003 A 
HETATM   35  C   UNL     1      17.595  51.680  47.470  1.00  0.00     0.039 A 
HETATM   36  C   UNL     1      18.153  50.867  48.450  1.00  0.00     0.092 A 
BRANCH  36  37
HETATM   37  O   UNL     1      17.698  51.028  49.734  1.00  0.00    -0.358 OA
HETATM   38  H   UNL     1      16.748  50.810  49.681  1.00  0.00     0.218 HD
ENDBRANCH  36  37
ENDBRANCH  27  31
ENDBRANCH   1  24
TORSDOF 7
ENDMDL
MODEL 2
REMARK VINA RESULT:      -8.7      2.386      4.321
REMARK  7 active torsions:
REMARK  status: ('A' for Active; 'I' for Inactive)
REMARK    1  A    between atoms: C_3  and  N_4 
REMARK    2  A    between atoms: N_7  and  C_9 
REMARK    3  A    between atoms: N_12  and  C_13 
REMARK    4  A    between atoms: C_16  and  C_17 
REMARK       I    between atoms: C_17  and  N_18 
REMARK    5  A    between atoms: C_20  and  C_21 
REMARK    6  A    between atoms: C_21  and  O_22 
REMARK    7  A    between atoms: C_33  and  O_34 
ROOT
HETATM    1  C   UNL     1      20.639  50.020  47.461  1.00  0.00     0.191 C 
HETATM    2  C   UNL     1      21.968  50.474  48.090  1.00  0.00     0.053 C 
HETATM    3  C   UNL     1      22.260  49.759  49.407  1.00  0.00     0.125 C 
HETATM    4  N   UNL     1      22.148  48.318  49.214  1.00  0.00    -0.381 N 
HETATM    5  C   UNL     1      20.982  47.754  48.554  1.00  0.00     0.125 C 
HETATM    6  C   UNL     1      20.694  48.499  47.259  1.00  0.00     0.053 C 
ENDROOT
BRANCH   4   7
HETATM    7  C   UNL     1      23.285  47.550  49.427  1.00  0.00     0.030 A 
HETATM    8  C   UNL     1      23.200  46.149  49.425  1.00  0.00     0.030 A 
HETATM    9  C   UNL     1      24.320  45.349  49.667  1.00  0.00     0.019 A 
HETATM   10  C   UNL     1      25.559  45.938  49.923  1.00  0.00     0.032 A 
HETATM   11  C   UNL     1      25.661  47.330  49.955  1.00  0.00     0.019 A 
HETATM   12  C   UNL     1      24.538  48.124  49.683  1.00  0.00     0.030 A 
BRANCH  10  13
HETATM   13  C   UNL     1      26.699  45.057  50.281  1.00  0.00     0.253 C 
HETATM   14  N   UNL     1      26.989  44.792  51.624  1.00  0.00    -0.348 N 
HETATM   15  C   UNL     1      26.754  45.767  52.695  1.00  0.00     0.132 C 
HETATM   16  C   UNL     1      28.094  43.863  51.871  1.00  0.00     0.126 C 
HETATM   17  C   UNL     1      26.562  45.093  54.060  1.00  0.00     0.027 C 
HETATM   18  C   UNL     1      27.734  44.142  54.353  1.00  0.00     0.010 C 
HETATM   19  C   UNL     1      27.961  43.152  53.213  1.00  0.00     0.020 C 
HETATM   20  O   UNL     1      27.331  44.565  49.347  1.00  0.00    -0.267 OA
BRANCH  17  21
HETATM   21  C   UNL     1      25.196  44.394  54.128  1.00  0.00     0.170 C 
BRANCH  21  22
HETATM   22  O   UNL     1      25.158  43.429  55.169  1.00  0.00    -0.400 OA
HETATM   23  H   UNL     1      24.943  43.883  56.001  1.00  0.00     0.209 HD
ENDBRANCH  21  22
ENDBRANCH  17  21
ENDBRANCH  10  13
ENDBRANCH   4   7
BRANCH   1  24
HETATM   24  N   UNL     1      19.436  50.473  48.313  1.00  0.00    -0.064 N 
HETATM   25  C   UNL     1      19.247  52.008  48.285  1.00  0.00     0.255 C 
HETATM   26  C   UNL     1      18.146  52.440  49.272  1.00  0.00     0.150 C 
HETATM   27  N   UNL     1      16.865  51.746  49.010  1.00  0.00    -0.375 N 
HETATM   28  C   UNL     1      16.964  50.282  48.886  1.00  0.00     0.150 C 
HETATM   29  C   UNL     1      18.093  49.826  47.933  1.00  0.00     0.255 C 
HETATM   30  H   UNL     1      19.612  50.211  49.291  1.00  0.00     0.280 HD
BRANCH  27  31
HETATM   31  C   UNL     1      15.970  52.452  48.189  1.00  0.00     0.063 A 
HETATM   32  C   UNL     1      15.927  52.336  46.794  1.00  0.00     0.032 A 
HETATM   33  C   UNL     1      15.032  53.099  46.030  1.00  0.00     0.002 A 
HETATM   34  C   UNL     1      14.153  53.989  46.645  1.00  0.00     0.003 A 
HETATM   35  C   UNL     1      14.148  54.102  48.030  1.00  0.00     0.039 A 
HETATM   36  C   UNL     1      15.031  53.328  48.775  1.00  0.00     0.092 A 
BRANCH  36  37
HETATM   37  O   UNL     1      14.913  53.382  50.141  1.00  0.00    -0.358 OA
HETATM   38  H   UNL     1      14.944  52.448  50.421  1.00  0.00     0.218 HD
ENDBRANCH  36  37
ENDBRANCH  27  31
ENDBRANCH   1  24
TORSDOF 7
ENDMDL
MODEL 3
REMARK VINA RESULT:      -8.5      2.284      3.032
REMARK  7 active torsions:
REMARK  status: ('A' for Active; 'I' for Inactive)
REMARK    1  A    between atoms: C_3  and  N_4 
REMARK    2  A    between atoms: N_7  and  C_9 
REMARK    3  A    between atoms: N_12  and  C_13 
REMARK    4  A    between atoms: C_16  and  C_17 
REMARK       I    between atoms: C_17  and  N_18 
REMARK    5  A    between atoms: C_20  and  C_21 
REMARK    6  A    between atoms: C_21  and  O_22 
REMARK    7  A    between atoms: C_33  and  O_34 
ROOT
HETATM    1  C   UNL     1      22.237  48.807  47.824  1.00  0.00     0.191 C 
HETATM    2  C   UNL     1      23.633  48.958  48.455  1.00  0.00     0.053 C 
HETATM    3  C   UNL     1      23.776  48.152  49.744  1.00  0.00     0.125 C 
HETATM    4  N   UNL     1      23.372  46.772  49.502  1.00  0.00    -0.381 N 
HETATM    5  C   UNL     1      22.114  46.481  48.835  1.00  0.00     0.125 C 
HETATM    6  C   UNL     1      21.980  47.315  47.569  1.00  0.00     0.053 C 
ENDROOT
BRANCH   4   7
HETATM    7  C   UNL     1      24.329  45.781  49.677  1.00  0.00     0.030 A 
HETATM    8  C   UNL     1      23.947  44.499  50.103  1.00  0.00     0.030 A 
HETATM    9  C   UNL     1      24.890  43.490  50.318  1.00  0.00     0.019 A 
HETATM   10  C   UNL     1      26.247  43.744  50.113  1.00  0.00     0.032 A 
HETATM   11  C   UNL     1      26.651  45.020  49.715  1.00  0.00     0.019 A 
HETATM   12  C   UNL     1      25.696  46.017  49.474  1.00  0.00     0.030 A 
BRANCH  10  13
HETATM   13  C   UNL     1      27.223  42.681  50.455  1.00  0.00     0.253 C 
HETATM   14  N   UNL     1      27.821  42.654  51.721  1.00  0.00    -0.348 N 
HETATM   15  C   UNL     1      28.118  43.870  52.485  1.00  0.00     0.132 C 
HETATM   16  C   UNL     1      28.723  41.530  51.981  1.00  0.00     0.126 C 
HETATM   17  C   UNL     1      28.183  43.605  53.995  1.00  0.00     0.027 C 
HETATM   18  C   UNL     1      29.157  42.452  54.290  1.00  0.00     0.010 C 
HETATM   19  C   UNL     1      28.830  41.208  53.467  1.00  0.00     0.020 C 
HETATM   20  O   UNL     1      27.441  41.832  49.591  1.00  0.00    -0.267 OA
BRANCH  17  21
HETATM   21  C   UNL     1      26.777  43.356  54.559  1.00  0.00     0.170 C 
BRANCH  21  22
HETATM   22  O   UNL     1      25.806  44.159  53.903  1.00  0.00    -0.400 OA
HETATM   23  H   UNL     1      26.267  44.773  53.306  1.00  0.00     0.209 HD
ENDBRANCH  21  22
ENDBRANCH  17  21
ENDBRANCH  10  13
ENDBRANCH   4   7
BRANCH   1  24
HETATM   24  N   UNL     1      21.154  49.465  48.704  1.00  0.00    -0.064 N 
HETATM   25  C   UNL     1      20.848  50.915  48.263  1.00  0.00     0.255 C 
HETATM   26  C   UNL     1      19.889  51.596  49.258  1.00  0.00     0.150 C 
HETATM   27  N   UNL     1      18.638  50.824  49.436  1.00  0.00    -0.375 N 
HETATM   28  C   UNL     1      18.826  49.393  49.729  1.00  0.00     0.150 C 
HETATM   29  C   UNL     1      19.821  48.701  48.769  1.00  0.00     0.255 C 
HETATM   30  H   UNL     1      21.503  49.513  49.669  1.00  0.00     0.280 HD
BRANCH  27  31
HETATM   31  C   UNL     1      17.574  51.230  48.615  1.00  0.00     0.063 A 
HETATM   32  C   UNL     1      17.390  50.793  47.297  1.00  0.00     0.032 A 
HETATM   33  C   UNL     1      16.323  51.266  46.518  1.00  0.00     0.002 A 
HETATM   34  C   UNL     1      15.412  52.180  47.043  1.00  0.00     0.003 A 
HETATM   35  C   UNL     1      15.548  52.608  48.358  1.00  0.00     0.039 A 
HETATM   36  C   UNL     1      16.601  52.118  49.123  1.00  0.00     0.092 A 
BRANCH  36  37
HETATM   37  O   UNL     1      16.631  52.472  50.448  1.00  0.00    -0.358 OA
HETATM   38  H   UNL     1      16.917  51.659  50.906  1.00  0.00     0.218 HD
ENDBRANCH  36  37
ENDBRANCH  27  31
ENDBRANCH   1  24
TORSDOF 7
ENDMDL
MODEL 4
REMARK VINA RESULT:      -8.4      3.326     12.610
REMARK  7 active torsions:
REMARK  status: ('A' for Active; 'I' for Inactive)
REMARK    1  A    between atoms: C_3  and  N_4 
REMARK    2  A    between atoms: N_7  and  C_9 
REMARK    3  A    between atoms: N_12  and  C_13 
REMARK    4  A    between atoms: C_16  and  C_17 
REMARK       I    between atoms: C_17  and  N_18 
REMARK    5  A    between atoms: C_20  and  C_21 
REMARK    6  A    between atoms: C_21  and  O_22 
REMARK    7  A    between atoms: C_33  and  O_34 
ROOT
HETATM    1  C   UNL     1      23.002  47.679  48.325  1.00  0.00     0.191 C 
HETATM    2  C   UNL     1      21.647  47.282  47.714  1.00  0.00     0.053 C 
HETATM    3  C   UNL     1      20.476  47.613  48.635  1.00  0.00     0.125 C 
HETATM    4  N   UNL     1      20.562  49.008  49.050  1.00  0.00    -0.381 N 
HETATM    5  C   UNL     1      21.810  49.545  49.568  1.00  0.00     0.125 C 
HETATM    6  C   UNL     1      22.966  49.180  48.648  1.00  0.00     0.053 C 
ENDROOT
BRANCH   4   7
HETATM    7  C   UNL     1      19.523  49.853  48.685  1.00  0.00     0.030 A 
HETATM    8  C   UNL     1      18.347  49.326  48.129  1.00  0.00     0.030 A 
HETATM    9  C   UNL     1      17.296  50.154  47.723  1.00  0.00     0.019 A 
HETATM   10  C   UNL     1      17.402  51.538  47.862  1.00  0.00     0.032 A 
HETATM   11  C   UNL     1      18.574  52.086  48.389  1.00  0.00     0.019 A 
HETATM   12  C   UNL     1      19.610  51.247  48.819  1.00  0.00     0.030 A 
BRANCH  10  13
HETATM   13  C   UNL     1      16.312  52.387  47.321  1.00  0.00     0.253 C 
HETATM   14  N   UNL     1      15.342  52.921  48.179  1.00  0.00    -0.348 N 
HETATM   15  C   UNL     1      14.884  52.228  49.388  1.00  0.00     0.132 C 
HETATM   16  C   UNL     1      14.345  53.795  47.557  1.00  0.00     0.126 C 
HETATM   17  C   UNL     1      14.328  53.199  50.438  1.00  0.00     0.027 C 
HETATM   18  C   UNL     1      13.252  54.100  49.810  1.00  0.00     0.010 C 
HETATM   19  C   UNL     1      13.756  54.793  48.546  1.00  0.00     0.020 C 
HETATM   20  O   UNL     1      16.334  52.611  46.111  1.00  0.00    -0.267 OA
BRANCH  17  21
HETATM   21  C   UNL     1      15.467  53.998  51.088  1.00  0.00     0.170 C 
BRANCH  21  22
HETATM   22  O   UNL     1      15.075  54.533  52.344  1.00  0.00    -0.400 OA
HETATM   23  H   UNL     1      14.654  55.396  52.192  1.00  0.00     0.209 HD
ENDBRANCH  21  22
ENDBRANCH  17  21
ENDBRANCH  10  13
ENDBRANCH   4   7
BRANCH   1  24
HETATM   24  N   UNL     1      23.338  46.804  49.551  1.00  0.00    -0.064 N 
HETATM   25  C   UNL     1      23.101  45.301  49.276  1.00  0.00     0.255 C 
HETATM   26  C   UNL     1      23.286  44.477  50.564  1.00  0.00     0.150 C 
HETATM   27  N   UNL     1      24.616  44.698  51.176  1.00  0.00    -0.375 N 
HETATM   28  C   UNL     1      24.992  46.110  51.357  1.00  0.00     0.150 C 
HETATM   29  C   UNL     1      24.771  46.965  50.087  1.00  0.00     0.255 C 
HETATM   30  H   UNL     1      22.714  47.071  50.322  1.00  0.00     0.280 HD
BRANCH  27  31
HETATM   31  C   UNL     1      25.596  43.761  50.808  1.00  0.00     0.063 A 
HETATM   32  C   UNL     1      25.981  43.507  49.486  1.00  0.00     0.032 A 
HETATM   33  C   UNL     1      26.942  42.531  49.185  1.00  0.00     0.002 A 
HETATM   34  C   UNL     1      27.546  41.792  50.201  1.00  0.00     0.003 A 
HETATM   35  C   UNL     1      27.210  42.044  51.526  1.00  0.00     0.039 A 
HETATM   36  C   UNL     1      26.267  43.025  51.810  1.00  0.00     0.092 A 
BRANCH  36  37
HETATM   37  O   UNL     1      26.051  43.324  53.131  1.00  0.00    -0.358 OA
HETATM   38  H   UNL     1      25.241  43.868  53.124  1.00  0.00     0.218 HD
ENDBRANCH  36  37
ENDBRANCH  27  31
ENDBRANCH   1  24
TORSDOF 7
ENDMDL
MODEL 5
REMARK VINA RESULT:      -8.4      2.235     12.396
REMARK  7 active torsions:
REMARK  status: ('A' for Active; 'I' for Inactive)
REMARK    1  A    between atoms: C_3  and  N_4 
REMARK    2  A    between atoms: N_7  and  C_9 
REMARK    3  A    between atoms: N_12  and  C_13 
REMARK    4  A    between atoms: C_16  and  C_17 
REMARK       I    between atoms: C_17  and  N_18 
REMARK    5  A    between atoms: C_20  and  C_21 
REMARK    6  A    between atoms: C_21  and  O_22 
REMARK    7  A    between atoms: C_33  and  O_34 
ROOT
HETATM    1  C   UNL     1      24.082  47.419  48.911  1.00  0.00     0.191 C 
HETATM    2  C   UNL     1      22.795  46.830  48.307  1.00  0.00     0.053 C 
HETATM    3  C   UNL     1      21.537  47.357  48.995  1.00  0.00     0.125 C 
HETATM    4  N   UNL     1      21.574  48.814  49.027  1.00  0.00    -0.381 N 
HETATM    5  C   UNL     1      22.762  49.509  49.495  1.00  0.00     0.125 C 
HETATM    6  C   UNL     1      24.004  48.950  48.817  1.00  0.00     0.053 C 
ENDROOT
BRANCH   4   7
HETATM    7  C   UNL     1      20.569  49.498  48.356  1.00  0.00     0.030 A 
HETATM    8  C   UNL     1      20.385  50.872  48.572  1.00  0.00     0.030 A 
HETATM    9  C   UNL     1      19.363  51.582  47.935  1.00  0.00     0.019 A 
HETATM   10  C   UNL     1      18.493  50.925  47.064  1.00  0.00     0.032 A 
HETATM   11  C   UNL     1      18.641  49.552  46.855  1.00  0.00     0.019 A 
HETATM   12  C   UNL     1      19.686  48.855  47.476  1.00  0.00     0.030 A 
BRANCH  10  13
HETATM   13  C   UNL     1      17.357  51.690  46.493  1.00  0.00     0.253 C 
HETATM   14  N   UNL     1      16.326  52.146  47.323  1.00  0.00    -0.348 N 
HETATM   15  C   UNL     1      15.888  51.418  48.519  1.00  0.00     0.132 C 
HETATM   16  C   UNL     1      15.283  52.943  46.673  1.00  0.00     0.126 C 
HETATM   17  C   UNL     1      15.231  52.343  49.552  1.00  0.00     0.027 C 
HETATM   18  C   UNL     1      14.107  53.160  48.895  1.00  0.00     0.010 C 
HETATM   19  C   UNL     1      14.592  53.892  47.646  1.00  0.00     0.020 C 
HETATM   20  O   UNL     1      17.396  51.917  45.284  1.00  0.00    -0.267 OA
BRANCH  17  21
HETATM   21  C   UNL     1      16.288  53.224  50.234  1.00  0.00     0.170 C 
BRANCH  21  22
HETATM   22  O   UNL     1      15.692  54.141  51.142  1.00  0.00    -0.400 OA
HETATM   23  H   UNL     1      16.295  54.895  51.256  1.00  0.00     0.209 HD
ENDBRANCH  21  22
ENDBRANCH  17  21
ENDBRANCH  10  13
ENDBRANCH   4   7
BRANCH   1  24
HETATM   24  N   UNL     1      24.302  46.914  50.352  1.00  0.00    -0.064 N 
HETATM   25  C   UNL     1      24.452  45.376  50.413  1.00  0.00     0.255 C 
HETATM   26  C   UNL     1      24.505  44.891  51.874  1.00  0.00     0.150 C 
HETATM   27  N   UNL     1      25.584  45.556  52.639  1.00  0.00    -0.375 N 
HETATM   28  C   UNL     1      25.607  47.025  52.535  1.00  0.00     0.150 C 
HETATM   29  C   UNL     1      25.509  47.533  51.078  1.00  0.00     0.255 C 
HETATM   30  H   UNL     1      23.477  47.157  50.913  1.00  0.00     0.280 HD
BRANCH  27  31
HETATM   31  C   UNL     1      26.794  44.846  52.688  1.00  0.00     0.063 A 
HETATM   32  C   UNL     1      27.367  44.195  51.588  1.00  0.00     0.032 A 
HETATM   33  C   UNL     1      28.562  43.471  51.714  1.00  0.00     0.002 A 
HETATM   34  C   UNL     1      29.216  43.390  52.942  1.00  0.00     0.003 A 
HETATM   35  C   UNL     1      28.691  44.053  54.045  1.00  0.00     0.039 A 
HETATM   36  C   UNL     1      27.514  44.779  53.901  1.00  0.00     0.092 A 
BRANCH  36  37
HETATM   37  O   UNL     1      27.094  45.514  54.981  1.00  0.00    -0.358 OA
HETATM   38  H   UNL     1      26.156  45.268  55.087  1.00  0.00     0.218 HD
ENDBRANCH  36  37
ENDBRANCH  27  31
ENDBRANCH   1  24
TORSDOF 7
ENDMDL
MODEL 6
REMARK VINA RESULT:      -8.3     15.529     19.511
REMARK  7 active torsions:
REMARK  status: ('A' for Active; 'I' for Inactive)
REMARK    1  A    between atoms: C_3  and  N_4 
REMARK    2  A    between atoms: N_7  and  C_9 
REMARK    3  A    between atoms: N_12  and  C_13 
REMARK    4  A    between atoms: C_16  and  C_17 
REMARK       I    between atoms: C_17  and  N_18 
REMARK    5  A    between atoms: C_20  and  C_21 
REMARK    6  A    between atoms: C_21  and  O_22 
REMARK    7  A    between atoms: C_33  and  O_34 
ROOT
HETATM    1  C   UNL     1      39.021  53.590  43.542  1.00  0.00     0.191 C 
HETATM    2  C   UNL     1      38.760  52.192  42.956  1.00  0.00     0.053 C 
HETATM    3  C   UNL     1      37.762  51.391  43.789  1.00  0.00     0.125 C 
HETATM    4  N   UNL     1      36.559  52.186  44.004  1.00  0.00    -0.381 N 
HETATM    5  C   UNL     1      36.659  53.558  44.474  1.00  0.00     0.125 C 
HETATM    6  C   UNL     1      37.678  54.329  43.648  1.00  0.00     0.053 C 
ENDROOT
BRANCH   4   7
HETATM    7  C   UNL     1      35.364  51.696  43.494  1.00  0.00     0.030 A 
HETATM    8  C   UNL     1      34.153  51.969  44.149  1.00  0.00     0.030 A 
HETATM    9  C   UNL     1      32.938  51.464  43.679  1.00  0.00     0.019 A 
HETATM   10  C   UNL     1      32.908  50.663  42.536  1.00  0.00     0.032 A 
HETATM   11  C   UNL     1      34.104  50.356  41.884  1.00  0.00     0.019 A 
HETATM   12  C   UNL     1      35.314  50.891  42.347  1.00  0.00     0.030 A 
BRANCH  10  13
HETATM   13  C   UNL     1      31.614  50.059  42.132  1.00  0.00     0.253 C 
HETATM   14  N   UNL     1      30.968  50.491  40.968  1.00  0.00    -0.348 N 
HETATM   15  C   UNL     1      31.048  51.873  40.481  1.00  0.00     0.132 C 
HETATM   16  C   UNL     1      29.729  49.790  40.622  1.00  0.00     0.126 C 
HETATM   17  C   UNL     1      30.808  51.970  38.969  1.00  0.00     0.027 C 
HETATM   18  C   UNL     1      29.492  51.271  38.594  1.00  0.00     0.010 C 
HETATM   19  C   UNL     1      29.434  49.842  39.128  1.00  0.00     0.020 C 
HETATM   20  O   UNL     1      31.178  49.157  42.847  1.00  0.00    -0.267 OA
BRANCH  17  21
HETATM   21  C   UNL     1      32.016  51.419  38.197  1.00  0.00     0.170 C 
BRANCH  21  22
HETATM   22  O   UNL     1      31.769  51.393  36.798  1.00  0.00    -0.400 OA
HETATM   23  H   UNL     1      31.599  52.303  36.499  1.00  0.00     0.209 HD
ENDBRANCH  21  22
ENDBRANCH  17  21
ENDBRANCH  10  13
ENDBRANCH   4   7
BRANCH   1  24
HETATM   24  N   UNL     1      39.769  53.500  44.888  1.00  0.00    -0.064 N 
HETATM   25  C   UNL     1      41.231  53.029  44.712  1.00  0.00     0.255 C 
HETATM   26  C   UNL     1      41.896  52.791  46.080  1.00  0.00     0.150 C 
HETATM   27  N   UNL     1      41.829  53.992  46.943  1.00  0.00    -0.375 N 
HETATM   28  C   UNL     1      40.492  54.597  47.068  1.00  0.00     0.150 C 
HETATM   29  C   UNL     1      39.789  54.803  45.706  1.00  0.00     0.255 C 
HETATM   30  H   UNL     1      39.297  52.801  45.476  1.00  0.00     0.280 HD
BRANCH  27  31
HETATM   31  C   UNL     1      42.962  54.821  46.888  1.00  0.00     0.063 A 
HETATM   32  C   UNL     1      43.336  55.563  45.761  1.00  0.00     0.032 A 
HETATM   33  C   UNL     1      44.502  56.344  45.760  1.00  0.00     0.002 A 
HETATM   34  C   UNL     1      45.315  56.406  46.890  1.00  0.00     0.003 A 
HETATM   35  C   UNL     1      44.953  55.708  48.035  1.00  0.00     0.039 A 
HETATM   36  C   UNL     1      43.787  54.951  48.027  1.00  0.00     0.092 A 
BRANCH  36  37
HETATM   37  O   UNL     1      43.404  54.374  49.211  1.00  0.00    -0.358 OA
HETATM   38  H   UNL     1      44.081  53.689  49.373  1.00  0.00     0.218 HD
ENDBRANCH  36  37
ENDBRANCH  27  31
ENDBRANCH   1  24
TORSDOF 7
ENDMDL
MODEL 7
REMARK VINA RESULT:      -8.2     13.560     14.561
REMARK  7 active torsions:
REMARK  status: ('A' for Active; 'I' for Inactive)
REMARK    1  A    between atoms: C_3  and  N_4 
REMARK    2  A    between atoms: N_7  and  C_9 
REMARK    3  A    between atoms: N_12  and  C_13 
REMARK    4  A    between atoms: C_16  and  C_17 
REMARK       I    between atoms: C_17  and  N_18 
REMARK    5  A    between atoms: C_20  and  C_21 
REMARK    6  A    between atoms: C_21  and  O_22 
REMARK    7  A    between atoms: C_33  and  O_34 
ROOT
HETATM    1  C   UNL     1      31.634  48.968  41.957  1.00  0.00     0.191 C 
HETATM    2  C   UNL     1      33.023  48.760  41.329  1.00  0.00     0.053 C 
HETATM    3  C   UNL     1      33.722  50.081  41.017  1.00  0.00     0.125 C 
HETATM    4  N   UNL     1      33.721  50.925  42.206  1.00  0.00    -0.381 N 
HETATM    5  C   UNL     1      32.493  51.142  42.953  1.00  0.00     0.125 C 
HETATM    6  C   UNL     1      31.799  49.815  43.228  1.00  0.00     0.053 C 
ENDROOT
BRANCH   4   7
HETATM    7  C   UNL     1      34.951  51.280  42.744  1.00  0.00     0.030 A 
HETATM    8  C   UNL     1      36.131  50.705  42.247  1.00  0.00     0.030 A 
HETATM    9  C   UNL     1      37.381  51.018  42.790  1.00  0.00     0.019 A 
HETATM   10  C   UNL     1      37.477  51.918  43.853  1.00  0.00     0.032 A 
HETATM   11  C   UNL     1      36.313  52.481  44.380  1.00  0.00     0.019 A 
HETATM   12  C   UNL     1      35.068  52.183  43.811  1.00  0.00     0.030 A 
BRANCH  10  13
HETATM   13  C   UNL     1      38.808  52.141  44.469  1.00  0.00     0.253 C 
HETATM   14  N   UNL     1      39.379  53.419  44.470  1.00  0.00    -0.348 N 
HETATM   15  C   UNL     1      39.158  54.388  43.391  1.00  0.00     0.132 C 
HETATM   16  C   UNL     1      40.666  53.548  45.157  1.00  0.00     0.126 C 
HETATM   17  C   UNL     1      39.344  55.836  43.864  1.00  0.00     0.027 C 
HETATM   18  C   UNL     1      40.708  55.998  44.554  1.00  0.00     0.010 C 
HETATM   19  C   UNL     1      40.912  54.966  45.661  1.00  0.00     0.020 C 
HETATM   20  O   UNL     1      39.345  51.165  44.993  1.00  0.00    -0.267 OA
BRANCH  17  21
HETATM   21  C   UNL     1      38.171  56.265  44.756  1.00  0.00     0.170 C 
BRANCH  21  22
HETATM   22  O   UNL     1      38.423  57.516  45.380  1.00  0.00    -0.400 OA
HETATM   23  H   UNL     1      37.620  57.789  45.855  1.00  0.00     0.209 HD
ENDBRANCH  21  22
ENDBRANCH  17  21
ENDBRANCH  10  13
ENDBRANCH   4   7
BRANCH   1  24
HETATM   24  N   UNL     1      30.651  49.588  40.943  1.00  0.00    -0.064 N 
HETATM   25  C   UNL     1      30.071  48.532  39.974  1.00  0.00     0.255 C 
HETATM   26  C   UNL     1      29.226  49.205  38.875  1.00  0.00     0.150 C 
HETATM   27  N   UNL     1      28.149  50.046  39.444  1.00  0.00    -0.375 N 
HETATM   28  C   UNL     1      28.583  50.999  40.480  1.00  0.00     0.150 C 
HETATM   29  C   UNL     1      29.470  50.351  41.568  1.00  0.00     0.255 C 
HETATM   30  H   UNL     1      31.161  50.272  40.371  1.00  0.00     0.280 HD
BRANCH  27  31
HETATM   31  C   UNL     1      26.906  49.405  39.570  1.00  0.00     0.063 A 
HETATM   32  C   UNL     1      26.631  48.404  40.511  1.00  0.00     0.032 A 
HETATM   33  C   UNL     1      25.377  47.778  40.558  1.00  0.00     0.002 A 
HETATM   34  C   UNL     1      24.366  48.145  39.672  1.00  0.00     0.003 A 
HETATM   35  C   UNL     1      24.597  49.157  38.749  1.00  0.00     0.039 A 
HETATM   36  C   UNL     1      25.840  49.780  38.723  1.00  0.00     0.092 A 
BRANCH  36  37
HETATM   37  O   UNL     1      25.988  50.851  37.880  1.00  0.00    -0.358 OA
HETATM   38  H   UNL     1      25.077  51.174  37.740  1.00  0.00     0.218 HD
ENDBRANCH  36  37
ENDBRANCH  27  31
ENDBRANCH   1  24
TORSDOF 7
ENDMDL
MODEL 8
REMARK VINA RESULT:      -8.1      2.383     11.814
REMARK  7 active torsions:
REMARK  status: ('A' for Active; 'I' for Inactive)
REMARK    1  A    between atoms: C_3  and  N_4 
REMARK    2  A    between atoms: N_7  and  C_9 
REMARK    3  A    between atoms: N_12  and  C_13 
REMARK    4  A    between atoms: C_16  and  C_17 
REMARK       I    between atoms: C_17  and  N_18 
REMARK    5  A    between atoms: C_20  and  C_21 
REMARK    6  A    between atoms: C_21  and  O_22 
REMARK    7  A    between atoms: C_33  and  O_34 
ROOT
HETATM    1  C   UNL     1      26.061  45.219  50.224  1.00  0.00     0.191 C 
HETATM    2  C   UNL     1      25.064  44.196  49.653  1.00  0.00     0.053 C 
HETATM    3  C   UNL     1      23.615  44.559  49.969  1.00  0.00     0.125 C 
HETATM    4  N   UNL     1      23.359  45.936  49.566  1.00  0.00    -0.381 N 
HETATM    5  C   UNL     1      24.268  46.999  49.963  1.00  0.00     0.125 C 
HETATM    6  C   UNL     1      25.707  46.604  49.664  1.00  0.00     0.053 C 
ENDROOT
BRANCH   4   7
HETATM    7  C   UNL     1      22.398  46.153  48.587  1.00  0.00     0.030 A 
HETATM    8  C   UNL     1      21.985  47.459  48.281  1.00  0.00     0.030 A 
HETATM    9  C   UNL     1      20.997  47.707  47.324  1.00  0.00     0.019 A 
HETATM   10  C   UNL     1      20.393  46.645  46.649  1.00  0.00     0.032 A 
HETATM   11  C   UNL     1      20.770  45.336  46.957  1.00  0.00     0.019 A 
HETATM   12  C   UNL     1      21.781  45.098  47.898  1.00  0.00     0.030 A 
BRANCH  10  13
HETATM   13  C   UNL     1      19.276  46.943  45.720  1.00  0.00     0.253 C 
HETATM   14  N   UNL     1      18.040  47.371  46.219  1.00  0.00    -0.348 N 
HETATM   15  C   UNL     1      17.510  46.929  47.514  1.00  0.00     0.132 C 
HETATM   16  C   UNL     1      17.021  47.699  45.219  1.00  0.00     0.126 C 
HETATM   17  C   UNL     1      16.514  47.934  48.107  1.00  0.00     0.027 C 
HETATM   18  C   UNL     1      15.415  48.261  47.082  1.00  0.00     0.010 C 
HETATM   19  C   UNL     1      16.000  48.702  45.742  1.00  0.00     0.020 C 
HETATM   20  O   UNL     1      19.510  46.825  44.518  1.00  0.00    -0.267 OA
BRANCH  17  21
HETATM   21  C   UNL     1      17.248  49.185  48.611  1.00  0.00     0.170 C 
BRANCH  21  22
HETATM   22  O   UNL     1      18.398  48.841  49.371  1.00  0.00    -0.400 OA
HETATM   23  H   UNL     1      18.595  49.574  49.979  1.00  0.00     0.209 HD
ENDBRANCH  21  22
ENDBRANCH  17  21
ENDBRANCH  10  13
ENDBRANCH   4   7
BRANCH   1  24
HETATM   24  N   UNL     1      26.078  45.178  51.766  1.00  0.00    -0.064 N 
HETATM   25  C   UNL     1      26.606  43.829  52.307  1.00  0.00     0.255 C 
HETATM   26  C   UNL     1      26.456  43.760  53.839  1.00  0.00     0.150 C 
HETATM   27  N   UNL     1      27.126  44.896  54.512  1.00  0.00    -0.375 N 
HETATM   28  C   UNL     1      26.787  46.225  53.975  1.00  0.00     0.150 C 
HETATM   29  C   UNL     1      26.888  46.302  52.434  1.00  0.00     0.255 C 
HETATM   30  H   UNL     1      25.114  45.281  52.106  1.00  0.00     0.280 HD
BRANCH  27  31
HETATM   31  C   UNL     1      28.437  44.635  54.942  1.00  0.00     0.063 A 
HETATM   32  C   UNL     1      29.244  43.615  54.424  1.00  0.00     0.032 A 
HETATM   33  C   UNL     1      30.534  43.385  54.925  1.00  0.00     0.002 A 
HETATM   34  C   UNL     1      31.049  44.177  55.949  1.00  0.00     0.003 A 
HETATM   35  C   UNL     1      30.286  45.220  56.461  1.00  0.00     0.039 A 
HETATM   36  C   UNL     1      29.015  45.445  55.944  1.00  0.00     0.092 A 
BRANCH  36  37
HETATM   37  O   UNL     1      28.343  46.553  56.392  1.00  0.00    -0.358 OA
HETATM   38  H   UNL     1      28.384  46.482  57.365  1.00  0.00     0.218 HD
ENDBRANCH  36  37
ENDBRANCH  27  31
ENDBRANCH   1  24
TORSDOF 7
ENDMDL
MODEL 9
REMARK VINA RESULT:      -7.9     18.982     22.494
REMARK  7 active torsions:
REMARK  status: ('A' for Active; 'I' for Inactive)
REMARK    1  A    between atoms: C_3  and  N_4 
REMARK    2  A    between atoms: N_7  and  C_9 
REMARK    3  A    between atoms: N_12  and  C_13 
REMARK    4  A    between atoms: C_16  and  C_17 
REMARK       I    between atoms: C_17  and  N_18 
REMARK    5  A    between atoms: C_20  and  C_21 
REMARK    6  A    between atoms: C_21  and  O_22 
REMARK    7  A    between atoms: C_33  and  O_34 
ROOT
HETATM    1  C   UNL     1      39.284  48.981  66.715  1.00  0.00     0.191 C 
HETATM    2  C   UNL     1      39.125  50.136  65.710  1.00  0.00     0.053 C 
HETATM    3  C   UNL     1      37.770  50.828  65.833  1.00  0.00     0.125 C 
HETATM    4  N   UNL     1      37.540  51.205  67.223  1.00  0.00    -0.381 N 
HETATM    5  C   UNL     1      37.736  50.237  68.289  1.00  0.00     0.125 C 
HETATM    6  C   UNL     1      39.080  49.539  68.131  1.00  0.00     0.053 C 
ENDROOT
BRANCH   4   7
HETATM    7  C   UNL     1      37.400  52.557  67.509  1.00  0.00     0.030 A 
HETATM    8  C   UNL     1      36.812  52.965  68.716  1.00  0.00     0.030 A 
HETATM    9  C   UNL     1      36.629  54.317  69.018  1.00  0.00     0.019 A 
HETATM   10  C   UNL     1      37.029  55.298  68.110  1.00  0.00     0.032 A 
HETATM   11  C   UNL     1      37.592  54.914  66.891  1.00  0.00     0.019 A 
HETATM   12  C   UNL     1      37.797  53.557  66.609  1.00  0.00     0.030 A 
BRANCH  10  13
HETATM   13  C   UNL     1      36.719  56.716  68.421  1.00  0.00     0.253 C 
HETATM   14  N   UNL     1      35.517  57.286  67.985  1.00  0.00    -0.348 N 
HETATM   15  C   UNL     1      34.859  56.893  66.734  1.00  0.00     0.132 C 
HETATM   16  C   UNL     1      35.278  58.672  68.395  1.00  0.00     0.126 C 
HETATM   17  C   UNL     1      33.349  57.165  66.763  1.00  0.00     0.027 C 
HETATM   18  C   UNL     1      33.081  58.627  67.155  1.00  0.00     0.010 C 
HETATM   19  C   UNL     1      33.792  59.008  68.451  1.00  0.00     0.020 C 
HETATM   20  O   UNL     1      37.548  57.328  69.094  1.00  0.00    -0.267 OA
BRANCH  17  21
HETATM   21  C   UNL     1      32.639  56.162  67.683  1.00  0.00     0.170 C 
BRANCH  21  22
HETATM   22  O   UNL     1      31.663  55.409  66.976  1.00  0.00    -0.400 OA
HETATM   23  H   UNL     1      31.934  55.355  66.044  1.00  0.00     0.209 HD
ENDBRANCH  21  22
ENDBRANCH  17  21
ENDBRANCH  10  13
ENDBRANCH   4   7
BRANCH   1  24
HETATM   24  N   UNL     1      38.329  47.817  66.381  1.00  0.00    -0.064 N 
HETATM   25  C   UNL     1      38.144  47.634  64.857  1.00  0.00     0.255 C 
HETATM   26  C   UNL     1      37.062  46.577  64.562  1.00  0.00     0.150 C 
HETATM   27  N   UNL     1      37.360  45.283  65.216  1.00  0.00    -0.375 N 
HETATM   28  C   UNL     1      37.682  45.370  66.650  1.00  0.00     0.150 C 
HETATM   29  C   UNL     1      38.734  46.456  66.973  1.00  0.00     0.255 C 
HETATM   30  H   UNL     1      37.403  48.033  66.772  1.00  0.00     0.280 HD
BRANCH  27  31
HETATM   31  C   UNL     1      38.040  44.358  64.407  1.00  0.00     0.063 A 
HETATM   32  C   UNL     1      39.367  44.511  63.986  1.00  0.00     0.032 A 
HETATM   33  C   UNL     1      39.976  43.565  63.148  1.00  0.00     0.002 A 
HETATM   34  C   UNL     1      39.273  42.441  62.719  1.00  0.00     0.003 A 
HETATM   35  C   UNL     1      37.966  42.243  63.147  1.00  0.00     0.039 A 
HETATM   36  C   UNL     1      37.381  43.181  63.990  1.00  0.00     0.092 A 
BRANCH  36  37
HETATM   37  O   UNL     1      36.135  42.890  64.483  1.00  0.00    -0.358 OA
HETATM   38  H   UNL     1      35.924  43.646  65.064  1.00  0.00     0.218 HD
ENDBRANCH  36  37
ENDBRANCH  27  31
ENDBRANCH   1  24
TORSDOF 7
ENDMDL
MODEL 10
REMARK VINA RESULT:      -7.8      4.117      6.575
REMARK  7 active torsions:
REMARK  status: ('A' for Active; 'I' for Inactive)
REMARK    1  A    between atoms: C_3  and  N_4 
REMARK    2  A    between atoms: N_7  and  C_9 
REMARK    3  A    between atoms: N_12  and  C_13 
REMARK    4  A    between atoms: C_16  and  C_17 
REMARK       I    between atoms: C_17  and  N_18 
REMARK    5  A    between atoms: C_20  and  C_21 
REMARK    6  A    between atoms: C_21  and  O_22 
REMARK    7  A    between atoms: C_33  and  O_34 
ROOT
HETATM    1  C   UNL     1      17.593  48.257  49.367  1.00  0.00     0.191 C 
HETATM    2  C   UNL     1      17.550  47.074  48.384  1.00  0.00     0.053 C 
HETATM    3  C   UNL     1      18.711  47.100  47.394  1.00  0.00     0.125 C 
HETATM    4  N   UNL     1      19.968  47.230  48.121  1.00  0.00    -0.381 N 
HETATM    5  C   UNL     1      20.123  48.252  49.144  1.00  0.00     0.125 C 
HETATM    6  C   UNL     1      18.941  48.226  50.102  1.00  0.00     0.053 C 
ENDROOT
BRANCH   4   7
HETATM    7  C   UNL     1      20.890  46.199  48.004  1.00  0.00     0.030 A 
HETATM    8  C   UNL     1      20.849  45.111  48.891  1.00  0.00     0.030 A 
HETATM    9  C   UNL     1      21.783  44.074  48.818  1.00  0.00     0.019 A 
HETATM   10  C   UNL     1      22.789  44.104  47.851  1.00  0.00     0.032 A 
HETATM   11  C   UNL     1      22.864  45.190  46.975  1.00  0.00     0.019 A 
HETATM   12  C   UNL     1      21.907  46.211  47.038  1.00  0.00     0.030 A 
BRANCH  10  13
HETATM   13  C   UNL     1      23.823  43.040  47.875  1.00  0.00     0.253 C 
HETATM   14  N   UNL     1      24.862  43.089  48.812  1.00  0.00    -0.348 N 
HETATM   15  C   UNL     1      25.429  44.349  49.304  1.00  0.00     0.132 C 
HETATM   16  C   UNL     1      25.796  41.961  48.795  1.00  0.00     0.126 C 
HETATM   17  C   UNL     1      26.071  44.195  50.689  1.00  0.00     0.027 C 
HETATM   18  C   UNL     1      27.084  43.038  50.678  1.00  0.00     0.010 C 
HETATM   19  C   UNL     1      26.467  41.747  50.146  1.00  0.00     0.020 C 
HETATM   20  O   UNL     1      23.691  42.123  47.065  1.00  0.00    -0.267 OA
BRANCH  17  21
HETATM   21  C   UNL     1      24.991  44.030  51.767  1.00  0.00     0.170 C 
BRANCH  21  22
HETATM   22  O   UNL     1      23.790  44.696  51.404  1.00  0.00    -0.400 OA
HETATM   23  H   UNL     1      23.995  45.632  51.240  1.00  0.00     0.209 HD
ENDBRANCH  21  22
ENDBRANCH  17  21
ENDBRANCH  10  13
ENDBRANCH   4   7
BRANCH   1  24
HETATM   24  N   UNL     1      17.331  49.594  48.643  1.00  0.00    -0.064 N 
HETATM   25  C   UNL     1      15.857  49.735  48.197  1.00  0.00     0.255 C 
HETATM   26  C   UNL     1      15.667  50.998  47.336  1.00  0.00     0.150 C 
HETATM   27  N   UNL     1      16.125  52.219  48.037  1.00  0.00    -0.375 N 
HETATM   28  C   UNL     1      17.476  52.135  48.617  1.00  0.00     0.150 C 
HETATM   29  C   UNL     1      17.701  50.850  49.448  1.00  0.00     0.255 C 
HETATM   30  H   UNL     1      17.906  49.621  47.791  1.00  0.00     0.280 HD
BRANCH  27  31
HETATM   31  C   UNL     1      15.117  52.915  48.724  1.00  0.00     0.063 A 
HETATM   32  C   UNL     1      14.806  52.714  50.075  1.00  0.00     0.032 A 
HETATM   33  C   UNL     1      13.762  53.419  50.691  1.00  0.00     0.002 A 
HETATM   34  C   UNL     1      13.011  54.347  49.973  1.00  0.00     0.003 A 
HETATM   35  C   UNL     1      13.316  54.594  48.640  1.00  0.00     0.039 A 
HETATM   36  C   UNL     1      14.364  53.899  48.047  1.00  0.00     0.092 A 
BRANCH  36  37
HETATM   37  O   UNL     1      14.709  54.256  46.768  1.00  0.00    -0.358 OA
HETATM   38  H   UNL     1      15.680  54.353  46.799  1.00  0.00     0.218 HD
ENDBRANCH  36  37
ENDBRANCH  27  31
ENDBRANCH   1  24
TORSDOF 7
ENDMDL
