MODEL 1
REMARK VINA RESULT:      -7.7      0.000      0.000
REMARK  4 active torsions:
REMARK  status: ('A' for Active; 'I' for Inactive)
REMARK    1  A    between atoms: S_2  and  N_3 
REMARK    2  A    between atoms: N_3  and  N_4 
REMARK    3  A    between atoms: C_10  and  C_11 
REMARK    4  A    between atoms: C_12  and  O_13 
ROOT
HETATM    1  N   UNL     1      31.804  49.858  40.786  1.00  0.00    -0.241 N 
HETATM    2  C   UNL     1      30.952  48.979  41.431  1.00  0.00     0.272 C 
HETATM    3  O   UNL     1      31.106  48.664  42.610  1.00  0.00    -0.266 OA
HETATM    4  C   UNL     1      29.947  48.317  40.584  1.00  0.00     0.054 A 
HETATM    5  C   UNL     1      30.136  48.371  39.197  1.00  0.00     0.026 A 
HETATM    6  N   UNL     1      31.199  49.109  38.610  1.00  0.00    -0.265 NA
HETATM    7  C   UNL     1      31.583  50.303  39.406  1.00  0.00     0.219 C 
HETATM    8  C   UNL     1      28.944  47.527  41.151  1.00  0.00     0.019 A 
HETATM    9  C   UNL     1      28.122  46.766  40.322  1.00  0.00     0.001 A 
HETATM   10  C   UNL     1      28.327  46.775  38.941  1.00  0.00     0.002 A 
HETATM   11  C   UNL     1      29.341  47.560  38.384  1.00  0.00     0.024 A 
HETATM   12  H   UNL     1      32.019  48.496  38.586  1.00  0.00     0.130 HD
ENDROOT
BRANCH   7  13
HETATM   13  C   UNL     1      30.556  51.430  39.255  1.00  0.00     0.014 A 
HETATM   14  C   UNL     1      30.159  51.943  38.007  1.00  0.00     0.075 A 
HETATM   15  C   UNL     1      29.268  53.012  37.898  1.00  0.00     0.037 A 
HETATM   16  C   UNL     1      28.766  53.622  39.042  1.00  0.00     0.003 A 
HETATM   17  C   UNL     1      29.163  53.163  40.292  1.00  0.00     0.001 A 
HETATM   18  C   UNL     1      30.049  52.085  40.396  1.00  0.00     0.013 A 
BRANCH  14  19
HETATM   19  O   UNL     1      30.616  51.440  36.819  1.00  0.00    -0.360 OA
HETATM   20  H   UNL     1      30.470  50.471  36.839  1.00  0.00     0.217 HD
ENDBRANCH  14  19
ENDBRANCH   7  13
BRANCH   1  21
HETATM   21  N   UNL     1      33.215  49.782  41.260  1.00  0.00    -0.123 NA
HETATM   22  H   UNL     1      33.409  48.907  41.770  1.00  0.00     0.165 HD
BRANCH  21  23
HETATM   23  S   UNL     1      33.901  51.104  42.070  1.00  0.00     0.222 S 
HETATM   24  C   UNL     1      35.595  50.571  42.215  1.00  0.00     0.181 C 
HETATM   25  O   UNL     1      33.323  51.189  43.392  1.00  0.00    -0.210 OA
HETATM   26  O   UNL     1      33.861  52.219  41.151  1.00  0.00    -0.210 OA
ENDBRANCH  21  23
ENDBRANCH   1  21
TORSDOF 4
ENDMDL
MODEL 2
REMARK VINA RESULT:      -7.5      1.553      4.537
REMARK  4 active torsions:
REMARK  status: ('A' for Active; 'I' for Inactive)
REMARK    1  A    between atoms: S_2  and  N_3 
REMARK    2  A    between atoms: N_3  and  N_4 
REMARK    3  A    between atoms: C_10  and  C_11 
REMARK    4  A    between atoms: C_12  and  O_13 
ROOT
HETATM    1  N   UNL     1      31.675  49.805  41.008  1.00  0.00    -0.241 N 
HETATM    2  C   UNL     1      31.843  50.524  39.838  1.00  0.00     0.272 C 
HETATM    3  O   UNL     1      32.955  50.756  39.366  1.00  0.00    -0.266 OA
HETATM    4  C   UNL     1      30.627  51.135  39.276  1.00  0.00     0.054 A 
HETATM    5  C   UNL     1      29.504  51.218  40.110  1.00  0.00     0.026 A 
HETATM    6  N   UNL     1      29.490  50.658  41.416  1.00  0.00    -0.265 NA
HETATM    7  C   UNL     1      30.352  49.454  41.537  1.00  0.00     0.219 C 
HETATM    8  C   UNL     1      30.651  51.755  38.025  1.00  0.00     0.019 A 
HETATM    9  C   UNL     1      29.541  52.483  37.600  1.00  0.00     0.001 A 
HETATM   10  C   UNL     1      28.432  52.612  38.438  1.00  0.00     0.002 A 
HETATM   11  C   UNL     1      28.421  51.997  39.694  1.00  0.00     0.024 A 
HETATM   12  H   UNL     1      29.877  51.361  42.053  1.00  0.00     0.130 HD
ENDROOT
BRANCH   7  13
HETATM   13  C   UNL     1      29.704  48.233  40.876  1.00  0.00     0.014 A 
HETATM   14  C   UNL     1      28.364  47.865  41.093  1.00  0.00     0.075 A 
HETATM   15  C   UNL     1      27.814  46.714  40.529  1.00  0.00     0.037 A 
HETATM   16  C   UNL     1      28.601  45.875  39.747  1.00  0.00     0.003 A 
HETATM   17  C   UNL     1      29.938  46.189  39.539  1.00  0.00     0.001 A 
HETATM   18  C   UNL     1      30.482  47.350  40.099  1.00  0.00     0.013 A 
BRANCH  14  19
HETATM   19  O   UNL     1      27.510  48.600  41.871  1.00  0.00    -0.360 OA
HETATM   20  H   UNL     1      27.947  49.457  42.051  1.00  0.00     0.217 HD
ENDBRANCH  14  19
ENDBRANCH   7  13
BRANCH   1  21
HETATM   21  N   UNL     1      32.773  50.003  41.996  1.00  0.00    -0.123 NA
HETATM   22  H   UNL     1      32.975  49.147  42.532  1.00  0.00     0.165 HD
BRANCH  21  23
HETATM   23  S   UNL     1      32.744  51.352  43.024  1.00  0.00     0.222 S 
HETATM   24  C   UNL     1      34.487  51.670  43.215  1.00  0.00     0.181 C 
HETATM   25  O   UNL     1      32.200  50.950  44.301  1.00  0.00    -0.210 OA
HETATM   26  O   UNL     1      32.173  52.440  42.263  1.00  0.00    -0.210 OA
ENDBRANCH  21  23
ENDBRANCH   1  21
TORSDOF 4
ENDMDL
MODEL 3
REMARK VINA RESULT:      -7.4     12.350     14.663
REMARK  4 active torsions:
REMARK  status: ('A' for Active; 'I' for Inactive)
REMARK    1  A    between atoms: S_2  and  N_3 
REMARK    2  A    between atoms: N_3  and  N_4 
REMARK    3  A    between atoms: C_10  and  C_11 
REMARK    4  A    between atoms: C_12  and  O_13 
ROOT
HETATM    1  N   UNL     1      26.595  42.491  51.223  1.00  0.00    -0.241 N 
HETATM    2  C   UNL     1      27.925  42.181  51.446  1.00  0.00     0.272 C 
HETATM    3  O   UNL     1      28.521  41.336  50.779  1.00  0.00    -0.266 OA
HETATM    4  C   UNL     1      28.542  42.800  52.631  1.00  0.00     0.054 A 
HETATM    5  C   UNL     1      27.683  43.363  53.584  1.00  0.00     0.026 A 
HETATM    6  N   UNL     1      26.277  43.426  53.388  1.00  0.00    -0.265 NA
HETATM    7  C   UNL     1      25.898  43.552  51.958  1.00  0.00     0.219 C 
HETATM    8  C   UNL     1      29.912  42.676  52.870  1.00  0.00     0.019 A 
HETATM    9  C   UNL     1      30.437  43.110  54.086  1.00  0.00     0.001 A 
HETATM   10  C   UNL     1      29.587  43.632  55.063  1.00  0.00     0.002 A 
HETATM   11  C   UNL     1      28.215  43.741  54.819  1.00  0.00     0.024 A 
HETATM   12  H   UNL     1      25.883  42.541  53.720  1.00  0.00     0.130 HD
ENDROOT
BRANCH   7  13
HETATM   13  C   UNL     1      26.156  44.968  51.433  1.00  0.00     0.014 A 
HETATM   14  C   UNL     1      25.869  46.126  52.178  1.00  0.00     0.075 A 
HETATM   15  C   UNL     1      26.056  47.406  51.655  1.00  0.00     0.037 A 
HETATM   16  C   UNL     1      26.511  47.567  50.350  1.00  0.00     0.003 A 
HETATM   17  C   UNL     1      26.772  46.446  49.573  1.00  0.00     0.001 A 
HETATM   18  C   UNL     1      26.593  45.164  50.107  1.00  0.00     0.013 A 
BRANCH  14  19
HETATM   19  O   UNL     1      25.386  46.083  53.458  1.00  0.00    -0.360 OA
HETATM   20  H   UNL     1      25.494  45.164  53.778  1.00  0.00     0.217 HD
ENDBRANCH  14  19
ENDBRANCH   7  13
BRANCH   1  21
HETATM   21  N   UNL     1      25.779  41.334  50.759  1.00  0.00    -0.123 NA
HETATM   22  H   UNL     1      26.078  40.447  51.192  1.00  0.00     0.165 HD
BRANCH  21  23
HETATM   23  S   UNL     1      25.496  41.117  49.101  1.00  0.00     0.222 S 
HETATM   24  C   UNL     1      26.143  39.475  48.858  1.00  0.00     0.181 C 
HETATM   25  O   UNL     1      26.312  42.055  48.365  1.00  0.00    -0.210 OA
HETATM   26  O   UNL     1      24.061  41.062  48.930  1.00  0.00    -0.210 OA
ENDBRANCH  21  23
ENDBRANCH   1  21
TORSDOF 4
ENDMDL
MODEL 4
REMARK VINA RESULT:      -7.4      3.831      5.662
REMARK  4 active torsions:
REMARK  status: ('A' for Active; 'I' for Inactive)
REMARK    1  A    between atoms: S_2  and  N_3 
REMARK    2  A    between atoms: N_3  and  N_4 
REMARK    3  A    between atoms: C_10  and  C_11 
REMARK    4  A    between atoms: C_12  and  O_13 
ROOT
HETATM    1  N   UNL     1      27.504  48.786  40.334  1.00  0.00    -0.241 N 
HETATM    2  C   UNL     1      28.522  47.939  39.933  1.00  0.00     0.272 C 
HETATM    3  O   UNL     1      28.318  46.970  39.202  1.00  0.00    -0.266 OA
HETATM    4  C   UNL     1      29.834  48.166  40.559  1.00  0.00     0.054 A 
HETATM    5  C   UNL     1      29.870  48.969  41.706  1.00  0.00     0.026 A 
HETATM    6  N   UNL     1      28.711  49.622  42.207  1.00  0.00    -0.265 NA
HETATM    7  C   UNL     1      27.748  49.989  41.137  1.00  0.00     0.219 C 
HETATM    8  C   UNL     1      30.964  47.471  40.123  1.00  0.00     0.019 A 
HETATM    9  C   UNL     1      32.149  47.566  40.850  1.00  0.00     0.001 A 
HETATM   10  C   UNL     1      32.188  48.326  42.020  1.00  0.00     0.002 A 
HETATM   11  C   UNL     1      31.049  49.010  42.455  1.00  0.00     0.024 A 
HETATM   12  H   UNL     1      28.229  48.959  42.821  1.00  0.00     0.130 HD
ENDROOT
BRANCH   7  13
HETATM   13  C   UNL     1      28.234  51.203  40.338  1.00  0.00     0.014 A 
HETATM   14  C   UNL     1      28.783  52.348  40.943  1.00  0.00     0.075 A 
HETATM   15  C   UNL     1      29.161  53.466  40.198  1.00  0.00     0.037 A 
HETATM   16  C   UNL     1      28.975  53.482  38.820  1.00  0.00     0.003 A 
HETATM   17  C   UNL     1      28.405  52.381  38.193  1.00  0.00     0.001 A 
HETATM   18  C   UNL     1      28.037  51.259  38.944  1.00  0.00     0.013 A 
BRANCH  14  19
HETATM   19  O   UNL     1      28.979  52.452  42.294  1.00  0.00    -0.360 OA
HETATM   20  H   UNL     1      29.467  53.286  42.452  1.00  0.00     0.217 HD
ENDBRANCH  14  19
ENDBRANCH   7  13
BRANCH   1  21
HETATM   21  N   UNL     1      26.190  48.104  40.509  1.00  0.00    -0.123 NA
HETATM   22  H   UNL     1      26.297  47.103  40.730  1.00  0.00     0.165 HD
BRANCH  21  23
HETATM   23  S   UNL     1      24.967  48.330  39.357  1.00  0.00     0.222 S 
HETATM   24  C   UNL     1      23.532  47.821  40.282  1.00  0.00     0.181 C 
HETATM   25  O   UNL     1      25.176  47.400  38.270  1.00  0.00    -0.210 OA
HETATM   26  O   UNL     1      24.870  49.754  39.129  1.00  0.00    -0.210 OA
ENDBRANCH  21  23
ENDBRANCH   1  21
TORSDOF 4
ENDMDL
MODEL 5
REMARK VINA RESULT:      -7.3      2.781      5.248
REMARK  4 active torsions:
REMARK  status: ('A' for Active; 'I' for Inactive)
REMARK    1  A    between atoms: S_2  and  N_3 
REMARK    2  A    between atoms: N_3  and  N_4 
REMARK    3  A    between atoms: C_10  and  C_11 
REMARK    4  A    between atoms: C_12  and  O_13 
ROOT
HETATM    1  N   UNL     1      29.541  49.256  41.493  1.00  0.00    -0.241 N 
HETATM    2  C   UNL     1      28.662  50.276  41.171  1.00  0.00     0.272 C 
HETATM    3  O   UNL     1      27.530  50.338  41.647  1.00  0.00    -0.266 OA
HETATM    4  C   UNL     1      29.099  51.191  40.105  1.00  0.00     0.054 A 
HETATM    5  C   UNL     1      30.173  50.781  39.305  1.00  0.00     0.026 A 
HETATM    6  N   UNL     1      30.884  49.577  39.555  1.00  0.00    -0.265 NA
HETATM    7  C   UNL     1      30.920  49.216  40.996  1.00  0.00     0.219 C 
HETATM    8  C   UNL     1      28.363  52.338  39.802  1.00  0.00     0.019 A 
HETATM    9  C   UNL     1      28.693  53.085  38.673  1.00  0.00     0.001 A 
HETATM   10  C   UNL     1      29.732  52.665  37.840  1.00  0.00     0.002 A 
HETATM   11  C   UNL     1      30.457  51.509  38.146  1.00  0.00     0.024 A 
HETATM   12  H   UNL     1      30.384  48.822  39.076  1.00  0.00     0.130 HD
ENDROOT
BRANCH   7  13
HETATM   13  C   UNL     1      31.905  50.099  41.770  1.00  0.00     0.014 A 
HETATM   14  C   UNL     1      33.165  50.467  41.264  1.00  0.00     0.075 A 
HETATM   15  C   UNL     1      34.068  51.222  42.014  1.00  0.00     0.037 A 
HETATM   16  C   UNL     1      33.748  51.609  43.310  1.00  0.00     0.003 A 
HETATM   17  C   UNL     1      32.526  51.234  43.854  1.00  0.00     0.001 A 
HETATM   18  C   UNL     1      31.619  50.487  43.094  1.00  0.00     0.013 A 
BRANCH  14  19
HETATM   19  O   UNL     1      33.595  50.112  40.014  1.00  0.00    -0.360 OA
HETATM   20  H   UNL     1      34.457  49.659  40.123  1.00  0.00     0.217 HD
ENDBRANCH  14  19
ENDBRANCH   7  13
BRANCH   1  21
HETATM   21  N   UNL     1      28.873  47.950  41.757  1.00  0.00    -0.123 NA
HETATM   22  H   UNL     1      29.385  47.383  42.448  1.00  0.00     0.165 HD
BRANCH  21  23
HETATM   23  S   UNL     1      28.370  46.987  40.456  1.00  0.00     0.222 S 
HETATM   24  C   UNL     1      26.894  46.250  41.130  1.00  0.00     0.181 C 
HETATM   25  O   UNL     1      29.352  45.949  40.240  1.00  0.00    -0.210 OA
HETATM   26  O   UNL     1      27.975  47.891  39.399  1.00  0.00    -0.210 OA
ENDBRANCH  21  23
ENDBRANCH   1  21
TORSDOF 4
ENDMDL
MODEL 6
REMARK VINA RESULT:      -7.1     12.050     14.552
REMARK  4 active torsions:
REMARK  status: ('A' for Active; 'I' for Inactive)
REMARK    1  A    between atoms: S_2  and  N_3 
REMARK    2  A    between atoms: N_3  and  N_4 
REMARK    3  A    between atoms: C_10  and  C_11 
REMARK    4  A    between atoms: C_12  and  O_13 
ROOT
HETATM    1  N   UNL     1      26.119  42.848  51.448  1.00  0.00    -0.241 N 
HETATM    2  C   UNL     1      25.092  43.768  51.331  1.00  0.00     0.272 C 
HETATM    3  O   UNL     1      23.911  43.448  51.446  1.00  0.00    -0.266 OA
HETATM    4  C   UNL     1      25.484  45.120  50.901  1.00  0.00     0.054 A 
HETATM    5  C   UNL     1      26.761  45.275  50.346  1.00  0.00     0.026 A 
HETATM    6  N   UNL     1      27.690  44.201  50.278  1.00  0.00    -0.265 NA
HETATM    7  C   UNL     1      27.534  43.232  51.393  1.00  0.00     0.219 C 
HETATM    8  C   UNL     1      24.556  46.164  50.892  1.00  0.00     0.019 A 
HETATM    9  C   UNL     1      24.902  47.381  50.308  1.00  0.00     0.001 A 
HETATM   10  C   UNL     1      26.154  47.537  49.712  1.00  0.00     0.002 A 
HETATM   11  C   UNL     1      27.073  46.482  49.716  1.00  0.00     0.024 A 
HETATM   12  H   UNL     1      27.498  43.687  49.414  1.00  0.00     0.130 HD
ENDROOT
BRANCH   7  13
HETATM   13  C   UNL     1      28.095  43.793  52.705  1.00  0.00     0.014 A 
HETATM   14  C   UNL     1      29.321  43.376  53.254  1.00  0.00     0.075 A 
HETATM   15  C   UNL     1      29.781  43.857  54.481  1.00  0.00     0.037 A 
HETATM   16  C   UNL     1      29.009  44.753  55.213  1.00  0.00     0.003 A 
HETATM   17  C   UNL     1      27.777  45.160  54.717  1.00  0.00     0.001 A 
HETATM   18  C   UNL     1      27.325  44.683  53.481  1.00  0.00     0.013 A 
BRANCH  14  19
HETATM   19  O   UNL     1      30.143  42.474  52.635  1.00  0.00    -0.360 OA
HETATM   20  H   UNL     1      30.112  42.666  51.675  1.00  0.00     0.217 HD
ENDBRANCH  14  19
ENDBRANCH   7  13
BRANCH   1  21
HETATM   21  N   UNL     1      25.763  41.486  50.957  1.00  0.00    -0.123 NA
HETATM   22  H   UNL     1      26.296  40.747  51.437  1.00  0.00     0.165 HD
BRANCH  21  23
HETATM   23  S   UNL     1      25.701  41.185  49.290  1.00  0.00     0.222 S 
HETATM   24  C   UNL     1      26.394  39.545  49.216  1.00  0.00     0.181 C 
HETATM   25  O   UNL     1      26.595  42.101  48.619  1.00  0.00    -0.210 OA
HETATM   26  O   UNL     1      24.302  41.094  48.937  1.00  0.00    -0.210 OA
ENDBRANCH  21  23
ENDBRANCH   1  21
TORSDOF 4
ENDMDL
MODEL 7
REMARK VINA RESULT:      -7.0     11.313     13.425
REMARK  4 active torsions:
REMARK  status: ('A' for Active; 'I' for Inactive)
REMARK    1  A    between atoms: S_2  and  N_3 
REMARK    2  A    between atoms: N_3  and  N_4 
REMARK    3  A    between atoms: C_10  and  C_11 
REMARK    4  A    between atoms: C_12  and  O_13 
ROOT
HETATM    1  N   UNL     1      25.948  44.573  49.845  1.00  0.00    -0.241 N 
HETATM    2  C   UNL     1      26.891  44.208  50.790  1.00  0.00     0.272 C 
HETATM    3  O   UNL     1      27.658  43.262  50.618  1.00  0.00    -0.266 OA
HETATM    4  C   UNL     1      26.818  44.914  52.080  1.00  0.00     0.054 A 
HETATM    5  C   UNL     1      25.646  45.629  52.358  1.00  0.00     0.026 A 
HETATM    6  N   UNL     1      24.597  45.756  51.407  1.00  0.00    -0.265 NA
HETATM    7  C   UNL     1      25.085  45.748  50.004  1.00  0.00     0.219 C 
HETATM    8  C   UNL     1      27.807  44.734  53.049  1.00  0.00     0.019 A 
HETATM    9  C   UNL     1      27.620  45.265  54.324  1.00  0.00     0.001 A 
HETATM   10  C   UNL     1      26.437  45.941  54.630  1.00  0.00     0.002 A 
HETATM   11  C   UNL     1      25.448  46.106  53.655  1.00  0.00     0.024 A 
HETATM   12  H   UNL     1      23.990  44.938  51.511  1.00  0.00     0.130 HD
ENDROOT
BRANCH   7  13
HETATM   13  C   UNL     1      25.745  47.081  49.634  1.00  0.00     0.014 A 
HETATM   14  C   UNL     1      25.012  48.253  49.375  1.00  0.00     0.075 A 
HETATM   15  C   UNL     1      25.633  49.439  48.980  1.00  0.00     0.037 A 
HETATM   16  C   UNL     1      27.012  49.480  48.802  1.00  0.00     0.003 A 
HETATM   17  C   UNL     1      27.763  48.331  49.016  1.00  0.00     0.001 A 
HETATM   18  C   UNL     1      27.137  47.148  49.422  1.00  0.00     0.013 A 
BRANCH  14  19
HETATM   19  O   UNL     1      23.650  48.316  49.487  1.00  0.00    -0.360 OA
HETATM   20  H   UNL     1      23.403  49.264  49.488  1.00  0.00     0.217 HD
ENDBRANCH  14  19
ENDBRANCH   7  13
BRANCH   1  21
HETATM   21  N   UNL     1      25.400  43.424  49.071  1.00  0.00    -0.123 NA
HETATM   22  H   UNL     1      24.940  43.725  48.199  1.00  0.00     0.165 HD
BRANCH  21  23
HETATM   23  S   UNL     1      24.464  42.251  49.860  1.00  0.00     0.222 S 
HETATM   24  C   UNL     1      23.237  41.903  48.616  1.00  0.00     0.181 C 
HETATM   25  O   UNL     1      23.815  42.863  50.997  1.00  0.00    -0.210 OA
HETATM   26  O   UNL     1      25.300  41.080  50.002  1.00  0.00    -0.210 OA
ENDBRANCH  21  23
ENDBRANCH   1  21
TORSDOF 4
ENDMDL
MODEL 8
REMARK VINA RESULT:      -6.9     11.279     13.781
REMARK  4 active torsions:
REMARK  status: ('A' for Active; 'I' for Inactive)
REMARK    1  A    between atoms: S_2  and  N_3 
REMARK    2  A    between atoms: N_3  and  N_4 
REMARK    3  A    between atoms: C_10  and  C_11 
REMARK    4  A    between atoms: C_12  and  O_13 
ROOT
HETATM    1  N   UNL     1      24.580  45.577  49.631  1.00  0.00    -0.241 N 
HETATM    2  C   UNL     1      24.195  46.841  49.222  1.00  0.00     0.272 C 
HETATM    3  O   UNL     1      23.081  47.066  48.751  1.00  0.00    -0.266 OA
HETATM    4  C   UNL     1      25.248  47.870  49.229  1.00  0.00     0.054 A 
HETATM    5  C   UNL     1      26.575  47.432  49.327  1.00  0.00     0.026 A 
HETATM    6  N   UNL     1      26.907  46.062  49.506  1.00  0.00    -0.265 NA
HETATM    7  C   UNL     1      25.875  45.313  50.268  1.00  0.00     0.219 C 
HETATM    8  C   UNL     1      24.941  49.209  48.979  1.00  0.00     0.019 A 
HETATM    9  C   UNL     1      25.974  50.128  48.809  1.00  0.00     0.001 A 
HETATM   10  C   UNL     1      27.302  49.699  48.859  1.00  0.00     0.002 A 
HETATM   11  C   UNL     1      27.600  48.354  49.099  1.00  0.00     0.024 A 
HETATM   12  H   UNL     1      26.952  45.635  48.576  1.00  0.00     0.130 HD
ENDROOT
BRANCH   7  13
HETATM   13  C   UNL     1      25.932  45.646  51.763  1.00  0.00     0.014 A 
HETATM   14  C   UNL     1      25.489  44.761  52.762  1.00  0.00     0.075 A 
HETATM   15  C   UNL     1      25.494  45.112  54.113  1.00  0.00     0.037 A 
HETATM   16  C   UNL     1      25.919  46.377  54.504  1.00  0.00     0.003 A 
HETATM   17  C   UNL     1      26.331  47.289  53.541  1.00  0.00     0.001 A 
HETATM   18  C   UNL     1      26.334  46.928  52.188  1.00  0.00     0.013 A 
BRANCH  14  19
HETATM   19  O   UNL     1      25.020  43.505  52.487  1.00  0.00    -0.360 OA
HETATM   20  H   UNL     1      25.176  42.957  53.284  1.00  0.00     0.217 HD
ENDBRANCH  14  19
ENDBRANCH   7  13
BRANCH   1  21
HETATM   21  N   UNL     1      23.980  44.477  48.825  1.00  0.00    -0.123 NA
HETATM   22  H   UNL     1      23.805  44.759  47.849  1.00  0.00     0.165 HD
BRANCH  21  23
HETATM   23  S   UNL     1      22.657  43.612  49.437  1.00  0.00     0.222 S 
HETATM   24  C   UNL     1      23.070  41.955  48.929  1.00  0.00     0.181 C 
HETATM   25  O   UNL     1      21.464  44.031  48.737  1.00  0.00    -0.210 OA
HETATM   26  O   UNL     1      22.752  43.674  50.878  1.00  0.00    -0.210 OA
ENDBRANCH  21  23
ENDBRANCH   1  21
TORSDOF 4
ENDMDL
MODEL 9
REMARK VINA RESULT:      -6.9     25.153     26.939
REMARK  4 active torsions:
REMARK  status: ('A' for Active; 'I' for Inactive)
REMARK    1  A    between atoms: S_2  and  N_3 
REMARK    2  A    between atoms: N_3  and  N_4 
REMARK    3  A    between atoms: C_10  and  C_11 
REMARK    4  A    between atoms: C_12  and  O_13 
ROOT
HETATM    1  N   UNL     1      35.734  44.693  65.554  1.00  0.00    -0.241 N 
HETATM    2  C   UNL     1      35.820  45.677  66.523  1.00  0.00     0.272 C 
HETATM    3  O   UNL     1      35.208  45.602  67.587  1.00  0.00    -0.266 OA
HETATM    4  C   UNL     1      36.554  46.894  66.142  1.00  0.00     0.054 A 
HETATM    5  C   UNL     1      36.811  47.092  64.780  1.00  0.00     0.026 A 
HETATM    6  N   UNL     1      36.467  46.123  63.799  1.00  0.00    -0.265 NA
HETATM    7  C   UNL     1      36.521  44.732  64.317  1.00  0.00     0.219 C 
HETATM    8  C   UNL     1      36.829  47.887  67.086  1.00  0.00     0.019 A 
HETATM    9  C   UNL     1      37.359  49.105  66.663  1.00  0.00     0.001 A 
HETATM   10  C   UNL     1      37.579  49.334  65.304  1.00  0.00     0.002 A 
HETATM   11  C   UNL     1      37.289  48.338  64.365  1.00  0.00     0.024 A 
HETATM   12  H   UNL     1      35.495  46.297  63.526  1.00  0.00     0.130 HD
ENDROOT
BRANCH   7  13
HETATM   13  C   UNL     1      37.967  44.246  64.463  1.00  0.00     0.014 A 
HETATM   14  C   UNL     1      38.882  44.230  63.395  1.00  0.00     0.075 A 
HETATM   15  C   UNL     1      40.175  43.725  63.539  1.00  0.00     0.037 A 
HETATM   16  C   UNL     1      40.585  43.191  64.756  1.00  0.00     0.003 A 
HETATM   17  C   UNL     1      39.696  43.160  65.823  1.00  0.00     0.001 A 
HETATM   18  C   UNL     1      38.404  43.677  65.677  1.00  0.00     0.013 A 
BRANCH  14  19
HETATM   19  O   UNL     1      38.574  44.700  62.147  1.00  0.00    -0.360 OA
HETATM   20  H   UNL     1      37.602  44.820  62.115  1.00  0.00     0.217 HD
ENDBRANCH  14  19
ENDBRANCH   7  13
BRANCH   1  21
HETATM   21  N   UNL     1      34.404  44.024  65.495  1.00  0.00    -0.123 NA
HETATM   22  H   UNL     1      33.681  44.546  66.011  1.00  0.00     0.165 HD
BRANCH  21  23
HETATM   23  S   UNL     1      34.284  42.364  65.823  1.00  0.00     0.222 S 
HETATM   24  C   UNL     1      33.459  42.390  67.401  1.00  0.00     0.181 C 
HETATM   25  O   UNL     1      35.615  41.829  66.000  1.00  0.00    -0.210 OA
HETATM   26  O   UNL     1      33.368  41.815  64.849  1.00  0.00    -0.210 OA
ENDBRANCH  21  23
ENDBRANCH   1  21
TORSDOF 4
ENDMDL
MODEL 10
REMARK VINA RESULT:      -6.7     12.416     14.311
REMARK  4 active torsions:
REMARK  status: ('A' for Active; 'I' for Inactive)
REMARK    1  A    between atoms: S_2  and  N_3 
REMARK    2  A    between atoms: N_3  and  N_4 
REMARK    3  A    between atoms: C_10  and  C_11 
REMARK    4  A    between atoms: C_12  and  O_13 
ROOT
HETATM    1  N   UNL     1      27.370  43.116  50.770  1.00  0.00    -0.241 N 
HETATM    2  C   UNL     1      26.753  44.132  50.061  1.00  0.00     0.272 C 
HETATM    3  O   UNL     1      27.282  45.230  49.898  1.00  0.00    -0.266 OA
HETATM    4  C   UNL     1      25.361  43.880  49.653  1.00  0.00     0.054 A 
HETATM    5  C   UNL     1      24.690  42.818  50.273  1.00  0.00     0.026 A 
HETATM    6  N   UNL     1      25.338  41.950  51.192  1.00  0.00    -0.265 NA
HETATM    7  C   UNL     1      26.785  41.777  50.901  1.00  0.00     0.219 C 
HETATM    8  C   UNL     1      24.692  44.771  48.810  1.00  0.00     0.019 A 
HETATM    9  C   UNL     1      23.326  44.608  48.589  1.00  0.00     0.001 A 
HETATM   10  C   UNL     1      22.634  43.582  49.235  1.00  0.00     0.002 A 
HETATM   11  C   UNL     1      23.310  42.702  50.086  1.00  0.00     0.024 A 
HETATM   12  H   UNL     1      25.274  42.384  52.118  1.00  0.00     0.130 HD
ENDROOT
BRANCH   7  13
HETATM   13  C   UNL     1      27.007  40.860  49.693  1.00  0.00     0.014 A 
HETATM   14  C   UNL     1      26.631  39.505  49.680  1.00  0.00     0.075 A 
HETATM   15  C   UNL     1      26.900  38.675  48.591  1.00  0.00     0.037 A 
HETATM   16  C   UNL     1      27.583  39.173  47.486  1.00  0.00     0.003 A 
HETATM   17  C   UNL     1      28.000  40.498  47.479  1.00  0.00     0.001 A 
HETATM   18  C   UNL     1      27.718  41.329  48.570  1.00  0.00     0.013 A 
BRANCH  14  19
HETATM   19  O   UNL     1      25.984  38.905  50.727  1.00  0.00    -0.360 OA
HETATM   20  H   UNL     1      26.112  39.476  51.512  1.00  0.00     0.217 HD
ENDBRANCH  14  19
ENDBRANCH   7  13
BRANCH   1  21
HETATM   21  N   UNL     1      28.225  43.599  51.890  1.00  0.00    -0.123 NA
HETATM   22  H   UNL     1      29.188  43.238  51.830  1.00  0.00     0.165 HD
BRANCH  21  23
HETATM   23  S   UNL     1      27.654  43.501  53.484  1.00  0.00     0.222 S 
HETATM   24  C   UNL     1      28.618  44.778  54.268  1.00  0.00     0.181 C 
HETATM   25  O   UNL     1      28.038  42.222  54.036  1.00  0.00    -0.210 OA
HETATM   26  O   UNL     1      26.275  43.934  53.458  1.00  0.00    -0.210 OA
ENDBRANCH  21  23
ENDBRANCH   1  21
TORSDOF 4
ENDMDL
