MODEL 1
REMARK VINA RESULT:      -8.0      0.000      0.000
REMARK  14 active torsions:
REMARK  status: ('A' for Active; 'I' for Inactive)
REMARK    1  A    between atoms: C_2  and  N_3 
REMARK    2  A    between atoms: N_3  and  C_5 
REMARK    3  A    between atoms: N_3  and  C_37 
REMARK    4  A    between atoms: C_5  and  C_6 
REMARK    5  A    between atoms: C_6  and  N_7 
REMARK    6  A    between atoms: C_10  and  O_11 
REMARK    7  A    between atoms: C_12  and  C_13 
REMARK    8  A    between atoms: C_13  and  C_14 
REMARK    9  A    between atoms: C_18  and  O_19 
REMARK   10  A    between atoms: O_19  and  C_20 
REMARK   11  A    between atoms: C_20  and  C_21 
REMARK   12  A    between atoms: C_27  and  C_28 
REMARK   13  A    between atoms: C_30  and  O_31 
REMARK   14  A    between atoms: C_33  and  O_34 
ROOT
HETATM    1  N   UNL     1      23.148  49.092  49.003  1.00  0.00    -0.332 N 
HETATM    2  C   UNL     1      23.916  49.952  48.250  1.00  0.00     0.278 A 
HETATM    3  O   UNL     1      23.558  50.987  47.721  1.00  0.00    -0.265 OA
HETATM    4  C   UNL     1      25.297  49.430  48.247  1.00  0.00     0.146 A 
HETATM    5  C   UNL     1      25.309  48.354  49.044  1.00  0.00     0.059 A 
HETATM    6  C   UNL     1      23.941  47.993  49.540  1.00  0.00     0.161 A 
ENDROOT
BRANCH   5   7
HETATM    7  C   UNL     1      26.471  47.577  49.521  1.00  0.00     0.193 C 
HETATM    8  O   UNL     1      27.479  47.495  48.825  1.00  0.00    -0.287 OA
BRANCH   7   9
HETATM    9  C   UNL     1      26.394  46.787  50.775  1.00  0.00     0.015 A 
HETATM   10  C   UNL     1      26.259  47.471  51.988  1.00  0.00     0.025 A 
HETATM   11  C   UNL     1      26.271  46.773  53.207  1.00  0.00    -0.028 A 
HETATM   12  C   UNL     1      26.138  47.526  54.502  1.00  0.00     0.051 C 
HETATM   13  C   UNL     1      26.452  45.377  53.204  1.00  0.00     0.074 A 
HETATM   14  C   UNL     1      26.582  44.698  51.990  1.00  0.00     0.038 A 
HETATM   15  C   UNL     1      26.568  45.399  50.781  1.00  0.00     0.018 A 
BRANCH  13  16
HETATM   16  O   UNL     1      26.476  44.767  54.430  1.00  0.00    -0.350 OA
BRANCH  16  17
HETATM   17  C   UNL     1      27.487  43.776  54.631  1.00  0.00     0.179 C 
BRANCH  17  18
HETATM   18  C   UNL     1      28.863  44.455  54.612  1.00  0.00     0.002 C 
HETATM   19  C   UNL     1      29.016  45.429  55.782  1.00  0.00     0.011 C 
HETATM   20  C   UNL     1      29.973  43.406  54.646  1.00  0.00     0.011 C 
ENDBRANCH  17  18
ENDBRANCH  16  17
ENDBRANCH  13  16
ENDBRANCH   7   9
ENDBRANCH   5   7
BRANCH   4  21
HETATM   21  O   UNL     1      26.331  50.044  47.612  1.00  0.00    -0.355 OA
HETATM   22  H   UNL     1      26.635  49.439  46.906  1.00  0.00     0.218 HD
ENDBRANCH   4  21
BRANCH   6  23
HETATM   23  C   UNL     1      23.382  46.662  49.071  1.00  0.00    -0.028 A 
HETATM   24  C   UNL     1      23.377  45.564  49.956  1.00  0.00     0.049 A 
HETATM   25  C   UNL     1      22.847  44.334  49.565  1.00  0.00     0.101 A 
HETATM   26  C   UNL     1      22.298  44.212  48.286  1.00  0.00     0.099 A 
HETATM   27  C   UNL     1      22.309  45.269  47.388  1.00  0.00     0.040 A 
HETATM   28  C   UNL     1      22.860  46.490  47.775  1.00  0.00     0.012 A 
BRANCH  25  29
HETATM   29  O   UNL     1      22.783  43.206  50.340  1.00  0.00    -0.353 OA
HETATM   30  C   UNL     1      24.031  42.596  50.659  1.00  0.00     0.210 C 
ENDBRANCH  25  29
BRANCH  26  31
HETATM   31  O   UNL     1      21.745  43.029  47.880  1.00  0.00    -0.358 OA
HETATM   32  H   UNL     1      20.841  43.022  48.253  1.00  0.00     0.218 HD
ENDBRANCH  26  31
ENDBRANCH   6  23
BRANCH   1  33
HETATM   33  C   UNL     1      21.818  49.417  49.486  1.00  0.00     0.155 C 
BRANCH  33  34
HETATM   34  C   UNL     1      20.732  49.240  48.410  1.00  0.00     0.254 C 
BRANCH  34  35
HETATM   35  N   UNL     1      20.398  50.527  47.659  1.00  0.00    -0.070 N 
HETATM   36  H   UNL     1      21.198  50.680  47.029  1.00  0.00     0.279 HD
BRANCH  35  37
HETATM   37  C   UNL     1      20.334  51.772  48.533  1.00  0.00     0.230 C 
HETATM   38  C   UNL     1      18.907  52.133  48.900  1.00  0.00     0.034 C 
ENDBRANCH  35  37
BRANCH  35  39
HETATM   39  C   UNL     1      19.180  50.445  46.756  1.00  0.00     0.230 C 
HETATM   40  C   UNL     1      18.897  49.018  46.325  1.00  0.00     0.034 C 
ENDBRANCH  35  39
ENDBRANCH  34  35
ENDBRANCH  33  34
ENDBRANCH   1  33
TORSDOF 14
ENDMDL
MODEL 2
REMARK VINA RESULT:      -8.0      2.525      8.558
REMARK  14 active torsions:
REMARK  status: ('A' for Active; 'I' for Inactive)
REMARK    1  A    between atoms: C_2  and  N_3 
REMARK    2  A    between atoms: N_3  and  C_5 
REMARK    3  A    between atoms: N_3  and  C_37 
REMARK    4  A    between atoms: C_5  and  C_6 
REMARK    5  A    between atoms: C_6  and  N_7 
REMARK    6  A    between atoms: C_10  and  O_11 
REMARK    7  A    between atoms: C_12  and  C_13 
REMARK    8  A    between atoms: C_13  and  C_14 
REMARK    9  A    between atoms: C_18  and  O_19 
REMARK   10  A    between atoms: O_19  and  C_20 
REMARK   11  A    between atoms: C_20  and  C_21 
REMARK   12  A    between atoms: C_27  and  C_28 
REMARK   13  A    between atoms: C_30  and  O_31 
REMARK   14  A    between atoms: C_33  and  O_34 
ROOT
HETATM    1  N   UNL     1      26.680  44.620  52.817  1.00  0.00    -0.332 N 
HETATM    2  C   UNL     1      26.015  45.670  53.409  1.00  0.00     0.278 A 
HETATM    3  O   UNL     1      25.801  45.832  54.596  1.00  0.00    -0.265 OA
HETATM    4  C   UNL     1      25.653  46.625  52.343  1.00  0.00     0.146 A 
HETATM    5  C   UNL     1      26.176  46.155  51.204  1.00  0.00     0.059 A 
HETATM    6  C   UNL     1      26.811  44.808  51.378  1.00  0.00     0.161 A 
ENDROOT
BRANCH   5   7
HETATM    7  C   UNL     1      26.256  46.818  49.886  1.00  0.00     0.193 C 
HETATM    8  O   UNL     1      27.279  46.721  49.214  1.00  0.00    -0.287 OA
BRANCH   7   9
HETATM    9  C   UNL     1      25.164  47.705  49.415  1.00  0.00     0.015 A 
HETATM   10  C   UNL     1      23.888  47.158  49.237  1.00  0.00     0.025 A 
HETATM   11  C   UNL     1      22.844  47.935  48.709  1.00  0.00    -0.028 A 
HETATM   12  C   UNL     1      21.483  47.326  48.514  1.00  0.00     0.051 C 
HETATM   13  C   UNL     1      23.097  49.266  48.326  1.00  0.00     0.074 A 
HETATM   14  C   UNL     1      24.372  49.809  48.509  1.00  0.00     0.038 A 
HETATM   15  C   UNL     1      25.404  49.030  49.037  1.00  0.00     0.018 A 
BRANCH  13  16
HETATM   16  O   UNL     1      22.038  49.956  47.799  1.00  0.00    -0.350 OA
BRANCH  16  17
HETATM   17  C   UNL     1      21.437  50.943  48.640  1.00  0.00     0.179 C 
BRANCH  17  18
HETATM   18  C   UNL     1      19.922  50.956  48.392  1.00  0.00     0.002 C 
HETATM   19  C   UNL     1      19.371  52.383  48.401  1.00  0.00     0.011 C 
HETATM   20  C   UNL     1      19.595  50.269  47.067  1.00  0.00     0.011 C 
ENDBRANCH  17  18
ENDBRANCH  16  17
ENDBRANCH  13  16
ENDBRANCH   7   9
ENDBRANCH   5   7
BRANCH   4  21
HETATM   21  O   UNL     1      25.000  47.796  52.573  1.00  0.00    -0.355 OA
HETATM   22  H   UNL     1      24.077  47.569  52.807  1.00  0.00     0.218 HD
ENDBRANCH   4  21
BRANCH   6  23
HETATM   23  C   UNL     1      26.163  43.654  50.634  1.00  0.00    -0.028 A 
HETATM   24  C   UNL     1      24.770  43.665  50.421  1.00  0.00     0.049 A 
HETATM   25  C   UNL     1      24.147  42.632  49.719  1.00  0.00     0.101 A 
HETATM   26  C   UNL     1      24.930  41.594  49.209  1.00  0.00     0.099 A 
HETATM   27  C   UNL     1      26.300  41.547  49.424  1.00  0.00     0.040 A 
HETATM   28  C   UNL     1      26.915  42.569  50.145  1.00  0.00     0.012 A 
BRANCH  25  29
HETATM   29  O   UNL     1      22.807  42.543  49.446  1.00  0.00    -0.353 OA
HETATM   30  C   UNL     1      22.301  43.471  48.490  1.00  0.00     0.210 C 
ENDBRANCH  25  29
BRANCH  26  31
HETATM   31  O   UNL     1      24.356  40.581  48.493  1.00  0.00    -0.358 OA
HETATM   32  H   UNL     1      24.742  40.644  47.597  1.00  0.00     0.218 HD
ENDBRANCH  26  31
ENDBRANCH   6  23
BRANCH   1  33
HETATM   33  C   UNL     1      27.449  43.636  53.560  1.00  0.00     0.155 C 
BRANCH  33  34
HETATM   34  C   UNL     1      28.930  44.026  53.711  1.00  0.00     0.254 C 
BRANCH  34  35
HETATM   35  N   UNL     1      29.405  44.073  55.162  1.00  0.00    -0.070 N 
HETATM   36  H   UNL     1      28.597  43.754  55.714  1.00  0.00     0.279 HD
BRANCH  35  37
HETATM   37  C   UNL     1      29.717  45.470  55.681  1.00  0.00     0.230 C 
HETATM   38  C   UNL     1      28.609  46.004  56.569  1.00  0.00     0.034 C 
ENDBRANCH  35  37
BRANCH  35  39
HETATM   39  C   UNL     1      30.532  43.113  55.498  1.00  0.00     0.230 C 
HETATM   40  C   UNL     1      31.345  43.597  56.685  1.00  0.00     0.034 C 
ENDBRANCH  35  39
ENDBRANCH  34  35
ENDBRANCH  33  34
ENDBRANCH   1  33
TORSDOF 14
ENDMDL
MODEL 3
REMARK VINA RESULT:      -7.8      2.394      3.745
REMARK  14 active torsions:
REMARK  status: ('A' for Active; 'I' for Inactive)
REMARK    1  A    between atoms: C_2  and  N_3 
REMARK    2  A    between atoms: N_3  and  C_5 
REMARK    3  A    between atoms: N_3  and  C_37 
REMARK    4  A    between atoms: C_5  and  C_6 
REMARK    5  A    between atoms: C_6  and  N_7 
REMARK    6  A    between atoms: C_10  and  O_11 
REMARK    7  A    between atoms: C_12  and  C_13 
REMARK    8  A    between atoms: C_13  and  C_14 
REMARK    9  A    between atoms: C_18  and  O_19 
REMARK   10  A    between atoms: O_19  and  C_20 
REMARK   11  A    between atoms: C_20  and  C_21 
REMARK   12  A    between atoms: C_27  and  C_28 
REMARK   13  A    between atoms: C_30  and  O_31 
REMARK   14  A    between atoms: C_33  and  O_34 
ROOT
HETATM    1  N   UNL     1      23.992  46.537  49.431  1.00  0.00    -0.332 N 
HETATM    2  C   UNL     1      24.857  47.503  49.893  1.00  0.00     0.278 A 
HETATM    3  O   UNL     1      25.022  48.622  49.445  1.00  0.00    -0.265 OA
HETATM    4  C   UNL     1      25.523  46.965  51.097  1.00  0.00     0.146 A 
HETATM    5  C   UNL     1      24.979  45.766  51.340  1.00  0.00     0.059 A 
HETATM    6  C   UNL     1      24.014  45.347  50.272  1.00  0.00     0.161 A 
ENDROOT
BRANCH   5   7
HETATM    7  C   UNL     1      25.163  44.895  52.519  1.00  0.00     0.193 C 
HETATM    8  O   UNL     1      24.202  44.293  52.990  1.00  0.00    -0.287 OA
BRANCH   7   9
HETATM    9  C   UNL     1      26.468  44.832  53.221  1.00  0.00     0.015 A 
HETATM   10  C   UNL     1      27.478  44.026  52.684  1.00  0.00     0.025 A 
HETATM   11  C   UNL     1      28.699  43.864  53.359  1.00  0.00    -0.028 A 
HETATM   12  C   UNL     1      29.768  42.983  52.773  1.00  0.00     0.051 C 
HETATM   13  C   UNL     1      28.891  44.496  54.602  1.00  0.00     0.074 A 
HETATM   14  C   UNL     1      27.882  45.303  55.132  1.00  0.00     0.038 A 
HETATM   15  C   UNL     1      26.670  45.460  54.454  1.00  0.00     0.018 A 
BRANCH  13  16
HETATM   16  O   UNL     1      30.097  44.275  55.213  1.00  0.00    -0.350 OA
BRANCH  16  17
HETATM   17  C   UNL     1      30.552  45.290  56.112  1.00  0.00     0.179 C 
BRANCH  17  18
HETATM   18  C   UNL     1      31.278  44.626  57.290  1.00  0.00     0.002 C 
HETATM   19  C   UNL     1      30.655  45.033  58.626  1.00  0.00     0.011 C 
HETATM   20  C   UNL     1      31.258  43.106  57.136  1.00  0.00     0.011 C 
ENDBRANCH  17  18
ENDBRANCH  16  17
ENDBRANCH  13  16
ENDBRANCH   7   9
ENDBRANCH   5   7
BRANCH   4  21
HETATM   21  O   UNL     1      26.433  47.663  51.828  1.00  0.00    -0.355 OA
HETATM   22  H   UNL     1      27.251  47.127  51.856  1.00  0.00     0.218 HD
ENDBRANCH   4  21
BRANCH   6  23
HETATM   23  C   UNL     1      24.400  44.130  49.451  1.00  0.00    -0.028 A 
HETATM   24  C   UNL     1      25.736  43.679  49.469  1.00  0.00     0.049 A 
HETATM   25  C   UNL     1      26.118  42.548  48.746  1.00  0.00     0.101 A 
HETATM   26  C   UNL     1      25.148  41.853  48.019  1.00  0.00     0.099 A 
HETATM   27  C   UNL     1      23.832  42.287  47.965  1.00  0.00     0.040 A 
HETATM   28  C   UNL     1      23.459  43.430  48.671  1.00  0.00     0.012 A 
BRANCH  25  29
HETATM   29  O   UNL     1      27.380  42.017  48.696  1.00  0.00    -0.353 OA
HETATM   30  C   UNL     1      27.788  41.270  49.840  1.00  0.00     0.210 C 
ENDBRANCH  25  29
BRANCH  26  31
HETATM   31  O   UNL     1      25.483  40.726  47.321  1.00  0.00    -0.358 OA
HETATM   32  H   UNL     1      25.716  40.060  47.999  1.00  0.00     0.218 HD
ENDBRANCH  26  31
ENDBRANCH   6  23
BRANCH   1  33
HETATM   33  C   UNL     1      22.949  46.797  48.453  1.00  0.00     0.155 C 
BRANCH  33  34
HETATM   34  C   UNL     1      21.546  46.867  49.081  1.00  0.00     0.254 C 
BRANCH  34  35
HETATM   35  N   UNL     1      21.071  48.292  49.359  1.00  0.00    -0.070 N 
HETATM   36  H   UNL     1      21.280  48.450  50.355  1.00  0.00     0.279 HD
BRANCH  35  37
HETATM   37  C   UNL     1      19.568  48.495  49.231  1.00  0.00     0.230 C 
HETATM   38  C   UNL     1      18.876  48.468  50.580  1.00  0.00     0.034 C 
ENDBRANCH  35  37
BRANCH  35  39
HETATM   39  C   UNL     1      21.824  49.377  48.609  1.00  0.00     0.230 C 
HETATM   40  C   UNL     1      21.351  50.763  49.004  1.00  0.00     0.034 C 
ENDBRANCH  35  39
ENDBRANCH  34  35
ENDBRANCH  33  34
ENDBRANCH   1  33
TORSDOF 14
ENDMDL
MODEL 4
REMARK VINA RESULT:      -7.6      1.109      2.166
REMARK  14 active torsions:
REMARK  status: ('A' for Active; 'I' for Inactive)
REMARK    1  A    between atoms: C_2  and  N_3 
REMARK    2  A    between atoms: N_3  and  C_5 
REMARK    3  A    between atoms: N_3  and  C_37 
REMARK    4  A    between atoms: C_5  and  C_6 
REMARK    5  A    between atoms: C_6  and  N_7 
REMARK    6  A    between atoms: C_10  and  O_11 
REMARK    7  A    between atoms: C_12  and  C_13 
REMARK    8  A    between atoms: C_13  and  C_14 
REMARK    9  A    between atoms: C_18  and  O_19 
REMARK   10  A    between atoms: O_19  and  C_20 
REMARK   11  A    between atoms: C_20  and  C_21 
REMARK   12  A    between atoms: C_27  and  C_28 
REMARK   13  A    between atoms: C_30  and  O_31 
REMARK   14  A    between atoms: C_33  and  O_34 
ROOT
HETATM    1  N   UNL     1      23.093  49.244  49.209  1.00  0.00    -0.332 N 
HETATM    2  C   UNL     1      23.754  50.141  48.401  1.00  0.00     0.278 A 
HETATM    3  O   UNL     1      23.318  51.178  47.938  1.00  0.00    -0.265 OA
HETATM    4  C   UNL     1      25.139  49.655  48.239  1.00  0.00     0.146 A 
HETATM    5  C   UNL     1      25.262  48.563  49.003  1.00  0.00     0.059 A 
HETATM    6  C   UNL     1      23.964  48.155  49.632  1.00  0.00     0.161 A 
ENDROOT
BRANCH   5   7
HETATM    7  C   UNL     1      26.486  47.806  49.334  1.00  0.00     0.193 C 
HETATM    8  O   UNL     1      27.489  47.929  48.637  1.00  0.00    -0.287 OA
BRANCH   7   9
HETATM    9  C   UNL     1      26.486  46.802  50.427  1.00  0.00     0.015 A 
HETATM   10  C   UNL     1      26.222  47.233  51.731  1.00  0.00     0.025 A 
HETATM   11  C   UNL     1      26.298  46.336  52.810  1.00  0.00    -0.028 A 
HETATM   12  C   UNL     1      26.023  46.821  54.207  1.00  0.00     0.051 C 
HETATM   13  C   UNL     1      26.675  45.001  52.575  1.00  0.00     0.074 A 
HETATM   14  C   UNL     1      26.934  44.574  51.269  1.00  0.00     0.038 A 
HETATM   15  C   UNL     1      26.854  45.471  50.202  1.00  0.00     0.018 A 
BRANCH  13  16
HETATM   16  O   UNL     1      26.750  44.190  53.676  1.00  0.00    -0.350 OA
BRANCH  16  17
HETATM   17  C   UNL     1      27.478  42.969  53.521  1.00  0.00     0.179 C 
BRANCH  17  18
HETATM   18  C   UNL     1      28.839  43.108  54.216  1.00  0.00     0.002 C 
HETATM   19  C   UNL     1      29.989  42.893  53.230  1.00  0.00     0.011 C 
HETATM   20  C   UNL     1      28.959  44.478  54.881  1.00  0.00     0.011 C 
ENDBRANCH  17  18
ENDBRANCH  16  17
ENDBRANCH  13  16
ENDBRANCH   7   9
ENDBRANCH   5   7
BRANCH   4  21
HETATM   21  O   UNL     1      26.085  50.311  47.513  1.00  0.00    -0.355 OA
HETATM   22  H   UNL     1      26.788  50.583  48.137  1.00  0.00     0.218 HD
ENDBRANCH   4  21
BRANCH   6  23
HETATM   23  C   UNL     1      23.390  46.820  49.193  1.00  0.00    -0.028 A 
HETATM   24  C   UNL     1      22.735  46.727  47.948  1.00  0.00     0.049 A 
HETATM   25  C   UNL     1      22.219  45.508  47.503  1.00  0.00     0.101 A 
HETATM   26  C   UNL     1      22.381  44.375  48.302  1.00  0.00     0.099 A 
HETATM   27  C   UNL     1      23.000  44.443  49.542  1.00  0.00     0.040 A 
HETATM   28  C   UNL     1      23.494  45.666  49.992  1.00  0.00     0.012 A 
BRANCH  25  29
HETATM   29  O   UNL     1      21.573  45.298  46.312  1.00  0.00    -0.353 OA
HETATM   30  C   UNL     1      22.409  45.051  45.184  1.00  0.00     0.210 C 
ENDBRANCH  25  29
BRANCH  26  31
HETATM   31  O   UNL     1      21.911  43.160  47.884  1.00  0.00    -0.358 OA
HETATM   32  H   UNL     1      21.900  43.208  46.908  1.00  0.00     0.218 HD
ENDBRANCH  26  31
ENDBRANCH   6  23
BRANCH   1  33
HETATM   33  C   UNL     1      21.814  49.524  49.838  1.00  0.00     0.155 C 
BRANCH  33  34
HETATM   34  C   UNL     1      20.638  49.483  48.846  1.00  0.00     0.254 C 
BRANCH  34  35
HETATM   35  N   UNL     1      19.273  49.666  49.507  1.00  0.00    -0.070 N 
HETATM   36  H   UNL     1      19.482  49.831  50.501  1.00  0.00     0.279 HD
BRANCH  35  37
HETATM   37  C   UNL     1      18.387  48.428  49.485  1.00  0.00     0.230 C 
HETATM   38  C   UNL     1      19.050  47.270  48.764  1.00  0.00     0.034 C 
ENDBRANCH  35  37
BRANCH  35  39
HETATM   39  C   UNL     1      18.497  50.887  49.046  1.00  0.00     0.230 C 
HETATM   40  C   UNL     1      19.409  51.932  48.432  1.00  0.00     0.034 C 
ENDBRANCH  35  39
ENDBRANCH  34  35
ENDBRANCH  33  34
ENDBRANCH   1  33
TORSDOF 14
ENDMDL
MODEL 5
REMARK VINA RESULT:      -7.5      3.471      9.042
REMARK  14 active torsions:
REMARK  status: ('A' for Active; 'I' for Inactive)
REMARK    1  A    between atoms: C_2  and  N_3 
REMARK    2  A    between atoms: N_3  and  C_5 
REMARK    3  A    between atoms: N_3  and  C_37 
REMARK    4  A    between atoms: C_5  and  C_6 
REMARK    5  A    between atoms: C_6  and  N_7 
REMARK    6  A    between atoms: C_10  and  O_11 
REMARK    7  A    between atoms: C_12  and  C_13 
REMARK    8  A    between atoms: C_13  and  C_14 
REMARK    9  A    between atoms: C_18  and  O_19 
REMARK   10  A    between atoms: O_19  and  C_20 
REMARK   11  A    between atoms: C_20  and  C_21 
REMARK   12  A    between atoms: C_27  and  C_28 
REMARK   13  A    between atoms: C_30  and  O_31 
REMARK   14  A    between atoms: C_33  and  O_34 
ROOT
HETATM    1  N   UNL     1      27.599  43.349  53.237  1.00  0.00    -0.332 N 
HETATM    2  C   UNL     1      26.746  44.255  53.826  1.00  0.00     0.278 A 
HETATM    3  O   UNL     1      26.516  44.387  55.013  1.00  0.00    -0.265 OA
HETATM    4  C   UNL     1      26.191  45.106  52.754  1.00  0.00     0.146 A 
HETATM    5  C   UNL     1      26.785  44.734  51.614  1.00  0.00     0.059 A 
HETATM    6  C   UNL     1      27.675  43.541  51.794  1.00  0.00     0.161 A 
ENDROOT
BRANCH   5   7
HETATM    7  C   UNL     1      26.719  45.382  50.288  1.00  0.00     0.193 C 
HETATM    8  O   UNL     1      27.689  45.338  49.537  1.00  0.00    -0.287 OA
BRANCH   7   9
HETATM    9  C   UNL     1      25.540  46.194  49.898  1.00  0.00     0.015 A 
HETATM   10  C   UNL     1      24.386  45.532  49.465  1.00  0.00     0.025 A 
HETATM   11  C   UNL     1      23.276  46.258  49.002  1.00  0.00    -0.028 A 
HETATM   12  C   UNL     1      22.048  45.529  48.529  1.00  0.00     0.051 C 
HETATM   13  C   UNL     1      23.343  47.663  48.944  1.00  0.00     0.074 A 
HETATM   14  C   UNL     1      24.496  48.320  49.381  1.00  0.00     0.038 A 
HETATM   15  C   UNL     1      25.595  47.590  49.842  1.00  0.00     0.018 A 
BRANCH  13  16
HETATM   16  O   UNL     1      22.233  48.303  48.461  1.00  0.00    -0.350 OA
BRANCH  16  17
HETATM   17  C   UNL     1      21.559  49.183  49.364  1.00  0.00     0.179 C 
BRANCH  17  18
HETATM   18  C   UNL     1      21.775  50.632  48.905  1.00  0.00     0.002 C 
HETATM   19  C   UNL     1      22.398  50.683  47.509  1.00  0.00     0.011 C 
HETATM   20  C   UNL     1      20.452  51.397  48.924  1.00  0.00     0.011 C 
ENDBRANCH  17  18
ENDBRANCH  16  17
ENDBRANCH  13  16
ENDBRANCH   7   9
ENDBRANCH   5   7
BRANCH   4  21
HETATM   21  O   UNL     1      25.322  46.128  52.980  1.00  0.00    -0.355 OA
HETATM   22  H   UNL     1      24.493  45.910  52.508  1.00  0.00     0.218 HD
ENDBRANCH   4  21
BRANCH   6  23
HETATM   23  C   UNL     1      27.260  42.272  51.072  1.00  0.00    -0.028 A 
HETATM   24  C   UNL     1      28.248  41.343  50.686  1.00  0.00     0.049 A 
HETATM   25  C   UNL     1      27.897  40.154  50.043  1.00  0.00     0.101 A 
HETATM   26  C   UNL     1      26.547  39.888  49.807  1.00  0.00     0.099 A 
HETATM   27  C   UNL     1      25.556  40.795  50.156  1.00  0.00     0.040 A 
HETATM   28  C   UNL     1      25.913  41.991  50.778  1.00  0.00     0.012 A 
BRANCH  25  29
HETATM   29  O   UNL     1      28.768  39.179  49.631  1.00  0.00    -0.353 OA
HETATM   30  C   UNL     1      29.429  38.455  50.666  1.00  0.00     0.210 C 
ENDBRANCH  25  29
BRANCH  26  31
HETATM   31  O   UNL     1      26.167  38.721  49.204  1.00  0.00    -0.358 OA
HETATM   32  H   UNL     1      25.764  38.987  48.354  1.00  0.00     0.218 HD
ENDBRANCH  26  31
ENDBRANCH   6  23
BRANCH   1  33
HETATM   33  C   UNL     1      28.554  42.547  53.981  1.00  0.00     0.155 C 
BRANCH  33  34
HETATM   34  C   UNL     1      29.890  43.274  54.215  1.00  0.00     0.254 C 
BRANCH  34  35
HETATM   35  N   UNL     1      30.085  43.746  55.654  1.00  0.00    -0.070 N 
HETATM   36  H   UNL     1      29.176  43.588  56.109  1.00  0.00     0.279 HD
BRANCH  35  37
HETATM   37  C   UNL     1      30.351  45.238  55.801  1.00  0.00     0.230 C 
HETATM   38  C   UNL     1      29.131  45.983  56.307  1.00  0.00     0.034 C 
ENDBRANCH  35  37
BRANCH  35  39
HETATM   39  C   UNL     1      31.089  42.942  56.462  1.00  0.00     0.230 C 
HETATM   40  C   UNL     1      31.813  43.807  57.477  1.00  0.00     0.034 C 
ENDBRANCH  35  39
ENDBRANCH  34  35
ENDBRANCH  33  34
ENDBRANCH   1  33
TORSDOF 14
ENDMDL
MODEL 6
REMARK VINA RESULT:      -7.3      2.455      4.920
REMARK  14 active torsions:
REMARK  status: ('A' for Active; 'I' for Inactive)
REMARK    1  A    between atoms: C_2  and  N_3 
REMARK    2  A    between atoms: N_3  and  C_5 
REMARK    3  A    between atoms: N_3  and  C_37 
REMARK    4  A    between atoms: C_5  and  C_6 
REMARK    5  A    between atoms: C_6  and  N_7 
REMARK    6  A    between atoms: C_10  and  O_11 
REMARK    7  A    between atoms: C_12  and  C_13 
REMARK    8  A    between atoms: C_13  and  C_14 
REMARK    9  A    between atoms: C_18  and  O_19 
REMARK   10  A    between atoms: O_19  and  C_20 
REMARK   11  A    between atoms: C_20  and  C_21 
REMARK   12  A    between atoms: C_27  and  C_28 
REMARK   13  A    between atoms: C_30  and  O_31 
REMARK   14  A    between atoms: C_33  and  O_34 
ROOT
HETATM    1  N   UNL     1      21.965  46.099  47.707  1.00  0.00    -0.332 N 
HETATM    2  C   UNL     1      21.945  45.017  48.558  1.00  0.00     0.278 A 
HETATM    3  O   UNL     1      21.348  43.968  48.404  1.00  0.00    -0.265 OA
HETATM    4  C   UNL     1      22.846  45.322  49.687  1.00  0.00     0.146 A 
HETATM    5  C   UNL     1      23.412  46.507  49.426  1.00  0.00     0.059 A 
HETATM    6  C   UNL     1      22.857  47.146  48.188  1.00  0.00     0.161 A 
ENDROOT
BRANCH   5   7
HETATM    7  C   UNL     1      24.515  47.178  50.143  1.00  0.00     0.193 C 
HETATM    8  O   UNL     1      24.807  48.338  49.869  1.00  0.00    -0.287 OA
BRANCH   7   9
HETATM    9  C   UNL     1      25.359  46.430  51.108  1.00  0.00     0.015 A 
HETATM   10  C   UNL     1      26.102  45.340  50.641  1.00  0.00     0.025 A 
HETATM   11  C   UNL     1      26.846  44.549  51.532  1.00  0.00    -0.028 A 
HETATM   12  C   UNL     1      27.629  43.373  51.013  1.00  0.00     0.051 C 
HETATM   13  C   UNL     1      26.814  44.839  52.908  1.00  0.00     0.074 A 
HETATM   14  C   UNL     1      26.074  45.930  53.369  1.00  0.00     0.038 A 
HETATM   15  C   UNL     1      25.338  46.714  52.477  1.00  0.00     0.018 A 
BRANCH  13  16
HETATM   16  O   UNL     1      27.545  44.011  53.718  1.00  0.00    -0.350 OA
BRANCH  16  17
HETATM   17  C   UNL     1      28.725  44.569  54.304  1.00  0.00     0.179 C 
BRANCH  17  18
HETATM   18  C   UNL     1      29.693  43.433  54.659  1.00  0.00     0.002 C 
HETATM   19  C   UNL     1      30.340  42.844  53.404  1.00  0.00     0.011 C 
HETATM   20  C   UNL     1      30.766  43.932  55.625  1.00  0.00     0.011 C 
ENDBRANCH  17  18
ENDBRANCH  16  17
ENDBRANCH  13  16
ENDBRANCH   7   9
ENDBRANCH   5   7
BRANCH   4  21
HETATM   21  O   UNL     1      23.084  44.461  50.713  1.00  0.00    -0.355 OA
HETATM   22  H   UNL     1      22.314  43.859  50.768  1.00  0.00     0.218 HD
ENDBRANCH   4  21
BRANCH   6  23
HETATM   23  C   UNL     1      22.090  48.442  48.382  1.00  0.00    -0.028 A 
HETATM   24  C   UNL     1      20.948  48.451  49.209  1.00  0.00     0.049 A 
HETATM   25  C   UNL     1      20.235  49.632  49.429  1.00  0.00     0.101 A 
HETATM   26  C   UNL     1      20.685  50.812  48.833  1.00  0.00     0.099 A 
HETATM   27  C   UNL     1      21.793  50.827  47.998  1.00  0.00     0.040 A 
HETATM   28  C   UNL     1      22.488  49.642  47.763  1.00  0.00     0.012 A 
BRANCH  25  29
HETATM   29  O   UNL     1      19.120  49.760  50.215  1.00  0.00    -0.353 OA
HETATM   30  C   UNL     1      18.652  48.564  50.834  1.00  0.00     0.210 C 
ENDBRANCH  25  29
BRANCH  26  31
HETATM   31  O   UNL     1      20.027  51.991  49.050  1.00  0.00    -0.358 OA
HETATM   32  H   UNL     1      19.685  52.262  48.175  1.00  0.00     0.218 HD
ENDBRANCH  26  31
ENDBRANCH   6  23
BRANCH   1  33
HETATM   33  C   UNL     1      21.448  46.061  46.350  1.00  0.00     0.155 C 
BRANCH  33  34
HETATM   34  C   UNL     1      19.926  46.279  46.284  1.00  0.00     0.254 C 
BRANCH  34  35
HETATM   35  N   UNL     1      19.115  45.013  46.553  1.00  0.00    -0.070 N 
HETATM   36  H   UNL     1      19.522  44.616  47.411  1.00  0.00     0.279 HD
BRANCH  35  37
HETATM   37  C   UNL     1      19.268  43.926  45.497  1.00  0.00     0.230 C 
HETATM   38  C   UNL     1      18.041  43.818  44.613  1.00  0.00     0.034 C 
ENDBRANCH  35  37
BRANCH  35  39
HETATM   39  C   UNL     1      17.648  45.247  46.870  1.00  0.00     0.230 C 
HETATM   40  C   UNL     1      17.472  46.099  48.113  1.00  0.00     0.034 C 
ENDBRANCH  35  39
ENDBRANCH  34  35
ENDBRANCH  33  34
ENDBRANCH   1  33
TORSDOF 14
ENDMDL
MODEL 7
REMARK VINA RESULT:      -7.3      3.095      6.085
REMARK  14 active torsions:
REMARK  status: ('A' for Active; 'I' for Inactive)
REMARK    1  A    between atoms: C_2  and  N_3 
REMARK    2  A    between atoms: N_3  and  C_5 
REMARK    3  A    between atoms: N_3  and  C_37 
REMARK    4  A    between atoms: C_5  and  C_6 
REMARK    5  A    between atoms: C_6  and  N_7 
REMARK    6  A    between atoms: C_10  and  O_11 
REMARK    7  A    between atoms: C_12  and  C_13 
REMARK    8  A    between atoms: C_13  and  C_14 
REMARK    9  A    between atoms: C_18  and  O_19 
REMARK   10  A    between atoms: O_19  and  C_20 
REMARK   11  A    between atoms: C_20  and  C_21 
REMARK   12  A    between atoms: C_27  and  C_28 
REMARK   13  A    between atoms: C_30  and  O_31 
REMARK   14  A    between atoms: C_33  and  O_34 
ROOT
HETATM    1  N   UNL     1      19.828  50.144  49.314  1.00  0.00    -0.332 N 
HETATM    2  C   UNL     1      18.935  49.281  49.908  1.00  0.00     0.278 A 
HETATM    3  O   UNL     1      18.194  49.515  50.844  1.00  0.00    -0.265 OA
HETATM    4  C   UNL     1      18.981  48.009  49.159  1.00  0.00     0.146 A 
HETATM    5  C   UNL     1      19.816  48.193  48.129  1.00  0.00     0.059 A 
HETATM    6  C   UNL     1      20.488  49.532  48.168  1.00  0.00     0.161 A 
ENDROOT
BRANCH   5   7
HETATM    7  C   UNL     1      20.073  47.297  46.983  1.00  0.00     0.193 C 
HETATM    8  O   UNL     1      19.425  47.426  45.949  1.00  0.00    -0.287 OA
BRANCH   7   9
HETATM    9  C   UNL     1      21.018  46.160  47.105  1.00  0.00     0.015 A 
HETATM   10  C   UNL     1      21.721  45.750  45.967  1.00  0.00     0.025 A 
HETATM   11  C   UNL     1      22.560  44.624  46.011  1.00  0.00    -0.028 A 
HETATM   12  C   UNL     1      23.298  44.191  44.774  1.00  0.00     0.051 C 
HETATM   13  C   UNL     1      22.665  43.886  47.205  1.00  0.00     0.074 A 
HETATM   14  C   UNL     1      21.964  44.302  48.340  1.00  0.00     0.038 A 
HETATM   15  C   UNL     1      21.134  45.424  48.289  1.00  0.00     0.018 A 
BRANCH  13  16
HETATM   16  O   UNL     1      23.483  42.788  47.168  1.00  0.00    -0.350 OA
BRANCH  16  17
HETATM   17  C   UNL     1      23.465  41.940  48.319  1.00  0.00     0.179 C 
BRANCH  17  18
HETATM   18  C   UNL     1      24.783  42.109  49.087  1.00  0.00     0.002 C 
HETATM   19  C   UNL     1      24.535  42.616  50.508  1.00  0.00     0.011 C 
HETATM   20  C   UNL     1      25.551  40.789  49.120  1.00  0.00     0.011 C 
ENDBRANCH  17  18
ENDBRANCH  16  17
ENDBRANCH  13  16
ENDBRANCH   7   9
ENDBRANCH   5   7
BRANCH   4  21
HETATM   21  O   UNL     1      18.207  46.931  49.461  1.00  0.00    -0.355 OA
HETATM   22  H   UNL     1      17.714  47.151  50.277  1.00  0.00     0.218 HD
ENDBRANCH   4  21
BRANCH   6  23
HETATM   23  C   UNL     1      21.993  49.528  48.367  1.00  0.00    -0.028 A 
HETATM   24  C   UNL     1      22.561  48.660  49.322  1.00  0.00     0.049 A 
HETATM   25  C   UNL     1      23.943  48.614  49.512  1.00  0.00     0.101 A 
HETATM   26  C   UNL     1      24.760  49.426  48.722  1.00  0.00     0.099 A 
HETATM   27  C   UNL     1      24.226  50.305  47.791  1.00  0.00     0.040 A 
HETATM   28  C   UNL     1      22.844  50.365  47.621  1.00  0.00     0.012 A 
BRANCH  25  29
HETATM   29  O   UNL     1      24.603  47.807  50.402  1.00  0.00    -0.353 OA
HETATM   30  C   UNL     1      24.475  46.404  50.186  1.00  0.00     0.210 C 
ENDBRANCH  25  29
BRANCH  26  31
HETATM   31  O   UNL     1      26.119  49.385  48.863  1.00  0.00    -0.358 OA
HETATM   32  H   UNL     1      26.461  50.109  48.301  1.00  0.00     0.218 HD
ENDBRANCH  26  31
ENDBRANCH   6  23
BRANCH   1  33
HETATM   33  C   UNL     1      19.854  51.573  49.573  1.00  0.00     0.155 C 
BRANCH  33  34
HETATM   34  C   UNL     1      19.268  52.400  48.414  1.00  0.00     0.254 C 
BRANCH  34  35
HETATM   35  N   UNL     1      17.745  52.510  48.449  1.00  0.00    -0.070 N 
HETATM   36  H   UNL     1      17.538  53.434  48.046  1.00  0.00     0.279 HD
BRANCH  35  37
HETATM   37  C   UNL     1      17.144  52.541  49.848  1.00  0.00     0.230 C 
HETATM   38  C   UNL     1      16.102  53.633  49.991  1.00  0.00     0.034 C 
ENDBRANCH  35  37
BRANCH  35  39
HETATM   39  C   UNL     1      17.011  51.509  47.574  1.00  0.00     0.230 C 
HETATM   40  C   UNL     1      16.041  52.196  46.631  1.00  0.00     0.034 C 
ENDBRANCH  35  39
ENDBRANCH  34  35
ENDBRANCH  33  34
ENDBRANCH   1  33
TORSDOF 14
ENDMDL
MODEL 8
REMARK VINA RESULT:      -7.2      2.384      4.269
REMARK  14 active torsions:
REMARK  status: ('A' for Active; 'I' for Inactive)
REMARK    1  A    between atoms: C_2  and  N_3 
REMARK    2  A    between atoms: N_3  and  C_5 
REMARK    3  A    between atoms: N_3  and  C_37 
REMARK    4  A    between atoms: C_5  and  C_6 
REMARK    5  A    between atoms: C_6  and  N_7 
REMARK    6  A    between atoms: C_10  and  O_11 
REMARK    7  A    between atoms: C_12  and  C_13 
REMARK    8  A    between atoms: C_13  and  C_14 
REMARK    9  A    between atoms: C_18  and  O_19 
REMARK   10  A    between atoms: O_19  and  C_20 
REMARK   11  A    between atoms: C_20  and  C_21 
REMARK   12  A    between atoms: C_27  and  C_28 
REMARK   13  A    between atoms: C_30  and  O_31 
REMARK   14  A    between atoms: C_33  and  O_34 
ROOT
HETATM    1  N   UNL     1      20.993  50.101  49.210  1.00  0.00    -0.332 N 
HETATM    2  C   UNL     1      22.087  50.660  48.589  1.00  0.00     0.278 A 
HETATM    3  O   UNL     1      22.374  51.841  48.523  1.00  0.00    -0.265 OA
HETATM    4  C   UNL     1      22.911  49.556  48.059  1.00  0.00     0.146 A 
HETATM    5  C   UNL     1      22.330  48.414  48.448  1.00  0.00     0.059 A 
HETATM    6  C   UNL     1      21.025  48.646  49.149  1.00  0.00     0.161 A 
ENDROOT
BRANCH   5   7
HETATM    7  C   UNL     1      22.846  47.035  48.333  1.00  0.00     0.193 C 
HETATM    8  O   UNL     1      22.491  46.326  47.396  1.00  0.00    -0.287 OA
BRANCH   7   9
HETATM    9  C   UNL     1      23.691  46.449  49.403  1.00  0.00     0.015 A 
HETATM   10  C   UNL     1      23.646  45.066  49.608  1.00  0.00     0.025 A 
HETATM   11  C   UNL     1      24.359  44.475  50.664  1.00  0.00    -0.028 A 
HETATM   12  C   UNL     1      24.288  42.988  50.877  1.00  0.00     0.051 C 
HETATM   13  C   UNL     1      25.098  45.291  51.541  1.00  0.00     0.074 A 
HETATM   14  C   UNL     1      25.144  46.672  51.330  1.00  0.00     0.038 A 
HETATM   15  C   UNL     1      24.433  47.251  50.275  1.00  0.00     0.018 A 
BRANCH  13  16
HETATM   16  O   UNL     1      25.750  44.650  52.560  1.00  0.00    -0.350 OA
BRANCH  16  17
HETATM   17  C   UNL     1      26.607  45.453  53.376  1.00  0.00     0.179 C 
BRANCH  17  18
HETATM   18  C   UNL     1      27.146  44.598  54.530  1.00  0.00     0.002 C 
HETATM   19  C   UNL     1      27.261  43.127  54.123  1.00  0.00     0.011 C 
HETATM   20  C   UNL     1      28.501  45.127  54.995  1.00  0.00     0.011 C 
ENDBRANCH  17  18
ENDBRANCH  16  17
ENDBRANCH  13  16
ENDBRANCH   7   9
ENDBRANCH   5   7
BRANCH   4  21
HETATM   21  O   UNL     1      24.085  49.744  47.398  1.00  0.00    -0.355 OA
HETATM   22  H   UNL     1      24.348  50.676  47.540  1.00  0.00     0.218 HD
ENDBRANCH   4  21
BRANCH   6  23
HETATM   23  C   UNL     1      19.782  48.121  48.453  1.00  0.00    -0.028 A 
HETATM   24  C   UNL     1      19.656  48.271  47.057  1.00  0.00     0.049 A 
HETATM   25  C   UNL     1      18.537  47.777  46.384  1.00  0.00     0.101 A 
HETATM   26  C   UNL     1      17.551  47.109  47.114  1.00  0.00     0.099 A 
HETATM   27  C   UNL     1      17.639  46.966  48.491  1.00  0.00     0.040 A 
HETATM   28  C   UNL     1      18.747  47.481  49.162  1.00  0.00     0.012 A 
BRANCH  25  29
HETATM   29  O   UNL     1      18.313  47.860  45.035  1.00  0.00    -0.353 OA
HETATM   30  C   UNL     1      19.087  46.983  44.219  1.00  0.00     0.210 C 
ENDBRANCH  25  29
BRANCH  26  31
HETATM   31  O   UNL     1      16.456  46.589  46.482  1.00  0.00    -0.358 OA
HETATM   32  H   UNL     1      16.772  46.312  45.599  1.00  0.00     0.218 HD
ENDBRANCH  26  31
ENDBRANCH   6  23
BRANCH   1  33
HETATM   33  C   UNL     1      20.115  50.837  50.104  1.00  0.00     0.155 C 
BRANCH  33  34
HETATM   34  C   UNL     1      19.183  51.809  49.359  1.00  0.00     0.254 C 
BRANCH  34  35
HETATM   35  N   UNL     1      17.701  51.471  49.510  1.00  0.00    -0.070 N 
HETATM   36  H   UNL     1      17.663  50.788  50.279  1.00  0.00     0.279 HD
BRANCH  35  37
HETATM   37  C   UNL     1      17.088  50.759  48.312  1.00  0.00     0.230 C 
HETATM   38  C   UNL     1      17.585  51.332  46.999  1.00  0.00     0.034 C 
ENDBRANCH  35  37
BRANCH  35  39
HETATM   39  C   UNL     1      16.822  52.628  49.952  1.00  0.00     0.230 C 
HETATM   40  C   UNL     1      15.349  52.307  49.787  1.00  0.00     0.034 C 
ENDBRANCH  35  39
ENDBRANCH  34  35
ENDBRANCH  33  34
ENDBRANCH   1  33
TORSDOF 14
ENDMDL
MODEL 9
REMARK VINA RESULT:      -7.1      1.688      3.062
REMARK  14 active torsions:
REMARK  status: ('A' for Active; 'I' for Inactive)
REMARK    1  A    between atoms: C_2  and  N_3 
REMARK    2  A    between atoms: N_3  and  C_5 
REMARK    3  A    between atoms: N_3  and  C_37 
REMARK    4  A    between atoms: C_5  and  C_6 
REMARK    5  A    between atoms: C_6  and  N_7 
REMARK    6  A    between atoms: C_10  and  O_11 
REMARK    7  A    between atoms: C_12  and  C_13 
REMARK    8  A    between atoms: C_13  and  C_14 
REMARK    9  A    between atoms: C_18  and  O_19 
REMARK   10  A    between atoms: O_19  and  C_20 
REMARK   11  A    between atoms: C_20  and  C_21 
REMARK   12  A    between atoms: C_27  and  C_28 
REMARK   13  A    between atoms: C_30  and  O_31 
REMARK   14  A    between atoms: C_33  and  O_34 
ROOT
HETATM    1  N   UNL     1      23.536  47.789  48.901  1.00  0.00    -0.332 N 
HETATM    2  C   UNL     1      24.806  48.272  49.118  1.00  0.00     0.278 A 
HETATM    3  O   UNL     1      25.288  49.301  48.682  1.00  0.00    -0.265 OA
HETATM    4  C   UNL     1      25.483  47.345  50.046  1.00  0.00     0.146 A 
HETATM    5  C   UNL     1      24.583  46.418  50.397  1.00  0.00     0.059 A 
HETATM    6  C   UNL     1      23.290  46.565  49.653  1.00  0.00     0.161 A 
ENDROOT
BRANCH   5   7
HETATM    7  C   UNL     1      24.696  45.373  51.435  1.00  0.00     0.193 C 
HETATM    8  O   UNL     1      23.772  44.585  51.612  1.00  0.00    -0.287 OA
BRANCH   7   9
HETATM    9  C   UNL     1      25.862  45.337  52.353  1.00  0.00     0.015 A 
HETATM   10  C   UNL     1      26.912  44.459  52.065  1.00  0.00     0.025 A 
HETATM   11  C   UNL     1      27.995  44.326  52.950  1.00  0.00    -0.028 A 
HETATM   12  C   UNL     1      29.109  43.367  52.631  1.00  0.00     0.051 C 
HETATM   13  C   UNL     1      28.001  45.059  54.151  1.00  0.00     0.074 A 
HETATM   14  C   UNL     1      26.951  45.937  54.433  1.00  0.00     0.038 A 
HETATM   15  C   UNL     1      25.879  46.066  53.546  1.00  0.00     0.018 A 
BRANCH  13  16
HETATM   16  O   UNL     1      29.077  44.861  54.976  1.00  0.00    -0.350 OA
BRANCH  16  17
HETATM   17  C   UNL     1      29.281  45.834  56.004  1.00  0.00     0.179 C 
BRANCH  17  18
HETATM   18  C   UNL     1      30.532  45.457  56.808  1.00  0.00     0.002 C 
HETATM   19  C   UNL     1      30.252  45.478  58.312  1.00  0.00     0.011 C 
HETATM   20  C   UNL     1      31.043  44.082  56.382  1.00  0.00     0.011 C 
ENDBRANCH  17  18
ENDBRANCH  16  17
ENDBRANCH  13  16
ENDBRANCH   7   9
ENDBRANCH   5   7
BRANCH   4  21
HETATM   21  O   UNL     1      26.755  47.526  50.496  1.00  0.00    -0.355 OA
HETATM   22  H   UNL     1      27.011  46.709  50.969  1.00  0.00     0.218 HD
ENDBRANCH   4  21
BRANCH   6  23
HETATM   23  C   UNL     1      22.920  45.434  48.710  1.00  0.00    -0.028 A 
HETATM   24  C   UNL     1      21.561  45.181  48.435  1.00  0.00     0.049 A 
HETATM   25  C   UNL     1      21.188  44.164  47.553  1.00  0.00     0.101 A 
HETATM   26  C   UNL     1      22.186  43.415  46.928  1.00  0.00     0.099 A 
HETATM   27  C   UNL     1      23.531  43.627  47.197  1.00  0.00     0.040 A 
HETATM   28  C   UNL     1      23.898  44.628  48.096  1.00  0.00     0.012 A 
BRANCH  25  29
HETATM   29  O   UNL     1      19.904  43.836  47.206  1.00  0.00    -0.353 OA
HETATM   30  C   UNL     1      19.167  44.842  46.515  1.00  0.00     0.210 C 
ENDBRANCH  25  29
BRANCH  26  31
HETATM   31  O   UNL     1      21.857  42.430  46.037  1.00  0.00    -0.358 OA
HETATM   32  H   UNL     1      21.239  42.848  45.405  1.00  0.00     0.218 HD
ENDBRANCH  26  31
ENDBRANCH   6  23
BRANCH   1  33
HETATM   33  C   UNL     1      22.474  48.570  48.291  1.00  0.00     0.155 C 
BRANCH  33  34
HETATM   34  C   UNL     1      21.778  49.513  49.288  1.00  0.00     0.254 C 
BRANCH  34  35
HETATM   35  N   UNL     1      20.272  49.281  49.401  1.00  0.00    -0.070 N 
HETATM   36  H   UNL     1      20.141  48.847  50.325  1.00  0.00     0.279 HD
BRANCH  35  37
HETATM   37  C   UNL     1      19.710  48.275  48.405  1.00  0.00     0.230 C 
HETATM   38  C   UNL     1      18.287  48.612  48.004  1.00  0.00     0.034 C 
ENDBRANCH  35  37
BRANCH  35  39
HETATM   39  C   UNL     1      19.428  50.543  49.420  1.00  0.00     0.230 C 
HETATM   40  C   UNL     1      20.140  51.703  48.750  1.00  0.00     0.034 C 
ENDBRANCH  35  39
ENDBRANCH  34  35
ENDBRANCH  33  34
ENDBRANCH   1  33
TORSDOF 14
ENDMDL
MODEL 10
REMARK VINA RESULT:      -7.1      2.476      8.369
REMARK  14 active torsions:
REMARK  status: ('A' for Active; 'I' for Inactive)
REMARK    1  A    between atoms: C_2  and  N_3 
REMARK    2  A    between atoms: N_3  and  C_5 
REMARK    3  A    between atoms: N_3  and  C_37 
REMARK    4  A    between atoms: C_5  and  C_6 
REMARK    5  A    between atoms: C_6  and  N_7 
REMARK    6  A    between atoms: C_10  and  O_11 
REMARK    7  A    between atoms: C_12  and  C_13 
REMARK    8  A    between atoms: C_13  and  C_14 
REMARK    9  A    between atoms: C_18  and  O_19 
REMARK   10  A    between atoms: O_19  and  C_20 
REMARK   11  A    between atoms: C_20  and  C_21 
REMARK   12  A    between atoms: C_27  and  C_28 
REMARK   13  A    between atoms: C_30  and  O_31 
REMARK   14  A    between atoms: C_33  and  O_34 
ROOT
HETATM    1  N   UNL     1      24.838  43.774  50.817  1.00  0.00    -0.332 N 
HETATM    2  C   UNL     1      24.955  42.539  50.220  1.00  0.00     0.278 A 
HETATM    3  O   UNL     1      25.375  41.513  50.722  1.00  0.00    -0.265 OA
HETATM    4  C   UNL     1      24.411  42.653  48.851  1.00  0.00     0.146 A 
HETATM    5  C   UNL     1      23.931  43.896  48.725  1.00  0.00     0.059 A 
HETATM    6  C   UNL     1      24.219  44.746  49.925  1.00  0.00     0.161 A 
ENDROOT
BRANCH   5   7
HETATM    7  C   UNL     1      23.129  44.463  47.622  1.00  0.00     0.193 C 
HETATM    8  O   UNL     1      23.490  44.307  46.459  1.00  0.00    -0.287 OA
BRANCH   7   9
HETATM    9  C   UNL     1      21.955  45.327  47.903  1.00  0.00     0.015 A 
HETATM   10  C   UNL     1      21.994  46.663  47.491  1.00  0.00     0.025 A 
HETATM   11  C   UNL     1      20.946  47.541  47.812  1.00  0.00    -0.028 A 
HETATM   12  C   UNL     1      21.012  48.978  47.371  1.00  0.00     0.051 C 
HETATM   13  C   UNL     1      19.865  47.076  48.583  1.00  0.00     0.074 A 
HETATM   14  C   UNL     1      19.828  45.740  48.990  1.00  0.00     0.038 A 
HETATM   15  C   UNL     1      20.874  44.872  48.665  1.00  0.00     0.018 A 
BRANCH  13  16
HETATM   16  O   UNL     1      18.891  47.994  48.877  1.00  0.00    -0.350 OA
BRANCH  16  17
HETATM   17  C   UNL     1      18.768  48.377  50.249  1.00  0.00     0.179 C 
BRANCH  17  18
HETATM   18  C   UNL     1      18.587  49.899  50.329  1.00  0.00     0.002 C 
HETATM   19  C   UNL     1      19.938  50.616  50.353  1.00  0.00     0.011 C 
HETATM   20  C   UNL     1      17.744  50.396  49.155  1.00  0.00     0.011 C 
ENDBRANCH  17  18
ENDBRANCH  16  17
ENDBRANCH  13  16
ENDBRANCH   7   9
ENDBRANCH   5   7
BRANCH   4  21
HETATM   21  O   UNL     1      24.350  41.611  47.978  1.00  0.00    -0.355 OA
HETATM   22  H   UNL     1      24.773  40.845  48.415  1.00  0.00     0.218 HD
ENDBRANCH   4  21
BRANCH   6  23
HETATM   23  C   UNL     1      25.148  45.928  49.710  1.00  0.00    -0.028 A 
HETATM   24  C   UNL     1      24.603  47.225  49.608  1.00  0.00     0.049 A 
HETATM   25  C   UNL     1      25.432  48.335  49.436  1.00  0.00     0.101 A 
HETATM   26  C   UNL     1      26.814  48.144  49.388  1.00  0.00     0.099 A 
HETATM   27  C   UNL     1      27.375  46.878  49.464  1.00  0.00     0.040 A 
HETATM   28  C   UNL     1      26.543  45.769  49.613  1.00  0.00     0.012 A 
BRANCH  25  29
HETATM   29  O   UNL     1      25.015  49.637  49.333  1.00  0.00    -0.353 OA
HETATM   30  C   UNL     1      24.392  49.997  48.102  1.00  0.00     0.210 C 
ENDBRANCH  25  29
BRANCH  26  31
HETATM   31  O   UNL     1      27.656  49.213  49.248  1.00  0.00    -0.358 OA
HETATM   32  H   UNL     1      27.475  49.790  50.017  1.00  0.00     0.218 HD
ENDBRANCH  26  31
ENDBRANCH   6  23
BRANCH   1  33
HETATM   33  C   UNL     1      24.984  43.990  52.246  1.00  0.00     0.155 C 
BRANCH  33  34
HETATM   34  C   UNL     1      26.454  44.004  52.701  1.00  0.00     0.254 C 
BRANCH  34  35
HETATM   35  N   UNL     1      26.704  44.867  53.936  1.00  0.00    -0.070 N 
HETATM   36  H   UNL     1      26.423  44.277  54.731  1.00  0.00     0.279 HD
BRANCH  35  37
HETATM   37  C   UNL     1      25.827  46.108  54.029  1.00  0.00     0.230 C 
HETATM   38  C   UNL     1      26.310  47.214  53.111  1.00  0.00     0.034 C 
ENDBRANCH  35  37
BRANCH  35  39
HETATM   39  C   UNL     1      28.159  45.221  54.186  1.00  0.00     0.230 C 
HETATM   40  C   UNL     1      28.415  45.538  55.648  1.00  0.00     0.034 C 
ENDBRANCH  35  39
ENDBRANCH  34  35
ENDBRANCH  33  34
ENDBRANCH   1  33
TORSDOF 14
ENDMDL
