MODEL 1
REMARK VINA RESULT:      -9.6      0.000      0.000
REMARK  2 active torsions:
REMARK  status: ('A' for Active; 'I' for Inactive)
REMARK    1  A    between atoms: C_7  and  C_8 
REMARK       I    between atoms: C_8  and  N_9 
REMARK    2  A    between atoms: N_9  and  C_10 
ROOT
HETATM    1  C   UNL     1      26.549  45.855  52.894  1.00  0.00     0.256 C 
HETATM    2  N   UNL     1      26.569  45.871  51.509  1.00  0.00    -0.323 N 
HETATM    3  O   UNL     1      25.720  46.402  53.612  1.00  0.00    -0.267 OA
HETATM    4  H   UNL     1      27.283  45.323  51.050  1.00  0.00     0.169 HD
ENDROOT
BRANCH   1   5
HETATM    5  C   UNL     1      27.632  45.055  53.547  1.00  0.00     0.033 A 
HETATM    6  C   UNL     1      27.974  43.827  52.966  1.00  0.00     0.019 A 
HETATM    7  C   UNL     1      28.985  43.026  53.503  1.00  0.00     0.031 A 
HETATM    8  C   UNL     1      29.644  43.496  54.643  1.00  0.00     0.043 A 
HETATM    9  C   UNL     1      29.327  44.704  55.261  1.00  0.00    -0.001 A 
HETATM   10  N   UNL     1      30.663  42.926  55.368  1.00  0.00    -0.359 N 
HETATM   11  C   UNL     1      30.199  44.852  56.387  1.00  0.00    -0.027 A 
HETATM   12  C   UNL     1      28.290  45.491  54.710  1.00  0.00     0.031 A 
HETATM   13  C   UNL     1      30.232  45.988  57.347  1.00  0.00     0.051 C 
HETATM   14  C   UNL     1      31.012  43.729  56.423  1.00  0.00     0.012 A 
HETATM   15  C   UNL     1      32.093  43.345  57.369  1.00  0.00     0.068 C 
HETATM   16  H   UNL     1      31.088  42.036  55.148  1.00  0.00     0.166 HD
ENDBRANCH   1   5
BRANCH   2  17
HETATM   17  C   UNL     1      25.648  46.510  50.647  1.00  0.00     0.037 A 
HETATM   18  C   UNL     1      25.865  47.769  50.076  1.00  0.00     0.061 A 
HETATM   19  C   UNL     1      24.866  48.277  49.276  1.00  0.00     0.065 A 
HETATM   20  C   UNL     1      23.687  47.584  49.019  1.00  0.00     0.063 A 
HETATM   21  N   UNL     1      24.801  49.494  48.604  1.00  0.00    -0.306 N 
HETATM   22  N   UNL     1      22.897  48.370  48.189  1.00  0.00    -0.307 N 
HETATM   23  C   UNL     1      23.442  46.345  49.554  1.00  0.00     0.034 A 
HETATM   24  C   UNL     1      23.577  49.568  47.924  1.00  0.00     0.325 A 
HETATM   25  H   UNL     1      21.983  48.156  47.828  1.00  0.00     0.170 HD
HETATM   26  O   UNL     1      23.177  50.492  47.238  1.00  0.00    -0.247 OA
HETATM   27  C   UNL     1      24.439  45.810  50.380  1.00  0.00     0.032 A 
HETATM   28  H   UNL     1      25.497  50.221  48.598  1.00  0.00     0.170 HD
ENDBRANCH   2  17
TORSDOF 2
ENDMDL
MODEL 2
REMARK VINA RESULT:      -9.5      0.945      1.485
REMARK  2 active torsions:
REMARK  status: ('A' for Active; 'I' for Inactive)
REMARK    1  A    between atoms: C_7  and  C_8 
REMARK       I    between atoms: C_8  and  N_9 
REMARK    2  A    between atoms: N_9  and  C_10 
ROOT
HETATM    1  C   UNL     1      26.499  46.385  52.804  1.00  0.00     0.256 C 
HETATM    2  N   UNL     1      26.583  46.516  51.428  1.00  0.00    -0.323 N 
HETATM    3  O   UNL     1      25.674  46.923  53.534  1.00  0.00    -0.267 OA
HETATM    4  H   UNL     1      27.281  45.962  50.952  1.00  0.00     0.169 HD
ENDROOT
BRANCH   1   5
HETATM    5  C   UNL     1      27.499  45.463  53.427  1.00  0.00     0.033 A 
HETATM    6  C   UNL     1      27.724  44.229  52.803  1.00  0.00     0.019 A 
HETATM    7  C   UNL     1      28.653  43.317  53.310  1.00  0.00     0.031 A 
HETATM    8  C   UNL     1      29.351  43.682  54.466  1.00  0.00     0.043 A 
HETATM    9  C   UNL     1      29.148  44.891  55.127  1.00  0.00    -0.001 A 
HETATM   10  N   UNL     1      30.309  42.991  55.170  1.00  0.00    -0.359 N 
HETATM   11  C   UNL     1      30.027  44.915  56.258  1.00  0.00    -0.027 A 
HETATM   12  C   UNL     1      28.192  45.792  54.605  1.00  0.00     0.031 A 
HETATM   13  C   UNL     1      30.165  46.008  57.258  1.00  0.00     0.051 C 
HETATM   14  C   UNL     1      30.729  43.720  56.253  1.00  0.00     0.012 A 
HETATM   15  C   UNL     1      31.766  43.201  57.184  1.00  0.00     0.068 C 
HETATM   16  H   UNL     1      30.648  42.073  54.919  1.00  0.00     0.166 HD
ENDBRANCH   1   5
BRANCH   2  17
HETATM   17  C   UNL     1      25.743  47.284  50.589  1.00  0.00     0.037 A 
HETATM   18  C   UNL     1      24.357  47.104  50.506  1.00  0.00     0.061 A 
HETATM   19  C   UNL     1      23.670  47.910  49.625  1.00  0.00     0.065 A 
HETATM   20  C   UNL     1      24.300  48.878  48.849  1.00  0.00     0.063 A 
HETATM   21  N   UNL     1      22.312  47.939  49.324  1.00  0.00    -0.306 N 
HETATM   22  N   UNL     1      23.333  49.504  48.073  1.00  0.00    -0.307 N 
HETATM   23  C   UNL     1      25.654  49.089  48.909  1.00  0.00     0.034 A 
HETATM   24  C   UNL     1      22.086  48.926  48.355  1.00  0.00     0.325 A 
HETATM   25  H   UNL     1      23.466  50.242  47.403  1.00  0.00     0.170 HD
HETATM   26  O   UNL     1      21.017  49.225  47.851  1.00  0.00    -0.247 OA
HETATM   27  C   UNL     1      26.377  48.275  49.791  1.00  0.00     0.032 A 
HETATM   28  H   UNL     1      21.592  47.354  49.715  1.00  0.00     0.170 HD
ENDBRANCH   2  17
TORSDOF 2
ENDMDL
MODEL 3
REMARK VINA RESULT:      -9.4      1.395      2.200
REMARK  2 active torsions:
REMARK  status: ('A' for Active; 'I' for Inactive)
REMARK    1  A    between atoms: C_7  and  C_8 
REMARK       I    between atoms: C_8  and  N_9 
REMARK    2  A    between atoms: N_9  and  C_10 
ROOT
HETATM    1  C   UNL     1      26.214  46.687  53.503  1.00  0.00     0.256 C 
HETATM    2  N   UNL     1      26.154  45.930  52.345  1.00  0.00    -0.323 N 
HETATM    3  O   UNL     1      25.455  47.598  53.812  1.00  0.00    -0.267 OA
HETATM    4  H   UNL     1      26.814  45.170  52.254  1.00  0.00     0.169 HD
ENDROOT
BRANCH   1   5
HETATM    5  C   UNL     1      27.295  46.311  54.466  1.00  0.00     0.033 A 
HETATM    6  C   UNL     1      27.417  47.070  55.636  1.00  0.00     0.019 A 
HETATM    7  C   UNL     1      28.389  46.775  56.596  1.00  0.00     0.031 A 
HETATM    8  C   UNL     1      29.237  45.692  56.344  1.00  0.00     0.043 A 
HETATM    9  C   UNL     1      29.161  44.920  55.187  1.00  0.00    -0.001 A 
HETATM   10  N   UNL     1      30.265  45.184  57.102  1.00  0.00    -0.359 N 
HETATM   11  C   UNL     1      30.177  43.914  55.274  1.00  0.00    -0.027 A 
HETATM   12  C   UNL     1      28.180  45.246  54.223  1.00  0.00     0.031 A 
HETATM   13  C   UNL     1      30.475  42.856  54.270  1.00  0.00     0.051 C 
HETATM   14  C   UNL     1      30.842  44.111  56.474  1.00  0.00     0.012 A 
HETATM   15  C   UNL     1      31.981  43.373  57.083  1.00  0.00     0.068 C 
HETATM   16  H   UNL     1      30.550  45.557  57.997  1.00  0.00     0.166 HD
ENDBRANCH   1   5
BRANCH   2  17
HETATM   17  C   UNL     1      25.214  46.045  51.295  1.00  0.00     0.037 A 
HETATM   18  C   UNL     1      24.892  47.256  50.672  1.00  0.00     0.061 A 
HETATM   19  C   UNL     1      23.937  47.219  49.680  1.00  0.00     0.065 A 
HETATM   20  C   UNL     1      23.313  46.039  49.285  1.00  0.00     0.063 A 
HETATM   21  N   UNL     1      23.413  48.256  48.915  1.00  0.00    -0.306 N 
HETATM   22  N   UNL     1      22.409  46.347  48.277  1.00  0.00    -0.307 N 
HETATM   23  C   UNL     1      23.608  44.832  49.866  1.00  0.00     0.034 A 
HETATM   24  C   UNL     1      22.456  47.729  48.037  1.00  0.00     0.325 A 
HETATM   25  H   UNL     1      21.797  45.717  47.786  1.00  0.00     0.170 HD
HETATM   26  O   UNL     1      21.791  48.347  47.224  1.00  0.00    -0.247 OA
HETATM   27  C   UNL     1      24.570  44.845  50.885  1.00  0.00     0.032 A 
HETATM   28  H   UNL     1      23.656  49.232  48.968  1.00  0.00     0.170 HD
ENDBRANCH   2  17
TORSDOF 2
ENDMDL
MODEL 4
REMARK VINA RESULT:      -8.9      4.027      4.898
REMARK  2 active torsions:
REMARK  status: ('A' for Active; 'I' for Inactive)
REMARK    1  A    between atoms: C_7  and  C_8 
REMARK       I    between atoms: C_8  and  N_9 
REMARK    2  A    between atoms: N_9  and  C_10 
ROOT
HETATM    1  C   UNL     1      27.465  43.573  51.650  1.00  0.00     0.256 C 
HETATM    2  N   UNL     1      26.496  42.587  51.738  1.00  0.00    -0.323 N 
HETATM    3  O   UNL     1      27.644  44.328  50.701  1.00  0.00    -0.267 OA
HETATM    4  H   UNL     1      26.430  42.080  52.609  1.00  0.00     0.169 HD
ENDROOT
BRANCH   1   5
HETATM    5  C   UNL     1      28.335  43.734  52.856  1.00  0.00     0.033 A 
HETATM    6  C   UNL     1      29.433  42.874  52.985  1.00  0.00     0.019 A 
HETATM    7  C   UNL     1      30.305  42.968  54.072  1.00  0.00     0.031 A 
HETATM    8  C   UNL     1      30.041  43.954  55.029  1.00  0.00     0.043 A 
HETATM    9  C   UNL     1      28.953  44.819  54.947  1.00  0.00    -0.001 A 
HETATM   10  N   UNL     1      30.723  44.268  56.180  1.00  0.00    -0.359 N 
HETATM   11  C   UNL     1      29.003  45.681  56.091  1.00  0.00    -0.027 A 
HETATM   12  C   UNL     1      28.075  44.696  53.847  1.00  0.00     0.031 A 
HETATM   13  C   UNL     1      28.047  46.770  56.431  1.00  0.00     0.051 C 
HETATM   14  C   UNL     1      30.113  45.308  56.833  1.00  0.00     0.012 A 
HETATM   15  C   UNL     1      30.650  45.847  58.110  1.00  0.00     0.068 C 
HETATM   16  H   UNL     1      31.556  43.791  56.495  1.00  0.00     0.166 HD
ENDBRANCH   1   5
BRANCH   2  17
HETATM   17  C   UNL     1      25.523  42.254  50.767  1.00  0.00     0.037 A 
HETATM   18  C   UNL     1      25.697  41.248  49.809  1.00  0.00     0.061 A 
HETATM   19  C   UNL     1      24.672  41.052  48.910  1.00  0.00     0.065 A 
HETATM   20  C   UNL     1      23.498  41.800  48.939  1.00  0.00     0.063 A 
HETATM   21  N   UNL     1      24.579  40.151  47.854  1.00  0.00    -0.306 N 
HETATM   22  N   UNL     1      22.682  41.359  47.904  1.00  0.00    -0.307 N 
HETATM   23  C   UNL     1      23.288  42.787  49.867  1.00  0.00     0.034 A 
HETATM   24  C   UNL     1      23.345  40.333  47.215  1.00  0.00     0.325 A 
HETATM   25  H   UNL     1      21.770  41.700  47.653  1.00  0.00     0.170 HD
HETATM   26  O   UNL     1      22.927  39.722  46.247  1.00  0.00    -0.247 OA
HETATM   27  C   UNL     1      24.321  43.012  50.788  1.00  0.00     0.032 A 
HETATM   28  H   UNL     1      25.271  39.478  47.569  1.00  0.00     0.170 HD
ENDBRANCH   2  17
TORSDOF 2
ENDMDL
MODEL 5
REMARK VINA RESULT:      -8.8      5.308      6.945
REMARK  2 active torsions:
REMARK  status: ('A' for Active; 'I' for Inactive)
REMARK    1  A    between atoms: C_7  and  C_8 
REMARK       I    between atoms: C_8  and  N_9 
REMARK    2  A    between atoms: N_9  and  C_10 
ROOT
HETATM    1  C   UNL     1      28.573  41.493  52.237  1.00  0.00     0.256 C 
HETATM    2  N   UNL     1      27.799  41.737  51.114  1.00  0.00    -0.323 N 
HETATM    3  O   UNL     1      29.170  40.453  52.492  1.00  0.00    -0.267 OA
HETATM    4  H   UNL     1      27.415  42.666  51.011  1.00  0.00     0.169 HD
ENDROOT
BRANCH   1   5
HETATM    5  C   UNL     1      28.705  42.636  53.192  1.00  0.00     0.033 A 
HETATM    6  C   UNL     1      27.822  43.713  53.044  1.00  0.00     0.019 A 
HETATM    7  C   UNL     1      27.866  44.813  53.905  1.00  0.00     0.031 A 
HETATM    8  C   UNL     1      28.827  44.799  54.921  1.00  0.00     0.043 A 
HETATM    9  C   UNL     1      29.734  43.756  55.095  1.00  0.00    -0.001 A 
HETATM   10  N   UNL     1      29.091  45.732  55.895  1.00  0.00    -0.359 N 
HETATM   11  C   UNL     1      30.557  44.086  56.220  1.00  0.00    -0.027 A 
HETATM   12  C   UNL     1      29.681  42.661  54.203  1.00  0.00     0.031 A 
HETATM   13  C   UNL     1      31.666  43.270  56.785  1.00  0.00     0.051 C 
HETATM   14  C   UNL     1      30.130  45.319  56.689  1.00  0.00     0.012 A 
HETATM   15  C   UNL     1      30.618  46.146  57.824  1.00  0.00     0.068 C 
HETATM   16  H   UNL     1      28.586  46.601  56.002  1.00  0.00     0.166 HD
ENDBRANCH   1   5
BRANCH   2  17
HETATM   17  C   UNL     1      27.544  40.853  50.041  1.00  0.00     0.037 A 
HETATM   18  C   UNL     1      26.880  39.629  50.187  1.00  0.00     0.061 A 
HETATM   19  C   UNL     1      26.726  38.859  49.056  1.00  0.00     0.065 A 
HETATM   20  C   UNL     1      27.190  39.262  47.806  1.00  0.00     0.063 A 
HETATM   21  N   UNL     1      26.134  37.608  48.908  1.00  0.00    -0.306 N 
HETATM   22  N   UNL     1      26.881  38.264  46.891  1.00  0.00    -0.307 N 
HETATM   23  C   UNL     1      27.836  40.457  47.623  1.00  0.00     0.034 A 
HETATM   24  C   UNL     1      26.225  37.223  47.563  1.00  0.00     0.325 A 
HETATM   25  H   UNL     1      27.087  38.249  45.906  1.00  0.00     0.170 HD
HETATM   26  O   UNL     1      25.819  36.184  47.072  1.00  0.00    -0.247 OA
HETATM   27  C   UNL     1      28.015  41.255  48.761  1.00  0.00     0.032 A 
HETATM   28  H   UNL     1      25.711  37.049  49.630  1.00  0.00     0.170 HD
ENDBRANCH   2  17
TORSDOF 2
ENDMDL
MODEL 6
REMARK VINA RESULT:      -8.7      5.574      8.951
REMARK  2 active torsions:
REMARK  status: ('A' for Active; 'I' for Inactive)
REMARK    1  A    between atoms: C_7  and  C_8 
REMARK       I    between atoms: C_8  and  N_9 
REMARK    2  A    between atoms: N_9  and  C_10 
ROOT
HETATM    1  C   UNL     1      28.608  40.972  52.577  1.00  0.00     0.256 C 
HETATM    2  N   UNL     1      29.424  42.091  52.622  1.00  0.00    -0.323 N 
HETATM    3  O   UNL     1      27.743  40.674  53.393  1.00  0.00    -0.267 OA
HETATM    4  H   UNL     1      30.052  42.236  51.844  1.00  0.00     0.169 HD
ENDROOT
BRANCH   1   5
HETATM    5  C   UNL     1      28.796  40.082  51.389  1.00  0.00     0.033 A 
HETATM    6  C   UNL     1      29.562  38.922  51.560  1.00  0.00     0.019 A 
HETATM    7  C   UNL     1      29.772  38.029  50.507  1.00  0.00     0.031 A 
HETATM    8  C   UNL     1      29.189  38.336  49.274  1.00  0.00     0.043 A 
HETATM    9  C   UNL     1      28.433  39.485  49.056  1.00  0.00    -0.001 A 
HETATM   10  N   UNL     1      29.229  37.646  48.085  1.00  0.00    -0.359 N 
HETATM   11  C   UNL     1      28.005  39.465  47.688  1.00  0.00    -0.027 A 
HETATM   12  C   UNL     1      28.246  40.383  50.131  1.00  0.00     0.031 A 
HETATM   13  C   UNL     1      27.171  40.486  46.999  1.00  0.00     0.051 C 
HETATM   14  C   UNL     1      28.520  38.311  47.118  1.00  0.00     0.012 A 
HETATM   15  C   UNL     1      28.402  37.778  45.735  1.00  0.00     0.068 C 
HETATM   16  H   UNL     1      29.719  36.772  47.951  1.00  0.00     0.166 HD
ENDBRANCH   1   5
BRANCH   2  17
HETATM   17  C   UNL     1      29.426  43.109  53.602  1.00  0.00     0.037 A 
HETATM   18  C   UNL     1      30.334  43.159  54.666  1.00  0.00     0.061 A 
HETATM   19  C   UNL     1      30.199  44.198  55.560  1.00  0.00     0.065 A 
HETATM   20  C   UNL     1      29.220  45.178  55.427  1.00  0.00     0.063 A 
HETATM   21  N   UNL     1      30.936  44.484  56.705  1.00  0.00    -0.306 N 
HETATM   22  N   UNL     1      29.354  46.067  56.486  1.00  0.00    -0.307 N 
HETATM   23  C   UNL     1      28.318  45.168  54.393  1.00  0.00     0.034 A 
HETATM   24  C   UNL     1      30.419  45.645  57.296  1.00  0.00     0.325 A 
HETATM   25  H   UNL     1      28.794  46.880  56.680  1.00  0.00     0.170 HD
HETATM   26  O   UNL     1      30.813  46.184  58.315  1.00  0.00    -0.247 OA
HETATM   27  C   UNL     1      28.428  44.114  53.475  1.00  0.00     0.032 A 
HETATM   28  H   UNL     1      31.710  43.957  57.076  1.00  0.00     0.170 HD
ENDBRANCH   2  17
TORSDOF 2
ENDMDL
MODEL 7
REMARK VINA RESULT:      -8.7      2.780      9.063
REMARK  2 active torsions:
REMARK  status: ('A' for Active; 'I' for Inactive)
REMARK    1  A    between atoms: C_7  and  C_8 
REMARK       I    between atoms: C_8  and  N_9 
REMARK    2  A    between atoms: N_9  and  C_10 
ROOT
HETATM    1  C   UNL     1      25.619  44.202  52.825  1.00  0.00     0.256 C 
HETATM    2  N   UNL     1      26.962  44.516  52.700  1.00  0.00    -0.323 N 
HETATM    3  O   UNL     1      25.021  43.988  53.873  1.00  0.00    -0.267 OA
HETATM    4  H   UNL     1      27.303  44.726  51.772  1.00  0.00     0.169 HD
ENDROOT
BRANCH   1   5
HETATM    5  C   UNL     1      24.841  44.165  51.548  1.00  0.00     0.033 A 
HETATM    6  C   UNL     1      24.532  42.909  51.010  1.00  0.00     0.019 A 
HETATM    7  C   UNL     1      23.795  42.785  49.830  1.00  0.00     0.031 A 
HETATM    8  C   UNL     1      23.378  43.963  49.203  1.00  0.00     0.043 A 
HETATM    9  C   UNL     1      23.676  45.232  49.694  1.00  0.00    -0.001 A 
HETATM   10  N   UNL     1      22.650  44.136  48.050  1.00  0.00    -0.359 N 
HETATM   11  C   UNL     1      23.092  46.187  48.799  1.00  0.00    -0.027 A 
HETATM   12  C   UNL     1      24.435  45.334  50.882  1.00  0.00     0.031 A 
HETATM   13  C   UNL     1      23.146  47.670  48.917  1.00  0.00     0.051 C 
HETATM   14  C   UNL     1      22.467  45.470  47.791  1.00  0.00     0.012 A 
HETATM   15  C   UNL     1      21.708  45.935  46.599  1.00  0.00     0.068 C 
HETATM   16  H   UNL     1      22.304  43.379  47.477  1.00  0.00     0.166 HD
ENDBRANCH   1   5
BRANCH   2  17
HETATM   17  C   UNL     1      27.908  44.658  53.740  1.00  0.00     0.037 A 
HETATM   18  C   UNL     1      28.839  43.669  54.082  1.00  0.00     0.061 A 
HETATM   19  C   UNL     1      29.683  43.938  55.136  1.00  0.00     0.065 A 
HETATM   20  C   UNL     1      29.643  45.137  55.841  1.00  0.00     0.063 A 
HETATM   21  N   UNL     1      30.678  43.144  55.700  1.00  0.00    -0.306 N 
HETATM   22  N   UNL     1      30.612  45.085  56.835  1.00  0.00    -0.307 N 
HETATM   23  C   UNL     1      28.752  46.132  55.531  1.00  0.00     0.034 A 
HETATM   24  C   UNL     1      31.264  43.845  56.763  1.00  0.00     0.325 A 
HETATM   25  H   UNL     1      30.831  45.791  57.517  1.00  0.00     0.170 HD
HETATM   26  O   UNL     1      32.163  43.455  57.487  1.00  0.00    -0.247 OA
HETATM   27  C   UNL     1      27.874  45.879  54.467  1.00  0.00     0.032 A 
HETATM   28  H   UNL     1      30.945  42.216  55.417  1.00  0.00     0.170 HD
ENDBRANCH   2  17
TORSDOF 2
ENDMDL
MODEL 8
REMARK VINA RESULT:      -8.6      4.883      5.740
REMARK  2 active torsions:
REMARK  status: ('A' for Active; 'I' for Inactive)
REMARK    1  A    between atoms: C_7  and  C_8 
REMARK       I    between atoms: C_8  and  N_9 
REMARK    2  A    between atoms: N_9  and  C_10 
ROOT
HETATM    1  C   UNL     1      28.447  42.193  52.253  1.00  0.00     0.256 C 
HETATM    2  N   UNL     1      27.392  42.406  51.381  1.00  0.00    -0.323 N 
HETATM    3  O   UNL     1      29.250  41.268  52.204  1.00  0.00    -0.267 OA
HETATM    4  H   UNL     1      26.848  43.247  51.511  1.00  0.00     0.169 HD
ENDROOT
BRANCH   1   5
HETATM    5  C   UNL     1      28.622  43.225  53.321  1.00  0.00     0.033 A 
HETATM    6  C   UNL     1      27.751  44.322  53.314  1.00  0.00     0.019 A 
HETATM    7  C   UNL     1      27.835  45.323  54.286  1.00  0.00     0.031 A 
HETATM    8  C   UNL     1      28.823  45.189  55.266  1.00  0.00     0.043 A 
HETATM    9  C   UNL     1      29.719  44.123  55.302  1.00  0.00    -0.001 A 
HETATM   10  N   UNL     1      29.126  46.009  56.327  1.00  0.00    -0.359 N 
HETATM   11  C   UNL     1      30.576  44.320  56.433  1.00  0.00    -0.027 A 
HETATM   12  C   UNL     1      29.625  43.130  54.301  1.00  0.00     0.031 A 
HETATM   13  C   UNL     1      31.688  43.436  56.875  1.00  0.00     0.051 C 
HETATM   14  C   UNL     1      30.180  45.501  57.042  1.00  0.00     0.012 A 
HETATM   15  C   UNL     1      30.711  46.196  58.245  1.00  0.00     0.068 C 
HETATM   16  H   UNL     1      28.637  46.867  56.541  1.00  0.00     0.166 HD
ENDBRANCH   1   5
BRANCH   2  17
HETATM   17  C   UNL     1      27.029  41.614  50.267  1.00  0.00     0.037 A 
HETATM   18  C   UNL     1      27.039  42.082  48.948  1.00  0.00     0.061 A 
HETATM   19  C   UNL     1      26.635  41.204  47.967  1.00  0.00     0.065 A 
HETATM   20  C   UNL     1      26.241  39.899  48.245  1.00  0.00     0.063 A 
HETATM   21  N   UNL     1      26.528  41.399  46.593  1.00  0.00    -0.306 N 
HETATM   22  N   UNL     1      25.894  39.289  47.047  1.00  0.00    -0.307 N 
HETATM   23  C   UNL     1      26.226  39.402  49.523  1.00  0.00     0.034 A 
HETATM   24  C   UNL     1      26.063  40.214  46.006  1.00  0.00     0.325 A 
HETATM   25  H   UNL     1      25.562  38.349  46.909  1.00  0.00     0.170 HD
HETATM   26  O   UNL     1      25.845  40.021  44.822  1.00  0.00    -0.247 OA
HETATM   27  C   UNL     1      26.623  40.279  50.542  1.00  0.00     0.032 A 
HETATM   28  H   UNL     1      26.733  42.241  46.082  1.00  0.00     0.170 HD
ENDBRANCH   2  17
TORSDOF 2
ENDMDL
MODEL 9
REMARK VINA RESULT:      -8.5      2.415      9.436
REMARK  2 active torsions:
REMARK  status: ('A' for Active; 'I' for Inactive)
REMARK    1  A    between atoms: C_7  and  C_8 
REMARK       I    between atoms: C_8  and  N_9 
REMARK    2  A    between atoms: N_9  and  C_10 
ROOT
HETATM    1  C   UNL     1      25.219  47.262  50.710  1.00  0.00     0.256 C 
HETATM    2  N   UNL     1      25.133  46.285  51.689  1.00  0.00    -0.323 N 
HETATM    3  O   UNL     1      26.177  47.997  50.504  1.00  0.00    -0.267 OA
HETATM    4  H   UNL     1      24.300  45.714  51.701  1.00  0.00     0.169 HD
ENDROOT
BRANCH   1   5
HETATM    5  C   UNL     1      24.029  47.382  49.811  1.00  0.00     0.033 A 
HETATM    6  C   UNL     1      23.552  46.214  49.205  1.00  0.00     0.019 A 
HETATM    7  C   UNL     1      22.436  46.235  48.364  1.00  0.00     0.031 A 
HETATM    8  C   UNL     1      21.812  47.468  48.151  1.00  0.00     0.043 A 
HETATM    9  C   UNL     1      22.262  48.657  48.722  1.00  0.00    -0.001 A 
HETATM   10  N   UNL     1      20.713  47.778  47.386  1.00  0.00    -0.359 N 
HETATM   11  C   UNL     1      21.387  49.703  48.282  1.00  0.00    -0.027 A 
HETATM   12  C   UNL     1      23.402  48.614  49.556  1.00  0.00     0.031 A 
HETATM   13  C   UNL     1      21.472  51.145  48.637  1.00  0.00     0.051 C 
HETATM   14  C   UNL     1      20.441  49.120  47.454  1.00  0.00     0.012 A 
HETATM   15  C   UNL     1      19.298  49.720  46.716  1.00  0.00     0.068 C 
HETATM   16  H   UNL     1      20.186  47.103  46.849  1.00  0.00     0.166 HD
ENDBRANCH   1   5
BRANCH   2  17
HETATM   17  C   UNL     1      26.122  45.935  52.637  1.00  0.00     0.037 A 
HETATM   18  C   UNL     1      26.391  46.684  53.789  1.00  0.00     0.061 A 
HETATM   19  C   UNL     1      27.401  46.235  54.609  1.00  0.00     0.065 A 
HETATM   20  C   UNL     1      28.130  45.081  54.336  1.00  0.00     0.063 A 
HETATM   21  N   UNL     1      27.893  46.780  55.791  1.00  0.00    -0.306 N 
HETATM   22  N   UNL     1      29.067  44.914  55.348  1.00  0.00    -0.307 N 
HETATM   23  C   UNL     1      27.890  44.317  53.223  1.00  0.00     0.034 A 
HETATM   24  C   UNL     1      28.935  45.969  56.263  1.00  0.00     0.325 A 
HETATM   25  H   UNL     1      29.749  44.180  55.439  1.00  0.00     0.170 HD
HETATM   26  O   UNL     1      29.600  46.145  57.269  1.00  0.00    -0.247 OA
HETATM   27  C   UNL     1      26.873  44.759  52.366  1.00  0.00     0.032 A 
HETATM   28  H   UNL     1      27.578  47.620  56.248  1.00  0.00     0.170 HD
ENDBRANCH   2  17
TORSDOF 2
ENDMDL
MODEL 10
REMARK VINA RESULT:      -8.4      4.956      9.151
REMARK  2 active torsions:
REMARK  status: ('A' for Active; 'I' for Inactive)
REMARK    1  A    between atoms: C_7  and  C_8 
REMARK       I    between atoms: C_8  and  N_9 
REMARK    2  A    between atoms: N_9  and  C_10 
ROOT
HETATM    1  C   UNL     1      28.017  41.889  52.124  1.00  0.00     0.256 C 
HETATM    2  N   UNL     1      28.717  43.071  52.307  1.00  0.00    -0.323 N 
HETATM    3  O   UNL     1      27.605  41.148  53.009  1.00  0.00    -0.267 OA
HETATM    4  H   UNL     1      28.941  43.608  51.481  1.00  0.00     0.169 HD
ENDROOT
BRANCH   1   5
HETATM    5  C   UNL     1      27.719  41.528  50.704  1.00  0.00     0.033 A 
HETATM    6  C   UNL     1      26.891  42.389  49.974  1.00  0.00     0.019 A 
HETATM    7  C   UNL     1      26.576  42.135  48.636  1.00  0.00     0.031 A 
HETATM    8  C   UNL     1      27.119  40.986  48.053  1.00  0.00     0.043 A 
HETATM    9  C   UNL     1      27.935  40.095  48.746  1.00  0.00    -0.001 A 
HETATM   10  N   UNL     1      26.981  40.498  46.775  1.00  0.00    -0.359 N 
HETATM   11  C   UNL     1      28.298  39.048  47.837  1.00  0.00    -0.027 A 
HETATM   12  C   UNL     1      28.228  40.364  50.102  1.00  0.00     0.031 A 
HETATM   13  C   UNL     1      29.162  37.872  48.128  1.00  0.00     0.051 C 
HETATM   14  C   UNL     1      27.685  39.331  46.626  1.00  0.00     0.012 A 
HETATM   15  C   UNL     1      27.705  38.594  45.334  1.00  0.00     0.068 C 
HETATM   16  H   UNL     1      26.432  40.943  46.053  1.00  0.00     0.166 HD
ENDBRANCH   1   5
BRANCH   2  17
HETATM   17  C   UNL     1      29.091  43.662  53.536  1.00  0.00     0.037 A 
HETATM   18  C   UNL     1      30.137  43.190  54.336  1.00  0.00     0.061 A 
HETATM   19  C   UNL     1      30.371  43.853  55.521  1.00  0.00     0.065 A 
HETATM   20  C   UNL     1      29.622  44.955  55.922  1.00  0.00     0.063 A 
HETATM   21  N   UNL     1      31.317  43.597  56.509  1.00  0.00    -0.306 N 
HETATM   22  N   UNL     1      30.106  45.379  57.153  1.00  0.00    -0.307 N 
HETATM   23  C   UNL     1      28.595  45.452  55.161  1.00  0.00     0.034 A 
HETATM   24  C   UNL     1      31.163  44.539  57.535  1.00  0.00     0.325 A 
HETATM   25  H   UNL     1      29.775  46.147  57.712  1.00  0.00     0.170 HD
HETATM   26  O   UNL     1      31.815  44.614  58.562  1.00  0.00    -0.247 OA
HETATM   27  C   UNL     1      28.331  44.788  53.955  1.00  0.00     0.032 A 
HETATM   28  H   UNL     1      32.003  42.860  56.515  1.00  0.00     0.170 HD
ENDBRANCH   2  17
TORSDOF 2
ENDMDL
