MODEL 1
REMARK VINA RESULT:      -9.1      0.000      0.000
REMARK  3 active torsions:
REMARK  status: ('A' for Active; 'I' for Inactive)
REMARK    1  A    between atoms: C_6  and  N_7 
REMARK       I    between atoms: N_7  and  C_8 
REMARK    2  A    between atoms: C_8  and  C_9 
REMARK    3  A    between atoms: C_9  and  C_10 
ROOT
HETATM    1  C   UNL     1      26.602  42.795  51.165  1.00  0.00     0.286 C 
HETATM    2  N   UNL     1      25.471  43.382  52.007  1.00  0.00    -0.056 N 
HETATM    3  H   UNL     1      24.739  42.663  52.059  1.00  0.00     0.278 HD
HETATM    4  H   UNL     1      25.801  43.452  52.994  1.00  0.00     0.278 HD
HETATM    5  C   UNL     1      24.839  44.657  51.547  1.00  0.00     0.209 C 
HETATM    6  C   UNL     1      24.478  44.529  50.052  1.00  0.00     0.115 C 
HETATM    7  N   UNL     1      25.615  44.077  49.256  1.00  0.00    -0.353 N 
HETATM    8  C   UNL     1      26.510  43.123  49.664  1.00  0.00     0.249 C 
HETATM    9  O   UNL     1      27.257  42.600  48.842  1.00  0.00    -0.271 OA
HETATM   10  C   UNL     1      25.742  45.854  51.846  1.00  0.00     0.035 C 
HETATM   11  C   UNL     1      25.116  47.145  51.320  1.00  0.00     0.002 C 
HETATM   12  C   UNL     1      24.802  47.046  49.829  1.00  0.00     0.002 C 
HETATM   13  C   UNL     1      23.909  45.845  49.512  1.00  0.00     0.027 C 
HETATM   14  H   UNL     1      25.574  44.178  48.242  1.00  0.00     0.163 HD
ENDROOT
BRANCH   1  15
HETATM   15  C   UNL     1      28.013  43.160  51.667  1.00  0.00     0.146 C 
BRANCH  15  16
HETATM   16  C   UNL     1      28.725  42.015  52.332  1.00  0.00     0.224 C 
HETATM   17  N   UNL     1      29.357  42.128  53.526  1.00  0.00    -0.327 N 
HETATM   18  H   UNL     1      29.802  41.251  53.786  1.00  0.00     0.169 HD
HETATM   19  O   UNL     1      28.697  40.903  51.787  1.00  0.00    -0.273 OA
BRANCH  17  20
HETATM   20  C   UNL     1      29.536  43.167  54.462  1.00  0.00     0.035 A 
HETATM   21  C   UNL     1      28.741  44.306  54.592  1.00  0.00     0.037 A 
HETATM   22  C   UNL     1      29.026  45.293  55.561  1.00  0.00    -0.054 A 
HETATM   23  C   UNL     1      30.103  45.111  56.447  1.00  0.00    -0.056 A 
HETATM   24  C   UNL     1      28.139  46.508  55.653  1.00  0.00     0.049 C 
HETATM   25  C   UNL     1      30.443  46.126  57.505  1.00  0.00     0.049 C 
HETATM   26  C   UNL     1      30.897  43.968  56.319  1.00  0.00     0.009 A 
HETATM   27  C   UNL     1      30.614  43.011  55.341  1.00  0.00     0.030 A 
ENDBRANCH  17  20
ENDBRANCH  15  16
ENDBRANCH   1  15
TORSDOF 3
ENDMDL
MODEL 2
REMARK VINA RESULT:      -8.8      2.374      3.998
REMARK  3 active torsions:
REMARK  status: ('A' for Active; 'I' for Inactive)
REMARK    1  A    between atoms: C_6  and  N_7 
REMARK       I    between atoms: N_7  and  C_8 
REMARK    2  A    between atoms: C_8  and  C_9 
REMARK    3  A    between atoms: C_9  and  C_10 
ROOT
HETATM    1  C   UNL     1      27.191  42.163  52.274  1.00  0.00     0.286 C 
HETATM    2  N   UNL     1      25.912  42.091  51.442  1.00  0.00    -0.056 N 
HETATM    3  H   UNL     1      25.199  41.648  52.036  1.00  0.00     0.278 HD
HETATM    4  H   UNL     1      25.547  43.060  51.320  1.00  0.00     0.278 HD
HETATM    5  C   UNL     1      25.957  41.353  50.142  1.00  0.00     0.209 C 
HETATM    6  C   UNL     1      26.611  39.973  50.370  1.00  0.00     0.115 C 
HETATM    7  N   UNL     1      27.889  40.085  51.065  1.00  0.00    -0.353 N 
HETATM    8  C   UNL     1      28.132  40.958  52.093  1.00  0.00     0.249 C 
HETATM    9  O   UNL     1      29.121  40.801  52.803  1.00  0.00    -0.271 OA
HETATM   10  C   UNL     1      26.662  42.180  49.067  1.00  0.00     0.035 C 
HETATM   11  C   UNL     1      26.757  41.396  47.760  1.00  0.00     0.002 C 
HETATM   12  C   UNL     1      27.448  40.050  47.965  1.00  0.00     0.002 C 
HETATM   13  C   UNL     1      26.762  39.215  49.047  1.00  0.00     0.027 C 
HETATM   14  H   UNL     1      28.520  39.284  51.064  1.00  0.00     0.163 HD
ENDROOT
BRANCH   1  15
HETATM   15  C   UNL     1      27.999  43.459  52.072  1.00  0.00     0.146 C 
BRANCH  15  16
HETATM   16  C   UNL     1      27.367  44.663  52.712  1.00  0.00     0.224 C 
HETATM   17  N   UNL     1      27.787  45.182  53.892  1.00  0.00    -0.327 N 
HETATM   18  H   UNL     1      27.209  45.973  54.168  1.00  0.00     0.169 HD
HETATM   19  O   UNL     1      26.445  45.237  52.115  1.00  0.00    -0.273 OA
BRANCH  17  20
HETATM   20  C   UNL     1      28.818  44.874  54.803  1.00  0.00     0.035 A 
HETATM   21  C   UNL     1      29.144  45.591  55.953  1.00  0.00     0.037 A 
HETATM   22  C   UNL     1      30.213  45.194  56.787  1.00  0.00    -0.054 A 
HETATM   23  C   UNL     1      30.939  44.029  56.485  1.00  0.00    -0.056 A 
HETATM   24  C   UNL     1      30.527  46.012  58.014  1.00  0.00     0.049 C 
HETATM   25  C   UNL     1      32.079  43.556  57.346  1.00  0.00     0.049 C 
HETATM   26  C   UNL     1      30.610  43.308  55.334  1.00  0.00     0.009 A 
HETATM   27  C   UNL     1      29.563  43.726  54.507  1.00  0.00     0.030 A 
ENDBRANCH  17  20
ENDBRANCH  15  16
ENDBRANCH   1  15
TORSDOF 3
ENDMDL
MODEL 3
REMARK VINA RESULT:      -8.7      2.422      4.069
REMARK  3 active torsions:
REMARK  status: ('A' for Active; 'I' for Inactive)
REMARK    1  A    between atoms: C_6  and  N_7 
REMARK       I    between atoms: N_7  and  C_8 
REMARK    2  A    between atoms: C_8  and  C_9 
REMARK    3  A    between atoms: C_9  and  C_10 
ROOT
HETATM    1  C   UNL     1      24.987  45.510  51.750  1.00  0.00     0.286 C 
HETATM    2  N   UNL     1      24.842  45.260  50.250  1.00  0.00    -0.056 N 
HETATM    3  H   UNL     1      23.852  45.408  50.021  1.00  0.00     0.278 HD
HETATM    4  H   UNL     1      25.319  46.036  49.742  1.00  0.00     0.278 HD
HETATM    5  C   UNL     1      25.248  43.922  49.717  1.00  0.00     0.209 C 
HETATM    6  C   UNL     1      24.601  42.819  50.581  1.00  0.00     0.115 C 
HETATM    7  N   UNL     1      24.855  43.024  52.004  1.00  0.00    -0.353 N 
HETATM    8  C   UNL     1      24.844  44.248  52.620  1.00  0.00     0.249 C 
HETATM    9  O   UNL     1      24.786  44.311  53.844  1.00  0.00    -0.271 OA
HETATM   10  C   UNL     1      26.770  43.805  49.635  1.00  0.00     0.035 C 
HETATM   11  C   UNL     1      27.177  42.416  49.146  1.00  0.00     0.002 C 
HETATM   12  C   UNL     1      26.583  41.317  50.026  1.00  0.00     0.002 C 
HETATM   13  C   UNL     1      25.061  41.429  50.128  1.00  0.00     0.027 C 
HETATM   14  H   UNL     1      24.687  42.251  52.648  1.00  0.00     0.163 HD
ENDROOT
BRANCH   1  15
HETATM   15  C   UNL     1      26.286  46.239  52.143  1.00  0.00     0.146 C 
BRANCH  15  16
HETATM   16  C   UNL     1      26.169  47.023  53.420  1.00  0.00     0.224 C 
HETATM   17  N   UNL     1      26.931  46.778  54.513  1.00  0.00    -0.327 N 
HETATM   18  H   UNL     1      26.675  47.395  55.281  1.00  0.00     0.169 HD
HETATM   19  O   UNL     1      25.367  47.967  53.464  1.00  0.00    -0.273 OA
BRANCH  17  20
HETATM   20  C   UNL     1      27.971  45.876  54.818  1.00  0.00     0.035 A 
HETATM   21  C   UNL     1      28.220  44.659  54.185  1.00  0.00     0.037 A 
HETATM   22  C   UNL     1      29.287  43.827  54.587  1.00  0.00    -0.054 A 
HETATM   23  C   UNL     1      30.151  44.246  55.615  1.00  0.00    -0.056 A 
HETATM   24  C   UNL     1      29.505  42.517  53.873  1.00  0.00     0.049 C 
HETATM   25  C   UNL     1      31.309  43.403  56.074  1.00  0.00     0.049 C 
HETATM   26  C   UNL     1      29.904  45.468  56.247  1.00  0.00     0.009 A 
HETATM   27  C   UNL     1      28.830  46.270  55.852  1.00  0.00     0.030 A 
ENDBRANCH  17  20
ENDBRANCH  15  16
ENDBRANCH   1  15
TORSDOF 3
ENDMDL
MODEL 4
REMARK VINA RESULT:      -8.7      0.581      1.486
REMARK  3 active torsions:
REMARK  status: ('A' for Active; 'I' for Inactive)
REMARK    1  A    between atoms: C_6  and  N_7 
REMARK       I    between atoms: N_7  and  C_8 
REMARK    2  A    between atoms: C_8  and  C_9 
REMARK    3  A    between atoms: C_9  and  C_10 
ROOT
HETATM    1  C   UNL     1      26.457  42.677  51.005  1.00  0.00     0.286 C 
HETATM    2  N   UNL     1      25.441  43.313  51.951  1.00  0.00    -0.056 N 
HETATM    3  H   UNL     1      24.637  42.675  51.992  1.00  0.00     0.278 HD
HETATM    4  H   UNL     1      25.825  43.269  52.920  1.00  0.00     0.278 HD
HETATM    5  C   UNL     1      24.933  44.681  51.623  1.00  0.00     0.209 C 
HETATM    6  C   UNL     1      24.486  44.710  50.145  1.00  0.00     0.115 C 
HETATM    7  N   UNL     1      25.525  44.203  49.254  1.00  0.00    -0.353 N 
HETATM    8  C   UNL     1      26.328  43.130  49.539  1.00  0.00     0.249 C 
HETATM    9  O   UNL     1      26.971  42.596  48.640  1.00  0.00    -0.271 OA
HETATM   10  C   UNL     1      25.977  45.747  51.955  1.00  0.00     0.035 C 
HETATM   11  C   UNL     1      25.473  47.134  51.562  1.00  0.00     0.002 C 
HETATM   12  C   UNL     1      25.077  47.188  50.088  1.00  0.00     0.002 C 
HETATM   13  C   UNL     1      24.042  46.119  49.736  1.00  0.00     0.027 C 
HETATM   14  H   UNL     1      25.446  44.388  48.254  1.00  0.00     0.163 HD
ENDROOT
BRANCH   1  15
HETATM   15  C   UNL     1      27.923  42.847  51.450  1.00  0.00     0.146 C 
BRANCH  15  16
HETATM   16  C   UNL     1      28.491  41.626  52.116  1.00  0.00     0.224 C 
HETATM   17  N   UNL     1      29.123  41.661  53.315  1.00  0.00    -0.327 N 
HETATM   18  H   UNL     1      29.461  40.738  53.575  1.00  0.00     0.169 HD
HETATM   19  O   UNL     1      28.337  40.525  51.567  1.00  0.00    -0.273 OA
BRANCH  17  20
HETATM   20  C   UNL     1      29.415  42.671  54.255  1.00  0.00     0.035 A 
HETATM   21  C   UNL     1      30.457  42.658  55.182  1.00  0.00     0.037 A 
HETATM   22  C   UNL     1      30.645  43.724  56.089  1.00  0.00    -0.054 A 
HETATM   23  C   UNL     1      29.798  44.845  56.035  1.00  0.00    -0.056 A 
HETATM   24  C   UNL     1      31.783  43.654  57.075  1.00  0.00     0.049 C 
HETATM   25  C   UNL     1      29.962  46.012  56.971  1.00  0.00     0.049 C 
HETATM   26  C   UNL     1      28.757  44.859  55.103  1.00  0.00     0.009 A 
HETATM   27  C   UNL     1      28.570  43.787  54.227  1.00  0.00     0.030 A 
ENDBRANCH  17  20
ENDBRANCH  15  16
ENDBRANCH   1  15
TORSDOF 3
ENDMDL
MODEL 5
REMARK VINA RESULT:      -8.6      1.822      2.923
REMARK  3 active torsions:
REMARK  status: ('A' for Active; 'I' for Inactive)
REMARK    1  A    between atoms: C_6  and  N_7 
REMARK       I    between atoms: N_7  and  C_8 
REMARK    2  A    between atoms: C_8  and  C_9 
REMARK    3  A    between atoms: C_9  and  C_10 
ROOT
HETATM    1  C   UNL     1      26.589  45.365  51.191  1.00  0.00     0.286 C 
HETATM    2  N   UNL     1      26.516  44.665  49.836  1.00  0.00    -0.056 N 
HETATM    3  H   UNL     1      27.004  45.271  49.164  1.00  0.00     0.278 HD
HETATM    4  H   UNL     1      27.123  43.818  49.873  1.00  0.00     0.278 HD
HETATM    5  C   UNL     1      25.164  44.349  49.279  1.00  0.00     0.209 C 
HETATM    6  C   UNL     1      24.279  45.612  49.357  1.00  0.00     0.115 C 
HETATM    7  N   UNL     1      24.279  46.192  50.697  1.00  0.00    -0.353 N 
HETATM    8  C   UNL     1      25.386  46.275  51.500  1.00  0.00     0.249 C 
HETATM    9  O   UNL     1      25.372  47.016  52.479  1.00  0.00    -0.271 OA
HETATM   10  C   UNL     1      24.550  43.141  49.986  1.00  0.00     0.035 C 
HETATM   11  C   UNL     1      23.146  42.862  49.452  1.00  0.00     0.002 C 
HETATM   12  C   UNL     1      22.247  44.091  49.573  1.00  0.00     0.002 C 
HETATM   13  C   UNL     1      22.854  45.312  48.881  1.00  0.00     0.027 C 
HETATM   14  H   UNL     1      23.561  46.877  50.935  1.00  0.00     0.163 HD
ENDROOT
BRANCH   1  15
HETATM   15  C   UNL     1      26.809  44.411  52.380  1.00  0.00     0.146 C 
BRANCH  15  16
HETATM   16  C   UNL     1      27.892  43.397  52.140  1.00  0.00     0.224 C 
HETATM   17  N   UNL     1      28.956  43.238  52.965  1.00  0.00    -0.327 N 
HETATM   18  H   UNL     1      29.589  42.526  52.609  1.00  0.00     0.169 HD
HETATM   19  O   UNL     1      27.789  42.638  51.165  1.00  0.00    -0.273 OA
BRANCH  17  20
HETATM   20  C   UNL     1      29.374  43.832  54.174  1.00  0.00     0.035 A 
HETATM   21  C   UNL     1      30.396  43.378  55.006  1.00  0.00     0.037 A 
HETATM   22  C   UNL     1      30.719  44.049  56.206  1.00  0.00    -0.054 A 
HETATM   23  C   UNL     1      30.031  45.225  56.555  1.00  0.00    -0.056 A 
HETATM   24  C   UNL     1      31.829  43.509  57.071  1.00  0.00     0.049 C 
HETATM   25  C   UNL     1      30.343  45.984  57.816  1.00  0.00     0.049 C 
HETATM   26  C   UNL     1      29.009  45.682  55.719  1.00  0.00     0.009 A 
HETATM   27  C   UNL     1      28.688  44.995  54.546  1.00  0.00     0.030 A 
ENDBRANCH  17  20
ENDBRANCH  15  16
ENDBRANCH   1  15
TORSDOF 3
ENDMDL
MODEL 6
REMARK VINA RESULT:      -8.6      1.697      2.722
REMARK  3 active torsions:
REMARK  status: ('A' for Active; 'I' for Inactive)
REMARK    1  A    between atoms: C_6  and  N_7 
REMARK       I    between atoms: N_7  and  C_8 
REMARK    2  A    between atoms: C_8  and  C_9 
REMARK    3  A    between atoms: C_9  and  C_10 
ROOT
HETATM    1  C   UNL     1      26.887  43.697  52.010  1.00  0.00     0.286 C 
HETATM    2  N   UNL     1      27.393  43.563  50.575  1.00  0.00    -0.056 N 
HETATM    3  H   UNL     1      27.681  44.502  50.275  1.00  0.00     0.278 HD
HETATM    4  H   UNL     1      28.293  43.036  50.594  1.00  0.00     0.278 HD
HETATM    5  C   UNL     1      26.456  43.013  49.546  1.00  0.00     0.209 C 
HETATM    6  C   UNL     1      25.107  43.757  49.647  1.00  0.00     0.115 C 
HETATM    7  N   UNL     1      24.593  43.768  51.013  1.00  0.00    -0.353 N 
HETATM    8  C   UNL     1      25.371  43.939  52.127  1.00  0.00     0.249 C 
HETATM    9  O   UNL     1      24.844  44.216  53.200  1.00  0.00    -0.271 OA
HETATM   10  C   UNL     1      26.317  41.498  49.687  1.00  0.00     0.035 C 
HETATM   11  C   UNL     1      25.313  40.953  48.672  1.00  0.00     0.002 C 
HETATM   12  C   UNL     1      23.959  41.647  48.797  1.00  0.00     0.002 C 
HETATM   13  C   UNL     1      24.083  43.166  48.672  1.00  0.00     0.027 C 
HETATM   14  H   UNL     1      23.615  44.016  51.167  1.00  0.00     0.163 HD
ENDROOT
BRANCH   1  15
HETATM   15  C   UNL     1      27.275  42.520  52.925  1.00  0.00     0.146 C 
BRANCH  15  16
HETATM   16  C   UNL     1      28.703  42.081  52.763  1.00  0.00     0.224 C 
HETATM   17  N   UNL     1      29.719  42.570  53.516  1.00  0.00    -0.327 N 
HETATM   18  H   UNL     1      30.610  42.171  53.228  1.00  0.00     0.169 HD
HETATM   19  O   UNL     1      28.962  41.200  51.931  1.00  0.00    -0.273 OA
BRANCH  17  20
HETATM   20  C   UNL     1      29.814  43.491  54.579  1.00  0.00     0.035 A 
HETATM   21  C   UNL     1      28.987  44.592  54.793  1.00  0.00     0.037 A 
HETATM   22  C   UNL     1      29.188  45.459  55.890  1.00  0.00    -0.054 A 
HETATM   23  C   UNL     1      30.211  45.188  56.816  1.00  0.00    -0.056 A 
HETATM   24  C   UNL     1      28.268  46.640  56.069  1.00  0.00     0.049 C 
HETATM   25  C   UNL     1      30.460  46.073  58.008  1.00  0.00     0.049 C 
HETATM   26  C   UNL     1      31.037  44.082  56.604  1.00  0.00     0.009 A 
HETATM   27  C   UNL     1      30.840  43.246  55.501  1.00  0.00     0.030 A 
ENDBRANCH  17  20
ENDBRANCH  15  16
ENDBRANCH   1  15
TORSDOF 3
ENDMDL
MODEL 7
REMARK VINA RESULT:      -8.4      1.804      2.828
REMARK  3 active torsions:
REMARK  status: ('A' for Active; 'I' for Inactive)
REMARK    1  A    between atoms: C_6  and  N_7 
REMARK       I    between atoms: N_7  and  C_8 
REMARK    2  A    between atoms: C_8  and  C_9 
REMARK    3  A    between atoms: C_9  and  C_10 
ROOT
HETATM    1  C   UNL     1      25.526  44.964  50.489  1.00  0.00     0.286 C 
HETATM    2  N   UNL     1      25.769  46.209  51.340  1.00  0.00    -0.056 N 
HETATM    3  H   UNL     1      25.144  46.138  52.152  1.00  0.00     0.278 HD
HETATM    4  H   UNL     1      26.718  46.131  51.767  1.00  0.00     0.278 HD
HETATM    5  C   UNL     1      25.559  47.548  50.706  1.00  0.00     0.209 C 
HETATM    6  C   UNL     1      24.189  47.558  49.996  1.00  0.00     0.115 C 
HETATM    7  N   UNL     1      24.032  46.416  49.101  1.00  0.00    -0.353 N 
HETATM    8  C   UNL     1      24.466  45.148  49.387  1.00  0.00     0.249 C 
HETATM    9  O   UNL     1      24.055  44.201  48.724  1.00  0.00    -0.271 OA
HETATM   10  C   UNL     1      26.720  47.901  49.777  1.00  0.00     0.035 C 
HETATM   11  C   UNL     1      26.469  49.242  49.089  1.00  0.00     0.002 C 
HETATM   12  C   UNL     1      25.138  49.245  48.340  1.00  0.00     0.002 C 
HETATM   13  C   UNL     1      23.968  48.881  49.254  1.00  0.00     0.027 C 
HETATM   14  H   UNL     1      23.284  46.435  48.408  1.00  0.00     0.163 HD
ENDROOT
BRANCH   1  15
HETATM   15  C   UNL     1      26.801  44.374  49.858  1.00  0.00     0.146 C 
BRANCH  15  16
HETATM   16  C   UNL     1      26.940  42.892  50.064  1.00  0.00     0.224 C 
HETATM   17  N   UNL     1      27.573  42.348  51.131  1.00  0.00    -0.327 N 
HETATM   18  H   UNL     1      27.586  41.332  51.068  1.00  0.00     0.169 HD
HETATM   19  O   UNL     1      26.413  42.128  49.243  1.00  0.00    -0.273 OA
BRANCH  17  20
HETATM   20  C   UNL     1      28.208  42.863  52.280  1.00  0.00     0.035 A 
HETATM   21  C   UNL     1      27.661  43.767  53.190  1.00  0.00     0.037 A 
HETATM   22  C   UNL     1      28.401  44.227  54.302  1.00  0.00    -0.054 A 
HETATM   23  C   UNL     1      29.698  43.736  54.529  1.00  0.00    -0.056 A 
HETATM   24  C   UNL     1      27.762  45.210  55.250  1.00  0.00     0.049 C 
HETATM   25  C   UNL     1      30.524  44.186  55.704  1.00  0.00     0.049 C 
HETATM   26  C   UNL     1      30.245  42.828  53.619  1.00  0.00     0.009 A 
HETATM   27  C   UNL     1      29.509  42.398  52.512  1.00  0.00     0.030 A 
ENDBRANCH  17  20
ENDBRANCH  15  16
ENDBRANCH   1  15
TORSDOF 3
ENDMDL
MODEL 8
REMARK VINA RESULT:      -8.2      1.952      2.601
REMARK  3 active torsions:
REMARK  status: ('A' for Active; 'I' for Inactive)
REMARK    1  A    between atoms: C_6  and  N_7 
REMARK       I    between atoms: N_7  and  C_8 
REMARK    2  A    between atoms: C_8  and  C_9 
REMARK    3  A    between atoms: C_9  and  C_10 
ROOT
HETATM    1  C   UNL     1      26.364  40.570  49.863  1.00  0.00     0.286 C 
HETATM    2  N   UNL     1      25.585  41.215  51.007  1.00  0.00    -0.056 N 
HETATM    3  H   UNL     1      24.866  40.538  51.293  1.00  0.00     0.278 HD
HETATM    4  H   UNL     1      26.208  41.262  51.841  1.00  0.00     0.278 HD
HETATM    5  C   UNL     1      24.911  42.526  50.749  1.00  0.00     0.209 C 
HETATM    6  C   UNL     1      24.097  42.424  49.441  1.00  0.00     0.115 C 
HETATM    7  N   UNL     1      24.903  41.912  48.337  1.00  0.00    -0.353 N 
HETATM    8  C   UNL     1      25.827  40.908  48.460  1.00  0.00     0.249 C 
HETATM    9  O   UNL     1      26.253  40.348  47.455  1.00  0.00    -0.271 OA
HETATM   10  C   UNL     1      25.926  43.669  50.736  1.00  0.00     0.035 C 
HETATM   11  C   UNL     1      25.239  44.994  50.413  1.00  0.00     0.002 C 
HETATM   12  C   UNL     1      24.472  44.920  49.095  1.00  0.00     0.002 C 
HETATM   13  C   UNL     1      23.461  43.772  49.087  1.00  0.00     0.027 C 
HETATM   14  H   UNL     1      24.555  42.020  47.385  1.00  0.00     0.163 HD
ENDROOT
BRANCH   1  15
HETATM   15  C   UNL     1      27.879  40.852  49.897  1.00  0.00     0.146 C 
BRANCH  15  16
HETATM   16  C   UNL     1      28.635  39.946  50.827  1.00  0.00     0.224 C 
HETATM   17  N   UNL     1      29.031  40.320  52.068  1.00  0.00    -0.327 N 
HETATM   18  H   UNL     1      29.556  39.575  52.522  1.00  0.00     0.169 HD
HETATM   19  O   UNL     1      28.872  38.785  50.461  1.00  0.00    -0.273 OA
BRANCH  17  20
HETATM   20  C   UNL     1      28.888  41.485  52.848  1.00  0.00     0.035 A 
HETATM   21  C   UNL     1      27.710  41.944  53.437  1.00  0.00     0.037 A 
HETATM   22  C   UNL     1      27.683  43.139  54.189  1.00  0.00    -0.054 A 
HETATM   23  C   UNL     1      28.870  43.864  54.392  1.00  0.00    -0.056 A 
HETATM   24  C   UNL     1      26.380  43.592  54.797  1.00  0.00     0.049 C 
HETATM   25  C   UNL     1      28.898  45.137  55.194  1.00  0.00     0.049 C 
HETATM   26  C   UNL     1      30.051  43.402  53.804  1.00  0.00     0.009 A 
HETATM   27  C   UNL     1      30.058  42.229  53.045  1.00  0.00     0.030 A 
ENDBRANCH  17  20
ENDBRANCH  15  16
ENDBRANCH   1  15
TORSDOF 3
ENDMDL
MODEL 9
REMARK VINA RESULT:      -8.2      7.213      9.913
REMARK  3 active torsions:
REMARK  status: ('A' for Active; 'I' for Inactive)
REMARK    1  A    between atoms: C_6  and  N_7 
REMARK       I    between atoms: N_7  and  C_8 
REMARK    2  A    between atoms: C_8  and  C_9 
REMARK    3  A    between atoms: C_9  and  C_10 
ROOT
HETATM    1  C   UNL     1      18.755  50.140  49.996  1.00  0.00     0.286 C 
HETATM    2  N   UNL     1      18.300  50.011  48.544  1.00  0.00    -0.056 N 
HETATM    3  H   UNL     1      17.350  50.400  48.496  1.00  0.00     0.278 HD
HETATM    4  H   UNL     1      18.856  50.679  47.967  1.00  0.00     0.278 HD
HETATM    5  C   UNL     1      18.275  48.646  47.932  1.00  0.00     0.209 C 
HETATM    6  C   UNL     1      17.537  47.681  48.886  1.00  0.00     0.115 C 
HETATM    7  N   UNL     1      18.073  47.744  50.243  1.00  0.00    -0.353 N 
HETATM    8  C   UNL     1      18.462  48.902  50.864  1.00  0.00     0.249 C 
HETATM    9  O   UNL     1      18.631  48.912  52.079  1.00  0.00    -0.271 OA
HETATM   10  C   UNL     1      19.686  48.178  47.579  1.00  0.00     0.035 C 
HETATM   11  C   UNL     1      19.657  46.760  47.010  1.00  0.00     0.002 C 
HETATM   12  C   UNL     1      18.974  45.787  47.970  1.00  0.00     0.002 C 
HETATM   13  C   UNL     1      17.565  46.249  48.343  1.00  0.00     0.027 C 
HETATM   14  H   UNL     1      17.836  47.000  50.898  1.00  0.00     0.163 HD
ENDROOT
BRANCH   1  15
HETATM   15  C   UNL     1      20.239  50.521  50.159  1.00  0.00     0.146 C 
BRANCH  15  16
HETATM   16  C   UNL     1      20.787  51.297  48.994  1.00  0.00     0.224 C 
HETATM   17  N   UNL     1      22.017  51.075  48.468  1.00  0.00    -0.327 N 
HETATM   18  H   UNL     1      22.211  51.725  47.710  1.00  0.00     0.169 HD
HETATM   19  O   UNL     1      20.067  52.152  48.459  1.00  0.00    -0.273 OA
BRANCH  17  20
HETATM   20  C   UNL     1      23.064  50.170  48.737  1.00  0.00     0.035 A 
HETATM   21  C   UNL     1      24.423  50.391  48.513  1.00  0.00     0.037 A 
HETATM   22  C   UNL     1      25.385  49.400  48.808  1.00  0.00    -0.054 A 
HETATM   23  C   UNL     1      24.981  48.181  49.381  1.00  0.00    -0.056 A 
HETATM   24  C   UNL     1      26.840  49.690  48.539  1.00  0.00     0.049 C 
HETATM   25  C   UNL     1      25.967  47.098  49.724  1.00  0.00     0.049 C 
HETATM   26  C   UNL     1      23.620  47.962  49.608  1.00  0.00     0.009 A 
HETATM   27  C   UNL     1      22.677  48.943  49.291  1.00  0.00     0.030 A 
ENDBRANCH  17  20
ENDBRANCH  15  16
ENDBRANCH   1  15
TORSDOF 3
ENDMDL
MODEL 10
REMARK VINA RESULT:      -8.2      5.626      8.601
REMARK  3 active torsions:
REMARK  status: ('A' for Active; 'I' for Inactive)
REMARK    1  A    between atoms: C_6  and  N_7 
REMARK       I    between atoms: N_7  and  C_8 
REMARK    2  A    between atoms: C_8  and  C_9 
REMARK    3  A    between atoms: C_9  and  C_10 
ROOT
HETATM    1  C   UNL     1      20.886  48.522  49.353  1.00  0.00     0.286 C 
HETATM    2  N   UNL     1      21.091  49.861  50.059  1.00  0.00    -0.056 N 
HETATM    3  H   UNL     1      21.153  49.658  51.065  1.00  0.00     0.278 HD
HETATM    4  H   UNL     1      22.049  50.206  49.831  1.00  0.00     0.278 HD
HETATM    5  C   UNL     1      20.060  50.926  49.862  1.00  0.00     0.209 C 
HETATM    6  C   UNL     1      18.660  50.322  50.103  1.00  0.00     0.115 C 
HETATM    7  N   UNL     1      18.452  49.105  49.325  1.00  0.00    -0.353 N 
HETATM    8  C   UNL     1      19.411  48.147  49.124  1.00  0.00     0.249 C 
HETATM    9  O   UNL     1      19.085  47.039  48.707  1.00  0.00    -0.271 OA
HETATM   10  C   UNL     1      20.204  51.578  48.487  1.00  0.00     0.035 C 
HETATM   11  C   UNL     1      19.111  52.623  48.270  1.00  0.00     0.002 C 
HETATM   12  C   UNL     1      17.719  52.023  48.456  1.00  0.00     0.002 C 
HETATM   13  C   UNL     1      17.564  51.355  49.823  1.00  0.00     0.027 C 
HETATM   14  H   UNL     1      17.503  48.749  49.216  1.00  0.00     0.163 HD
ENDROOT
BRANCH   1  15
HETATM   15  C   UNL     1      21.645  48.392  48.019  1.00  0.00     0.146 C 
BRANCH  15  16
HETATM   16  C   UNL     1      23.009  49.023  48.043  1.00  0.00     0.224 C 
HETATM   17  N   UNL     1      24.052  48.509  48.740  1.00  0.00    -0.327 N 
HETATM   18  H   UNL     1      24.875  49.101  48.653  1.00  0.00     0.169 HD
HETATM   19  O   UNL     1      23.205  50.039  47.361  1.00  0.00    -0.273 OA
BRANCH  17  20
HETATM   20  C   UNL     1      24.244  47.366  49.544  1.00  0.00     0.035 A 
HETATM   21  C   UNL     1      23.724  46.094  49.307  1.00  0.00     0.037 A 
HETATM   22  C   UNL     1      23.972  45.024  50.195  1.00  0.00    -0.054 A 
HETATM   23  C   UNL     1      24.795  45.223  51.317  1.00  0.00    -0.056 A 
HETATM   24  C   UNL     1      23.378  43.671  49.894  1.00  0.00     0.049 C 
HETATM   25  C   UNL     1      25.099  44.113  52.287  1.00  0.00     0.049 C 
HETATM   26  C   UNL     1      25.319  46.497  51.552  1.00  0.00     0.009 A 
HETATM   27  C   UNL     1      25.047  47.551  50.676  1.00  0.00     0.030 A 
ENDBRANCH  17  20
ENDBRANCH  15  16
ENDBRANCH   1  15
TORSDOF 3
ENDMDL
