MODEL 1
REMARK VINA RESULT:      -8.6      0.000      0.000
REMARK  6 active torsions:
REMARK  status: ('A' for Active; 'I' for Inactive)
REMARK    1  A    between atoms: C_3  and  N_4 
REMARK       I    between atoms: N_4  and  C_5 
REMARK       I    between atoms: C_5  and  N_6 
REMARK    2  A    between atoms: N_6  and  C_7 
REMARK    3  A    between atoms: C_7  and  C_8 
REMARK    4  A    between atoms: C_8  and  N_9 
REMARK    5  A    between atoms: C_8  and  C_13 
REMARK    6  A    between atoms: C_20  and  C_21 
ROOT
HETATM    1  N   UNL     1      26.090  46.929  50.629  1.00  0.00    -0.309 N 
HETATM    2  C   UNL     1      25.907  46.861  51.987  1.00  0.00     0.320 C 
HETATM    3  N   UNL     1      26.577  45.786  52.528  1.00  0.00    -0.340 N 
HETATM    4  O   UNL     1      25.266  47.620  52.699  1.00  0.00    -0.247 OA
HETATM    5  H   UNL     1      26.230  46.024  50.200  1.00  0.00     0.170 HD
HETATM    6  H   UNL     1      27.183  45.233  51.933  1.00  0.00     0.164 HD
ENDROOT
BRANCH   1   7
HETATM    7  C   UNL     1      25.615  47.927  49.741  1.00  0.00     0.043 A 
HETATM    8  C   UNL     1      26.386  48.912  49.104  1.00  0.00    -0.035 A 
HETATM    9  C   UNL     1      27.881  49.027  49.187  1.00  0.00     0.050 C 
HETATM   10  C   UNL     1      25.731  49.862  48.293  1.00  0.00     0.010 A 
HETATM   11  C   UNL     1      24.356  49.804  48.061  1.00  0.00     0.016 A 
HETATM   12  C   UNL     1      23.591  48.789  48.633  1.00  0.00     0.019 A 
HETATM   13  C   UNL     1      24.236  47.860  49.464  1.00  0.00     0.046 A 
BRANCH  12  14
HETATM   14  C   UNL     1      22.155  48.668  48.402  1.00  0.00     0.179 A 
HETATM   15  O   UNL     1      21.758  48.008  47.267  1.00  0.00    -0.302 OA
HETATM   16  C   UNL     1      20.398  48.045  47.317  1.00  0.00     0.163 A 
HETATM   17  C   UNL     1      20.035  48.713  48.458  1.00  0.00     0.144 A 
HETATM   18  N   UNL     1      21.154  49.106  49.147  1.00  0.00    -0.234 NA
ENDBRANCH  12  14
ENDBRANCH   1   7
BRANCH   3  19
HETATM   19  C   UNL     1      26.380  45.364  53.907  1.00  0.00     0.164 C 
BRANCH  19  20
HETATM   20  C   UNL     1      27.657  45.030  54.730  1.00  0.00     0.261 C 
BRANCH  20  21
HETATM   21  N   UNL     1      28.418  46.234  55.291  1.00  0.00    -0.067 N 
HETATM   22  H   UNL     1      29.254  46.294  54.698  1.00  0.00     0.280 HD
HETATM   23  C   UNL     1      27.762  47.576  55.146  1.00  0.00     0.270 C 
HETATM   24  C   UNL     1      28.922  46.019  56.690  1.00  0.00     0.270 C 
ENDBRANCH  20  21
BRANCH  20  25
HETATM   25  C   UNL     1      28.545  44.050  54.020  1.00  0.00     0.085 A 
HETATM   26  O   UNL     1      28.035  43.427  52.917  1.00  0.00    -0.325 OA
HETATM   27  C   UNL     1      28.999  42.593  52.446  1.00  0.00     0.142 A 
HETATM   28  C   UNL     1      30.123  42.670  53.232  1.00  0.00     0.027 A 
HETATM   29  C   UNL     1      29.834  43.611  54.250  1.00  0.00     0.037 A 
ENDBRANCH  20  25
ENDBRANCH  19  20
ENDBRANCH   3  19
TORSDOF 6
ENDMDL
MODEL 2
REMARK VINA RESULT:      -8.3      2.160      8.753
REMARK  6 active torsions:
REMARK  status: ('A' for Active; 'I' for Inactive)
REMARK    1  A    between atoms: C_3  and  N_4 
REMARK       I    between atoms: N_4  and  C_5 
REMARK       I    between atoms: C_5  and  N_6 
REMARK    2  A    between atoms: N_6  and  C_7 
REMARK    3  A    between atoms: C_7  and  C_8 
REMARK    4  A    between atoms: C_8  and  N_9 
REMARK    5  A    between atoms: C_8  and  C_13 
REMARK    6  A    between atoms: C_20  and  C_21 
ROOT
HETATM    1  N   UNL     1      25.845  44.207  51.899  1.00  0.00    -0.309 N 
HETATM    2  C   UNL     1      25.765  44.891  50.712  1.00  0.00     0.320 C 
HETATM    3  N   UNL     1      24.650  45.699  50.675  1.00  0.00    -0.340 N 
HETATM    4  O   UNL     1      26.544  44.857  49.771  1.00  0.00    -0.247 OA
HETATM    5  H   UNL     1      24.940  44.011  52.306  1.00  0.00     0.170 HD
HETATM    6  H   UNL     1      24.077  45.787  51.506  1.00  0.00     0.164 HD
ENDROOT
BRANCH   1   7
HETATM    7  C   UNL     1      26.877  43.336  52.328  1.00  0.00     0.043 A 
HETATM    8  C   UNL     1      27.122  42.037  51.856  1.00  0.00    -0.035 A 
HETATM    9  C   UNL     1      26.374  41.368  50.738  1.00  0.00     0.050 C 
HETATM   10  C   UNL     1      28.167  41.292  52.440  1.00  0.00     0.010 A 
HETATM   11  C   UNL     1      28.995  41.837  53.423  1.00  0.00     0.016 A 
HETATM   12  C   UNL     1      28.805  43.150  53.850  1.00  0.00     0.019 A 
HETATM   13  C   UNL     1      27.748  43.884  53.290  1.00  0.00     0.046 A 
BRANCH  12  14
HETATM   14  C   UNL     1      29.659  43.776  54.855  1.00  0.00     0.179 A 
HETATM   15  O   UNL     1      29.293  45.022  55.296  1.00  0.00    -0.302 OA
HETATM   16  C   UNL     1      30.248  45.346  56.211  1.00  0.00     0.163 A 
HETATM   17  C   UNL     1      31.134  44.302  56.286  1.00  0.00     0.144 A 
HETATM   18  N   UNL     1      30.755  43.305  55.424  1.00  0.00    -0.234 NA
ENDBRANCH  12  14
ENDBRANCH   1   7
BRANCH   3  19
HETATM   19  C   UNL     1      24.218  46.368  49.457  1.00  0.00     0.164 C 
BRANCH  19  20
HETATM   20  C   UNL     1      24.054  47.913  49.522  1.00  0.00     0.261 C 
BRANCH  20  21
HETATM   21  N   UNL     1      22.835  48.482  48.790  1.00  0.00    -0.067 N 
HETATM   22  H   UNL     1      23.221  48.832  47.906  1.00  0.00     0.280 HD
HETATM   23  C   UNL     1      21.779  47.500  48.373  1.00  0.00     0.270 C 
HETATM   24  C   UNL     1      22.233  49.675  49.477  1.00  0.00     0.270 C 
ENDBRANCH  20  21
BRANCH  20  25
HETATM   25  C   UNL     1      25.329  48.631  49.189  1.00  0.00     0.085 A 
HETATM   26  O   UNL     1      26.484  48.140  49.729  1.00  0.00    -0.325 OA
HETATM   27  C   UNL     1      27.496  48.938  49.301  1.00  0.00     0.142 A 
HETATM   28  C   UNL     1      27.010  49.937  48.494  1.00  0.00     0.027 A 
HETATM   29  C   UNL     1      25.609  49.742  48.418  1.00  0.00     0.037 A 
ENDBRANCH  20  25
ENDBRANCH  19  20
ENDBRANCH   3  19
TORSDOF 6
ENDMDL
MODEL 3
REMARK VINA RESULT:      -8.0      1.197      1.267
REMARK  6 active torsions:
REMARK  status: ('A' for Active; 'I' for Inactive)
REMARK    1  A    between atoms: C_3  and  N_4 
REMARK       I    between atoms: N_4  and  C_5 
REMARK       I    between atoms: C_5  and  N_6 
REMARK    2  A    between atoms: N_6  and  C_7 
REMARK    3  A    between atoms: C_7  and  C_8 
REMARK    4  A    between atoms: C_8  and  N_9 
REMARK    5  A    between atoms: C_8  and  C_13 
REMARK    6  A    between atoms: C_20  and  C_21 
ROOT
HETATM    1  N   UNL     1      25.106  46.791  50.530  1.00  0.00    -0.309 N 
HETATM    2  C   UNL     1      25.286  46.767  51.889  1.00  0.00     0.320 C 
HETATM    3  N   UNL     1      25.575  45.495  52.333  1.00  0.00    -0.340 N 
HETATM    4  O   UNL     1      25.231  47.704  52.672  1.00  0.00    -0.247 OA
HETATM    5  H   UNL     1      24.740  45.923  50.161  1.00  0.00     0.170 HD
HETATM    6  H   UNL     1      25.715  44.756  51.654  1.00  0.00     0.164 HD
ENDROOT
BRANCH   1   7
HETATM    7  C   UNL     1      24.861  47.920  49.709  1.00  0.00     0.043 A 
HETATM    8  C   UNL     1      25.828  48.776  49.158  1.00  0.00    -0.035 A 
HETATM    9  C   UNL     1      27.314  48.590  49.274  1.00  0.00     0.050 C 
HETATM   10  C   UNL     1      25.396  49.889  48.407  1.00  0.00     0.010 A 
HETATM   11  C   UNL     1      24.043  50.118  48.150  1.00  0.00     0.016 A 
HETATM   12  C   UNL     1      23.078  49.236  48.634  1.00  0.00     0.019 A 
HETATM   13  C   UNL     1      23.504  48.144  49.405  1.00  0.00     0.046 A 
BRANCH  12  14
HETATM   14  C   UNL     1      21.654  49.416  48.371  1.00  0.00     0.179 A 
HETATM   15  O   UNL     1      20.780  48.702  49.150  1.00  0.00    -0.302 OA
HETATM   16  C   UNL     1      19.550  49.065  48.692  1.00  0.00     0.163 A 
HETATM   17  C   UNL     1      19.727  49.969  47.676  1.00  0.00     0.144 A 
HETATM   18  N   UNL     1      21.066  50.191  47.476  1.00  0.00    -0.234 NA
ENDBRANCH  12  14
ENDBRANCH   1   7
BRANCH   3  19
HETATM   19  C   UNL     1      25.603  45.156  53.748  1.00  0.00     0.164 C 
BRANCH  19  20
HETATM   20  C   UNL     1      26.956  44.649  54.323  1.00  0.00     0.261 C 
BRANCH  20  21
HETATM   21  N   UNL     1      28.025  45.722  54.549  1.00  0.00    -0.067 N 
HETATM   22  H   UNL     1      28.348  45.950  53.603  1.00  0.00     0.280 HD
HETATM   23  C   UNL     1      27.557  47.033  55.110  1.00  0.00     0.270 C 
HETATM   24  C   UNL     1      29.233  45.212  55.283  1.00  0.00     0.270 C 
ENDBRANCH  20  21
BRANCH  20  25
HETATM   25  C   UNL     1      27.472  43.452  53.580  1.00  0.00     0.085 A 
HETATM   26  O   UNL     1      27.720  43.602  52.245  1.00  0.00    -0.325 OA
HETATM   27  C   UNL     1      28.169  42.406  51.784  1.00  0.00     0.142 A 
HETATM   28  C   UNL     1      28.213  41.486  52.803  1.00  0.00     0.027 A 
HETATM   29  C   UNL     1      27.763  42.158  53.965  1.00  0.00     0.037 A 
ENDBRANCH  20  25
ENDBRANCH  19  20
ENDBRANCH   3  19
TORSDOF 6
ENDMDL
MODEL 4
REMARK VINA RESULT:      -7.9      4.046      8.921
REMARK  6 active torsions:
REMARK  status: ('A' for Active; 'I' for Inactive)
REMARK    1  A    between atoms: C_3  and  N_4 
REMARK       I    between atoms: N_4  and  C_5 
REMARK       I    between atoms: C_5  and  N_6 
REMARK    2  A    between atoms: N_6  and  C_7 
REMARK    3  A    between atoms: C_7  and  C_8 
REMARK    4  A    between atoms: C_8  and  N_9 
REMARK    5  A    between atoms: C_8  and  C_13 
REMARK    6  A    between atoms: C_20  and  C_21 
ROOT
HETATM    1  N   UNL     1      26.459  43.454  53.096  1.00  0.00    -0.309 N 
HETATM    2  C   UNL     1      26.736  42.941  51.854  1.00  0.00     0.320 C 
HETATM    3  N   UNL     1      25.816  41.981  51.493  1.00  0.00    -0.340 N 
HETATM    4  O   UNL     1      27.645  43.250  51.097  1.00  0.00    -0.247 OA
HETATM    5  H   UNL     1      26.005  42.789  53.708  1.00  0.00     0.170 HD
HETATM    6  H   UNL     1      25.015  41.817  52.093  1.00  0.00     0.164 HD
ENDROOT
BRANCH   1   7
HETATM    7  C   UNL     1      27.139  44.498  53.771  1.00  0.00     0.043 A 
HETATM    8  C   UNL     1      26.827  45.866  53.722  1.00  0.00    -0.035 A 
HETATM    9  C   UNL     1      25.648  46.457  53.003  1.00  0.00     0.050 C 
HETATM   10  C   UNL     1      27.651  46.773  54.418  1.00  0.00     0.010 A 
HETATM   11  C   UNL     1      28.723  46.337  55.200  1.00  0.00     0.016 A 
HETATM   12  C   UNL     1      29.001  44.975  55.312  1.00  0.00     0.019 A 
HETATM   13  C   UNL     1      28.199  44.073  54.597  1.00  0.00     0.046 A 
BRANCH  12  14
HETATM   14  C   UNL     1      30.092  44.466  56.137  1.00  0.00     0.179 A 
HETATM   15  O   UNL     1      30.329  45.108  57.325  1.00  0.00    -0.302 OA
HETATM   16  C   UNL     1      31.376  44.428  57.869  1.00  0.00     0.163 A 
HETATM   17  C   UNL     1      31.722  43.422  57.005  1.00  0.00     0.144 A 
HETATM   18  N   UNL     1      30.902  43.448  55.905  1.00  0.00    -0.234 NA
ENDBRANCH  12  14
ENDBRANCH   1   7
BRANCH   3  19
HETATM   19  C   UNL     1      25.996  41.135  50.323  1.00  0.00     0.164 C 
BRANCH  19  20
HETATM   20  C   UNL     1      25.202  41.523  49.044  1.00  0.00     0.261 C 
BRANCH  20  21
HETATM   21  N   UNL     1      26.017  41.578  47.748  1.00  0.00    -0.067 N 
HETATM   22  H   UNL     1      26.067  42.580  47.531  1.00  0.00     0.280 HD
HETATM   23  C   UNL     1      27.452  41.144  47.834  1.00  0.00     0.270 C 
HETATM   24  C   UNL     1      25.321  40.939  46.581  1.00  0.00     0.270 C 
ENDBRANCH  20  21
BRANCH  20  25
HETATM   25  C   UNL     1      24.352  42.742  49.256  1.00  0.00     0.085 A 
HETATM   26  O   UNL     1      23.192  42.581  49.958  1.00  0.00    -0.325 OA
HETATM   27  C   UNL     1      22.591  43.798  50.023  1.00  0.00     0.142 A 
HETATM   28  C   UNL     1      23.348  44.741  49.370  1.00  0.00     0.027 A 
HETATM   29  C   UNL     1      24.487  44.062  48.873  1.00  0.00     0.037 A 
ENDBRANCH  20  25
ENDBRANCH  19  20
ENDBRANCH   3  19
TORSDOF 6
ENDMDL
MODEL 5
REMARK VINA RESULT:      -7.8      2.122      3.256
REMARK  6 active torsions:
REMARK  status: ('A' for Active; 'I' for Inactive)
REMARK    1  A    between atoms: C_3  and  N_4 
REMARK       I    between atoms: N_4  and  C_5 
REMARK       I    between atoms: C_5  and  N_6 
REMARK    2  A    between atoms: N_6  and  C_7 
REMARK    3  A    between atoms: C_7  and  C_8 
REMARK    4  A    between atoms: C_8  and  N_9 
REMARK    5  A    between atoms: C_8  and  C_13 
REMARK    6  A    between atoms: C_20  and  C_21 
ROOT
HETATM    1  N   UNL     1      24.911  46.842  50.523  1.00  0.00    -0.309 N 
HETATM    2  C   UNL     1      24.952  45.515  50.175  1.00  0.00     0.320 C 
HETATM    3  N   UNL     1      25.071  44.710  51.285  1.00  0.00    -0.340 N 
HETATM    4  O   UNL     1      24.881  45.029  49.055  1.00  0.00    -0.247 OA
HETATM    5  H   UNL     1      25.428  47.047  51.368  1.00  0.00     0.170 HD
HETATM    6  H   UNL     1      25.024  45.131  52.206  1.00  0.00     0.164 HD
ENDROOT
BRANCH   1   7
HETATM    7  C   UNL     1      24.730  47.956  49.666  1.00  0.00     0.043 A 
HETATM    8  C   UNL     1      25.742  48.758  49.114  1.00  0.00    -0.035 A 
HETATM    9  C   UNL     1      27.216  48.517  49.270  1.00  0.00     0.050 C 
HETATM   10  C   UNL     1      25.371  49.864  48.323  1.00  0.00     0.010 A 
HETATM   11  C   UNL     1      24.035  50.139  48.028  1.00  0.00     0.016 A 
HETATM   12  C   UNL     1      23.025  49.309  48.512  1.00  0.00     0.019 A 
HETATM   13  C   UNL     1      23.390  48.224  49.324  1.00  0.00     0.046 A 
BRANCH  12  14
HETATM   14  C   UNL     1      21.615  49.537  48.211  1.00  0.00     0.179 A 
HETATM   15  O   UNL     1      20.714  48.641  48.728  1.00  0.00    -0.302 OA
HETATM   16  C   UNL     1      19.505  49.098  48.297  1.00  0.00     0.163 A 
HETATM   17  C   UNL     1      19.721  50.229  47.553  1.00  0.00     0.144 A 
HETATM   18  N   UNL     1      21.064  50.506  47.502  1.00  0.00    -0.234 NA
ENDBRANCH  12  14
ENDBRANCH   1   7
BRANCH   3  19
HETATM   19  C   UNL     1      25.346  43.284  51.183  1.00  0.00     0.164 C 
BRANCH  19  20
HETATM   20  C   UNL     1      26.753  42.805  51.638  1.00  0.00     0.261 C 
BRANCH  20  21
HETATM   21  N   UNL     1      26.944  41.287  51.716  1.00  0.00    -0.067 N 
HETATM   22  H   UNL     1      26.536  41.035  52.624  1.00  0.00     0.280 HD
HETATM   23  C   UNL     1      26.182  40.459  50.723  1.00  0.00     0.270 C 
HETATM   24  C   UNL     1      28.386  40.872  51.784  1.00  0.00     0.270 C 
ENDBRANCH  20  21
BRANCH  20  25
HETATM   25  C   UNL     1      27.223  43.521  52.870  1.00  0.00     0.085 A 
HETATM   26  O   UNL     1      26.309  43.721  53.865  1.00  0.00    -0.325 OA
HETATM   27  C   UNL     1      26.946  44.382  54.867  1.00  0.00     0.142 A 
HETATM   28  C   UNL     1      28.257  44.612  54.530  1.00  0.00     0.027 A 
HETATM   29  C   UNL     1      28.441  44.057  53.240  1.00  0.00     0.037 A 
ENDBRANCH  20  25
ENDBRANCH  19  20
ENDBRANCH   3  19
TORSDOF 6
ENDMDL
MODEL 6
REMARK VINA RESULT:      -7.8      2.471      8.527
REMARK  6 active torsions:
REMARK  status: ('A' for Active; 'I' for Inactive)
REMARK    1  A    between atoms: C_3  and  N_4 
REMARK       I    between atoms: N_4  and  C_5 
REMARK       I    between atoms: C_5  and  N_6 
REMARK    2  A    between atoms: N_6  and  C_7 
REMARK    3  A    between atoms: C_7  and  C_8 
REMARK    4  A    between atoms: C_8  and  N_9 
REMARK    5  A    between atoms: C_8  and  C_13 
REMARK    6  A    between atoms: C_20  and  C_21 
ROOT
HETATM    1  N   UNL     1      26.247  44.678  52.126  1.00  0.00    -0.309 N 
HETATM    2  C   UNL     1      25.964  45.146  50.868  1.00  0.00     0.320 C 
HETATM    3  N   UNL     1      24.878  45.993  50.882  1.00  0.00    -0.340 N 
HETATM    4  O   UNL     1      26.555  44.905  49.825  1.00  0.00    -0.247 OA
HETATM    5  H   UNL     1      25.429  44.605  52.717  1.00  0.00     0.170 HD
HETATM    6  H   UNL     1      24.470  46.256  51.771  1.00  0.00     0.164 HD
ENDROOT
BRANCH   1   7
HETATM    7  C   UNL     1      27.324  43.843  52.516  1.00  0.00     0.043 A 
HETATM    8  C   UNL     1      28.212  44.070  53.580  1.00  0.00    -0.035 A 
HETATM    9  C   UNL     1      28.120  45.209  54.555  1.00  0.00     0.050 C 
HETATM   10  C   UNL     1      29.263  43.153  53.789  1.00  0.00     0.010 A 
HETATM   11  C   UNL     1      29.399  42.005  53.008  1.00  0.00     0.016 A 
HETATM   12  C   UNL     1      28.482  41.733  51.993  1.00  0.00     0.019 A 
HETATM   13  C   UNL     1      27.452  42.658  51.765  1.00  0.00     0.046 A 
BRANCH  12  14
HETATM   14  C   UNL     1      28.565  40.534  51.166  1.00  0.00     0.179 A 
HETATM   15  O   UNL     1      29.343  39.506  51.632  1.00  0.00    -0.302 OA
HETATM   16  C   UNL     1      29.230  38.541  50.678  1.00  0.00     0.163 A 
HETATM   17  C   UNL     1      28.402  39.015  49.693  1.00  0.00     0.144 A 
HETATM   18  N   UNL     1      27.979  40.282  50.008  1.00  0.00    -0.234 NA
ENDBRANCH  12  14
ENDBRANCH   1   7
BRANCH   3  19
HETATM   19  C   UNL     1      24.242  46.458  49.658  1.00  0.00     0.164 C 
BRANCH  19  20
HETATM   20  C   UNL     1      24.009  47.990  49.525  1.00  0.00     0.261 C 
BRANCH  20  21
HETATM   21  N   UNL     1      22.795  48.407  48.691  1.00  0.00    -0.067 N 
HETATM   22  H   UNL     1      23.206  48.863  47.869  1.00  0.00     0.280 HD
HETATM   23  C   UNL     1      21.955  47.300  48.121  1.00  0.00     0.270 C 
HETATM   24  C   UNL     1      21.945  49.451  49.358  1.00  0.00     0.270 C 
ENDBRANCH  20  21
BRANCH  20  25
HETATM   25  C   UNL     1      25.264  48.720  49.143  1.00  0.00     0.085 A 
HETATM   26  O   UNL     1      26.443  48.242  49.640  1.00  0.00    -0.325 OA
HETATM   27  C   UNL     1      27.431  49.049  49.173  1.00  0.00     0.142 A 
HETATM   28  C   UNL     1      26.904  50.043  48.384  1.00  0.00     0.027 A 
HETATM   29  C   UNL     1      25.504  49.833  48.361  1.00  0.00     0.037 A 
ENDBRANCH  20  25
ENDBRANCH  19  20
ENDBRANCH   3  19
TORSDOF 6
ENDMDL
MODEL 7
REMARK VINA RESULT:      -7.5      2.203      9.261
REMARK  6 active torsions:
REMARK  status: ('A' for Active; 'I' for Inactive)
REMARK    1  A    between atoms: C_3  and  N_4 
REMARK       I    between atoms: N_4  and  C_5 
REMARK       I    between atoms: C_5  and  N_6 
REMARK    2  A    between atoms: N_6  and  C_7 
REMARK    3  A    between atoms: C_7  and  C_8 
REMARK    4  A    between atoms: C_8  and  N_9 
REMARK    5  A    between atoms: C_8  and  C_13 
REMARK    6  A    between atoms: C_20  and  C_21 
ROOT
HETATM    1  N   UNL     1      25.929  44.478  51.857  1.00  0.00    -0.309 N 
HETATM    2  C   UNL     1      26.006  45.244  50.722  1.00  0.00     0.320 C 
HETATM    3  N   UNL     1      24.890  46.038  50.578  1.00  0.00    -0.340 N 
HETATM    4  O   UNL     1      26.913  45.288  49.904  1.00  0.00    -0.247 OA
HETATM    5  H   UNL     1      24.980  44.241  52.114  1.00  0.00     0.170 HD
HETATM    6  H   UNL     1      24.201  46.059  51.321  1.00  0.00     0.164 HD
ENDROOT
BRANCH   1   7
HETATM    7  C   UNL     1      26.909  43.592  52.371  1.00  0.00     0.043 A 
HETATM    8  C   UNL     1      27.139  42.271  51.956  1.00  0.00    -0.035 A 
HETATM    9  C   UNL     1      26.432  41.586  50.821  1.00  0.00     0.050 C 
HETATM   10  C   UNL     1      28.126  41.516  52.621  1.00  0.00     0.010 A 
HETATM   11  C   UNL     1      28.915  42.070  53.631  1.00  0.00     0.016 A 
HETATM   12  C   UNL     1      28.744  43.402  54.004  1.00  0.00     0.019 A 
HETATM   13  C   UNL     1      27.742  44.147  53.362  1.00  0.00     0.046 A 
BRANCH  12  14
HETATM   14  C   UNL     1      29.561  44.036  55.034  1.00  0.00     0.179 A 
HETATM   15  O   UNL     1      30.657  43.342  55.476  1.00  0.00    -0.302 OA
HETATM   16  C   UNL     1      31.217  44.161  56.409  1.00  0.00     0.163 A 
HETATM   17  C   UNL     1      30.451  45.295  56.490  1.00  0.00     0.144 A 
HETATM   18  N   UNL     1      29.400  45.213  55.613  1.00  0.00    -0.234 NA
ENDBRANCH  12  14
ENDBRANCH   1   7
BRANCH   3  19
HETATM   19  C   UNL     1      24.623  46.787  49.359  1.00  0.00     0.164 C 
BRANCH  19  20
HETATM   20  C   UNL     1      23.181  47.339  49.174  1.00  0.00     0.261 C 
BRANCH  20  21
HETATM   21  N   UNL     1      22.288  46.552  48.211  1.00  0.00    -0.067 N 
HETATM   22  H   UNL     1      22.481  46.974  47.295  1.00  0.00     0.280 HD
HETATM   23  C   UNL     1      22.611  45.097  48.026  1.00  0.00     0.270 C 
HETATM   24  C   UNL     1      20.820  46.759  48.456  1.00  0.00     0.270 C 
ENDBRANCH  20  21
BRANCH  20  25
HETATM   25  C   UNL     1      23.171  48.816  48.911  1.00  0.00     0.085 A 
HETATM   26  O   UNL     1      23.913  49.270  47.857  1.00  0.00    -0.325 OA
HETATM   27  C   UNL     1      23.761  50.619  47.811  1.00  0.00     0.142 A 
HETATM   28  C   UNL     1      22.932  51.041  48.822  1.00  0.00     0.027 A 
HETATM   29  C   UNL     1      22.548  49.879  49.534  1.00  0.00     0.037 A 
ENDBRANCH  20  25
ENDBRANCH  19  20
ENDBRANCH   3  19
TORSDOF 6
ENDMDL
MODEL 8
REMARK VINA RESULT:      -7.4      4.388      8.617
REMARK  6 active torsions:
REMARK  status: ('A' for Active; 'I' for Inactive)
REMARK    1  A    between atoms: C_3  and  N_4 
REMARK       I    between atoms: N_4  and  C_5 
REMARK       I    between atoms: C_5  and  N_6 
REMARK    2  A    between atoms: N_6  and  C_7 
REMARK    3  A    between atoms: C_7  and  C_8 
REMARK    4  A    between atoms: C_8  and  N_9 
REMARK    5  A    between atoms: C_8  and  C_13 
REMARK    6  A    between atoms: C_20  and  C_21 
ROOT
HETATM    1  N   UNL     1      27.242  44.396  52.362  1.00  0.00    -0.309 N 
HETATM    2  C   UNL     1      26.085  43.708  52.095  1.00  0.00     0.320 C 
HETATM    3  N   UNL     1      26.217  42.926  50.969  1.00  0.00    -0.340 N 
HETATM    4  O   UNL     1      25.040  43.718  52.729  1.00  0.00    -0.247 OA
HETATM    5  H   UNL     1      27.775  44.615  51.530  1.00  0.00     0.170 HD
HETATM    6  H   UNL     1      27.124  42.856  50.521  1.00  0.00     0.164 HD
ENDROOT
BRANCH   1   7
HETATM    7  C   UNL     1      27.508  45.244  53.465  1.00  0.00     0.043 A 
HETATM    8  C   UNL     1      26.871  46.461  53.755  1.00  0.00    -0.035 A 
HETATM    9  C   UNL     1      25.721  47.040  52.981  1.00  0.00     0.050 C 
HETATM   10  C   UNL     1      27.307  47.202  54.872  1.00  0.00     0.010 A 
HETATM   11  C   UNL     1      28.304  46.725  55.724  1.00  0.00     0.016 A 
HETATM   12  C   UNL     1      28.896  45.486  55.486  1.00  0.00     0.019 A 
HETATM   13  C   UNL     1      28.484  44.760  54.358  1.00  0.00     0.046 A 
BRANCH  12  14
HETATM   14  C   UNL     1      29.924  44.930  56.361  1.00  0.00     0.179 A 
HETATM   15  O   UNL     1      30.595  43.823  55.910  1.00  0.00    -0.302 OA
HETATM   16  C   UNL     1      31.476  43.536  56.908  1.00  0.00     0.163 A 
HETATM   17  C   UNL     1      31.306  44.465  57.901  1.00  0.00     0.144 A 
HETATM   18  N   UNL     1      30.320  45.352  57.549  1.00  0.00    -0.234 NA
ENDBRANCH  12  14
ENDBRANCH   1   7
BRANCH   3  19
HETATM   19  C   UNL     1      25.080  42.261  50.349  1.00  0.00     0.164 C 
BRANCH  19  20
HETATM   20  C   UNL     1      25.328  41.578  48.974  1.00  0.00     0.261 C 
BRANCH  20  21
HETATM   21  N   UNL     1      24.150  40.781  48.407  1.00  0.00    -0.067 N 
HETATM   22  H   UNL     1      24.062  39.983  49.047  1.00  0.00     0.280 HD
HETATM   23  C   UNL     1      22.803  41.443  48.451  1.00  0.00     0.270 C 
HETATM   24  C   UNL     1      24.427  40.192  47.053  1.00  0.00     0.270 C 
ENDBRANCH  20  21
BRANCH  20  25
HETATM   25  C   UNL     1      26.621  40.816  48.948  1.00  0.00     0.085 A 
HETATM   26  O   UNL     1      27.686  41.410  48.332  1.00  0.00    -0.325 OA
HETATM   27  C   UNL     1      28.733  40.550  48.424  1.00  0.00     0.142 A 
HETATM   28  C   UNL     1      28.358  39.409  49.090  1.00  0.00     0.027 A 
HETATM   29  C   UNL     1      26.993  39.577  49.431  1.00  0.00     0.037 A 
ENDBRANCH  20  25
ENDBRANCH  19  20
ENDBRANCH   3  19
TORSDOF 6
ENDMDL
MODEL 9
REMARK VINA RESULT:      -7.3      4.562      8.465
REMARK  6 active torsions:
REMARK  status: ('A' for Active; 'I' for Inactive)
REMARK    1  A    between atoms: C_3  and  N_4 
REMARK       I    between atoms: N_4  and  C_5 
REMARK       I    between atoms: C_5  and  N_6 
REMARK    2  A    between atoms: N_6  and  C_7 
REMARK    3  A    between atoms: C_7  and  C_8 
REMARK    4  A    between atoms: C_8  and  N_9 
REMARK    5  A    between atoms: C_8  and  C_13 
REMARK    6  A    between atoms: C_20  and  C_21 
ROOT
HETATM    1  N   UNL     1      26.321  42.268  51.740  1.00  0.00    -0.309 N 
HETATM    2  C   UNL     1      26.404  41.997  50.397  1.00  0.00     0.320 C 
HETATM    3  N   UNL     1      26.150  40.668  50.139  1.00  0.00    -0.340 N 
HETATM    4  O   UNL     1      26.647  42.775  49.486  1.00  0.00    -0.247 OA
HETATM    5  H   UNL     1      26.572  41.479  52.321  1.00  0.00     0.170 HD
HETATM    6  H   UNL     1      25.851  40.067  50.898  1.00  0.00     0.164 HD
ENDROOT
BRANCH   1   7
HETATM    7  C   UNL     1      26.453  43.526  52.377  1.00  0.00     0.043 A 
HETATM    8  C   UNL     1      25.610  44.637  52.214  1.00  0.00    -0.035 A 
HETATM    9  C   UNL     1      24.355  44.656  51.388  1.00  0.00     0.050 C 
HETATM   10  C   UNL     1      25.928  45.832  52.891  1.00  0.00     0.010 A 
HETATM   11  C   UNL     1      27.016  45.913  53.762  1.00  0.00     0.016 A 
HETATM   12  C   UNL     1      27.819  44.797  53.986  1.00  0.00     0.019 A 
HETATM   13  C   UNL     1      27.522  43.614  53.291  1.00  0.00     0.046 A 
BRANCH  12  14
HETATM   14  C   UNL     1      28.952  44.821  54.906  1.00  0.00     0.179 A 
HETATM   15  O   UNL     1      29.764  43.716  54.926  1.00  0.00    -0.302 OA
HETATM   16  C   UNL     1      30.716  44.018  55.852  1.00  0.00     0.163 A 
HETATM   17  C   UNL     1      30.446  45.269  56.344  1.00  0.00     0.144 A 
HETATM   18  N   UNL     1      29.325  45.778  55.739  1.00  0.00    -0.234 NA
ENDBRANCH  12  14
ENDBRANCH   1   7
BRANCH   3  19
HETATM   19  C   UNL     1      26.379  40.075  48.829  1.00  0.00     0.164 C 
BRANCH  19  20
HETATM   20  C   UNL     1      27.849  40.027  48.325  1.00  0.00     0.261 C 
BRANCH  20  21
HETATM   21  N   UNL     1      28.029  39.738  46.832  1.00  0.00    -0.067 N 
HETATM   22  H   UNL     1      28.946  39.279  46.780  1.00  0.00     0.280 HD
HETATM   23  C   UNL     1      27.082  38.749  46.217  1.00  0.00     0.270 C 
HETATM   24  C   UNL     1      28.143  40.980  45.995  1.00  0.00     0.270 C 
ENDBRANCH  20  21
BRANCH  20  25
HETATM   25  C   UNL     1      28.718  39.171  49.200  1.00  0.00     0.085 A 
HETATM   26  O   UNL     1      28.722  39.444  50.538  1.00  0.00    -0.325 OA
HETATM   27  C   UNL     1      29.570  38.560  51.125  1.00  0.00     0.142 A 
HETATM   28  C   UNL     1      30.113  37.721  50.182  1.00  0.00     0.027 A 
HETATM   29  C   UNL     1      29.565  38.113  48.937  1.00  0.00     0.037 A 
ENDBRANCH  20  25
ENDBRANCH  19  20
ENDBRANCH   3  19
TORSDOF 6
ENDMDL
MODEL 10
REMARK VINA RESULT:      -7.2      2.207      8.928
REMARK  6 active torsions:
REMARK  status: ('A' for Active; 'I' for Inactive)
REMARK    1  A    between atoms: C_3  and  N_4 
REMARK       I    between atoms: N_4  and  C_5 
REMARK       I    between atoms: C_5  and  N_6 
REMARK    2  A    between atoms: N_6  and  C_7 
REMARK    3  A    between atoms: C_7  and  C_8 
REMARK    4  A    between atoms: C_8  and  N_9 
REMARK    5  A    between atoms: C_8  and  C_13 
REMARK    6  A    between atoms: C_20  and  C_21 
ROOT
HETATM    1  N   UNL     1      26.960  44.830  51.113  1.00  0.00    -0.309 N 
HETATM    2  C   UNL     1      25.735  45.443  51.189  1.00  0.00     0.320 C 
HETATM    3  N   UNL     1      25.582  46.380  50.191  1.00  0.00    -0.340 N 
HETATM    4  O   UNL     1      24.837  45.232  51.991  1.00  0.00    -0.247 OA
HETATM    5  H   UNL     1      27.679  45.426  50.726  1.00  0.00     0.170 HD
HETATM    6  H   UNL     1      26.298  46.463  49.479  1.00  0.00     0.164 HD
ENDROOT
BRANCH   1   7
HETATM    7  C   UNL     1      27.450  43.774  51.921  1.00  0.00     0.043 A 
HETATM    8  C   UNL     1      27.195  42.404  51.750  1.00  0.00    -0.035 A 
HETATM    9  C   UNL     1      26.417  41.806  50.613  1.00  0.00     0.050 C 
HETATM   10  C   UNL     1      27.725  41.496  52.689  1.00  0.00     0.010 A 
HETATM   11  C   UNL     1      28.543  41.920  53.738  1.00  0.00     0.016 A 
HETATM   12  C   UNL     1      28.860  43.270  53.877  1.00  0.00     0.019 A 
HETATM   13  C   UNL     1      28.310  44.180  52.961  1.00  0.00     0.046 A 
BRANCH  12  14
HETATM   14  C   UNL     1      29.731  43.762  54.940  1.00  0.00     0.179 A 
HETATM   15  O   UNL     1      29.493  45.030  55.405  1.00  0.00    -0.302 OA
HETATM   16  C   UNL     1      30.434  45.213  56.373  1.00  0.00     0.163 A 
HETATM   17  C   UNL     1      31.188  44.070  56.452  1.00  0.00     0.144 A 
HETATM   18  N   UNL     1      30.736  43.149  55.541  1.00  0.00    -0.234 NA
ENDBRANCH  12  14
ENDBRANCH   1   7
BRANCH   3  19
HETATM   19  C   UNL     1      24.467  47.315  50.171  1.00  0.00     0.164 C 
BRANCH  19  20
HETATM   20  C   UNL     1      23.784  47.566  48.796  1.00  0.00     0.261 C 
BRANCH  20  21
HETATM   21  N   UNL     1      23.382  49.016  48.510  1.00  0.00    -0.067 N 
HETATM   22  H   UNL     1      22.800  48.948  47.667  1.00  0.00     0.280 HD
HETATM   23  C   UNL     1      22.495  49.683  49.521  1.00  0.00     0.270 C 
HETATM   24  C   UNL     1      24.544  49.893  48.137  1.00  0.00     0.270 C 
ENDBRANCH  20  21
BRANCH  20  25
HETATM   25  C   UNL     1      22.681  46.585  48.527  1.00  0.00     0.085 A 
HETATM   26  O   UNL     1      22.732  45.389  49.183  1.00  0.00    -0.325 OA
HETATM   27  C   UNL     1      21.650  44.668  48.788  1.00  0.00     0.142 A 
HETATM   28  C   UNL     1      20.903  45.384  47.885  1.00  0.00     0.027 A 
HETATM   29  C   UNL     1      21.565  46.624  47.714  1.00  0.00     0.037 A 
ENDBRANCH  20  25
ENDBRANCH  19  20
ENDBRANCH   3  19
TORSDOF 6
ENDMDL
