MODEL 1
REMARK VINA RESULT:      -8.7      0.000      0.000
REMARK  3 active torsions:
REMARK  status: ('A' for Active; 'I' for Inactive)
REMARK    1  A    between atoms: C_2  and  C_3 
REMARK    2  A    between atoms: C_12  and  C_13 
REMARK    3  A    between atoms: C_16  and  O_17 
ROOT
HETATM    1  C   UNL     1      16.394  47.574  45.029  1.00  0.00    -0.007 C 
HETATM    2  C   UNL     1      17.569  48.558  44.821  1.00  0.00     0.009 C 
HETATM    3  C   UNL     1      17.242  50.045  45.054  1.00  0.00     0.056 C 
HETATM    4  C   UNL     1      16.409  50.342  46.320  1.00  0.00     0.129 C 
HETATM    5  N   UNL     1      17.212  50.452  47.568  1.00  0.00    -0.223 N 
HETATM    6  C   UNL     1      16.707  51.167  48.665  1.00  0.00     0.142 C 
HETATM    7  N   UNL     1      17.271  50.923  49.887  1.00  0.00    -0.305 N 
HETATM    8  C   UNL     1      18.439  50.215  49.995  1.00  0.00     0.278 C 
HETATM    9  O   UNL     1      18.879  49.826  51.064  1.00  0.00    -0.265 OA
HETATM   10  C   UNL     1      19.178  50.007  48.667  1.00  0.00     0.155 C 
HETATM   11  N   UNL     1      18.527  50.043  47.529  1.00  0.00    -0.162 NA
HETATM   12  C   UNL     1      15.729  52.091  48.519  1.00  0.00     0.036 C 
HETATM   13  C   UNL     1      15.352  52.399  47.092  1.00  0.00     0.044 C 
HETATM   14  N   UNL     1      15.723  51.653  46.113  1.00  0.00    -0.361 N 
HETATM   15  H   UNL     1      15.477  51.913  45.160  1.00  0.00     0.162 HD
HETATM   16  C   UNL     1      15.117  52.886  49.568  1.00  0.00     0.017 C 
HETATM   17  C   UNL     1      14.318  53.919  49.268  1.00  0.00     0.001 C 
HETATM   18  C   UNL     1      14.054  54.302  47.901  1.00  0.00     0.002 C 
HETATM   19  C   UNL     1      14.526  53.614  46.853  1.00  0.00     0.030 C 
HETATM   20  C   UNL     1      15.268  49.313  46.514  1.00  0.00     0.056 C 
HETATM   21  C   UNL     1      15.742  47.877  46.387  1.00  0.00     0.009 C 
HETATM   22  H   UNL     1      16.866  51.231  50.759  1.00  0.00     0.170 HD
ENDROOT
BRANCH   1  23
HETATM   23  C   UNL     1      15.422  47.387  43.789  1.00  0.00    -0.048 C 
HETATM   24  C   UNL     1      16.100  46.423  42.783  1.00  0.00     0.015 C 
HETATM   25  C   UNL     1      15.097  48.678  43.017  1.00  0.00     0.015 C 
HETATM   26  C   UNL     1      14.082  46.736  44.194  1.00  0.00     0.015 C 
ENDBRANCH   1  23
BRANCH  10  27
HETATM   27  C   UNL     1      20.666  49.875  48.665  1.00  0.00     0.000 A 
HETATM   28  C   UNL     1      21.464  51.021  48.579  1.00  0.00     0.017 A 
HETATM   29  C   UNL     1      22.853  50.922  48.717  1.00  0.00     0.037 A 
HETATM   30  C   UNL     1      23.465  49.689  48.958  1.00  0.00     0.068 A 
HETATM   31  C   UNL     1      22.675  48.544  49.027  1.00  0.00     0.037 A 
HETATM   32  C   UNL     1      21.284  48.637  48.888  1.00  0.00     0.017 A 
BRANCH  30  33
HETATM   33  O   UNL     1      24.821  49.735  49.110  1.00  0.00    -0.356 OA
HETATM   34  C   UNL     1      25.592  50.001  47.943  1.00  0.00     0.210 C 
ENDBRANCH  30  33
ENDBRANCH  10  27
TORSDOF 3
ENDMDL
MODEL 2
REMARK VINA RESULT:      -8.6      3.879      7.981
REMARK  3 active torsions:
REMARK  status: ('A' for Active; 'I' for Inactive)
REMARK    1  A    between atoms: C_2  and  C_3 
REMARK    2  A    between atoms: C_12  and  C_13 
REMARK    3  A    between atoms: C_16  and  O_17 
ROOT
HETATM    1  C   UNL     1      18.425  49.964  48.632  1.00  0.00    -0.007 C 
HETATM    2  C   UNL     1      18.832  49.367  47.265  1.00  0.00     0.009 C 
HETATM    3  C   UNL     1      20.326  49.482  46.906  1.00  0.00     0.056 C 
HETATM    4  C   UNL     1      21.303  49.126  48.048  1.00  0.00     0.129 C 
HETATM    5  N   UNL     1      21.577  47.670  48.186  1.00  0.00    -0.223 N 
HETATM    6  C   UNL     1      22.755  47.235  48.813  1.00  0.00     0.142 C 
HETATM    7  N   UNL     1      22.787  45.944  49.264  1.00  0.00    -0.305 N 
HETATM    8  C   UNL     1      21.822  45.044  48.892  1.00  0.00     0.278 C 
HETATM    9  O   UNL     1      21.714  43.943  49.405  1.00  0.00    -0.265 OA
HETATM   10  C   UNL     1      20.932  45.513  47.735  1.00  0.00     0.155 C 
HETATM   11  N   UNL     1      20.776  46.792  47.490  1.00  0.00    -0.162 NA
HETATM   12  C   UNL     1      23.833  48.043  48.935  1.00  0.00     0.036 C 
HETATM   13  C   UNL     1      23.724  49.362  48.211  1.00  0.00     0.044 C 
HETATM   14  N   UNL     1      22.604  49.799  47.756  1.00  0.00    -0.361 N 
HETATM   15  H   UNL     1      22.577  50.678  47.242  1.00  0.00     0.162 HD
HETATM   16  C   UNL     1      25.099  47.720  49.566  1.00  0.00     0.017 C 
HETATM   17  C   UNL     1      26.160  48.527  49.428  1.00  0.00     0.001 C 
HETATM   18  C   UNL     1      26.102  49.727  48.629  1.00  0.00     0.002 C 
HETATM   19  C   UNL     1      24.975  50.150  48.039  1.00  0.00     0.030 C 
HETATM   20  C   UNL     1      20.840  49.709  49.405  1.00  0.00     0.056 C 
HETATM   21  C   UNL     1      19.381  49.418  49.705  1.00  0.00     0.009 C 
HETATM   22  H   UNL     1      23.495  45.590  49.890  1.00  0.00     0.170 HD
ENDROOT
BRANCH   1  23
HETATM   23  C   UNL     1      18.142  51.525  48.647  1.00  0.00    -0.048 C 
HETATM   24  C   UNL     1      17.186  51.855  47.473  1.00  0.00     0.015 C 
HETATM   25  C   UNL     1      19.386  52.414  48.470  1.00  0.00     0.015 C 
HETATM   26  C   UNL     1      17.429  51.974  49.940  1.00  0.00     0.015 C 
ENDBRANCH   1  23
BRANCH  10  27
HETATM   27  C   UNL     1      20.331  44.503  46.812  1.00  0.00     0.000 A 
HETATM   28  C   UNL     1      18.985  44.611  46.447  1.00  0.00     0.017 A 
HETATM   29  C   UNL     1      18.449  43.756  45.477  1.00  0.00     0.037 A 
HETATM   30  C   UNL     1      19.245  42.795  44.848  1.00  0.00     0.068 A 
HETATM   31  C   UNL     1      20.581  42.673  45.222  1.00  0.00     0.037 A 
HETATM   32  C   UNL     1      21.123  43.526  46.193  1.00  0.00     0.017 A 
BRANCH  30  33
HETATM   33  O   UNL     1      18.611  42.051  43.895  1.00  0.00    -0.356 OA
HETATM   34  C   UNL     1      17.310  42.479  43.504  1.00  0.00     0.210 C 
ENDBRANCH  30  33
ENDBRANCH  10  27
TORSDOF 3
ENDMDL
MODEL 3
REMARK VINA RESULT:      -8.6      4.059      8.149
REMARK  3 active torsions:
REMARK  status: ('A' for Active; 'I' for Inactive)
REMARK    1  A    between atoms: C_2  and  C_3 
REMARK    2  A    between atoms: C_12  and  C_13 
REMARK    3  A    between atoms: C_16  and  O_17 
ROOT
HETATM    1  C   UNL     1      20.640  45.082  45.693  1.00  0.00    -0.007 C 
HETATM    2  C   UNL     1      19.861  45.537  46.948  1.00  0.00     0.009 C 
HETATM    3  C   UNL     1      20.496  45.159  48.300  1.00  0.00     0.056 C 
HETATM    4  C   UNL     1      22.018  45.402  48.400  1.00  0.00     0.129 C 
HETATM    5  N   UNL     1      22.392  46.797  48.757  1.00  0.00    -0.223 N 
HETATM    6  C   UNL     1      23.641  47.060  49.342  1.00  0.00     0.142 C 
HETATM    7  N   UNL     1      24.099  48.348  49.293  1.00  0.00    -0.305 N 
HETATM    8  C   UNL     1      23.271  49.376  48.927  1.00  0.00     0.278 C 
HETATM    9  O   UNL     1      23.679  50.503  48.701  1.00  0.00    -0.265 OA
HETATM   10  C   UNL     1      21.783  49.007  48.886  1.00  0.00     0.155 C 
HETATM   11  N   UNL     1      21.410  47.762  48.714  1.00  0.00    -0.162 NA
HETATM   12  C   UNL     1      24.349  46.090  49.966  1.00  0.00     0.036 C 
HETATM   13  C   UNL     1      23.628  44.775  50.120  1.00  0.00     0.044 C 
HETATM   14  N   UNL     1      22.550  44.509  49.472  1.00  0.00    -0.361 N 
HETATM   15  H   UNL     1      22.073  43.623  49.630  1.00  0.00     0.162 HD
HETATM   16  C   UNL     1      25.648  46.228  50.598  1.00  0.00     0.017 C 
HETATM   17  C   UNL     1      26.142  45.251  51.369  1.00  0.00     0.001 C 
HETATM   18  C   UNL     1      25.401  44.040  51.628  1.00  0.00     0.002 C 
HETATM   19  C   UNL     1      24.214  43.783  51.062  1.00  0.00     0.030 C 
HETATM   20  C   UNL     1      22.756  44.970  47.109  1.00  0.00     0.056 C 
HETATM   21  C   UNL     1      22.107  45.513  45.849  1.00  0.00     0.009 C 
HETATM   22  H   UNL     1      25.050  48.609  49.506  1.00  0.00     0.170 HD
ENDROOT
BRANCH   1  23
HETATM   23  C   UNL     1      20.373  43.593  45.217  1.00  0.00    -0.048 C 
HETATM   24  C   UNL     1      18.848  43.416  45.011  1.00  0.00     0.015 C 
HETATM   25  C   UNL     1      20.816  42.504  46.209  1.00  0.00     0.015 C 
HETATM   26  C   UNL     1      21.043  43.287  43.860  1.00  0.00     0.015 C 
ENDBRANCH   1  23
BRANCH  10  27
HETATM   27  C   UNL     1      20.756  50.058  49.157  1.00  0.00     0.000 A 
HETATM   28  C   UNL     1      20.721  51.214  48.372  1.00  0.00     0.017 A 
HETATM   29  C   UNL     1      19.681  52.137  48.525  1.00  0.00     0.037 A 
HETATM   30  C   UNL     1      18.655  51.916  49.448  1.00  0.00     0.068 A 
HETATM   31  C   UNL     1      18.695  50.774  50.244  1.00  0.00     0.037 A 
HETATM   32  C   UNL     1      19.736  49.847  50.096  1.00  0.00     0.017 A 
BRANCH  30  33
HETATM   33  O   UNL     1      17.681  52.873  49.472  1.00  0.00    -0.356 OA
HETATM   34  C   UNL     1      16.374  52.454  49.851  1.00  0.00     0.210 C 
ENDBRANCH  30  33
ENDBRANCH  10  27
TORSDOF 3
ENDMDL
MODEL 4
REMARK VINA RESULT:      -8.3      6.668     11.830
REMARK  3 active torsions:
REMARK  status: ('A' for Active; 'I' for Inactive)
REMARK    1  A    between atoms: C_2  and  C_3 
REMARK    2  A    between atoms: C_12  and  C_13 
REMARK    3  A    between atoms: C_16  and  O_17 
ROOT
HETATM    1  C   UNL     1      26.630  44.394  52.688  1.00  0.00    -0.007 C 
HETATM    2  C   UNL     1      26.825  45.300  51.451  1.00  0.00     0.009 C 
HETATM    3  C   UNL     1      26.974  44.567  50.104  1.00  0.00     0.056 C 
HETATM    4  C   UNL     1      25.972  43.415  49.871  1.00  0.00     0.129 C 
HETATM    5  N   UNL     1      24.651  43.853  49.343  1.00  0.00    -0.223 N 
HETATM    6  C   UNL     1      23.839  42.944  48.646  1.00  0.00     0.142 C 
HETATM    7  N   UNL     1      22.512  43.251  48.526  1.00  0.00    -0.305 N 
HETATM    8  C   UNL     1      22.047  44.501  48.841  1.00  0.00     0.278 C 
HETATM    9  O   UNL     1      20.858  44.763  48.918  1.00  0.00    -0.265 OA
HETATM   10  C   UNL     1      23.144  45.556  49.028  1.00  0.00     0.155 C 
HETATM   11  N   UNL     1      24.363  45.199  49.356  1.00  0.00    -0.162 NA
HETATM   12  C   UNL     1      24.352  41.828  48.078  1.00  0.00     0.036 C 
HETATM   13  C   UNL     1      25.856  41.728  48.115  1.00  0.00     0.044 C 
HETATM   14  N   UNL     1      26.571  42.491  48.862  1.00  0.00    -0.361 N 
HETATM   15  H   UNL     1      27.587  42.417  48.833  1.00  0.00     0.162 HD
HETATM   16  C   UNL     1      23.624  40.810  47.343  1.00  0.00     0.017 C 
HETATM   17  C   UNL     1      24.275  39.871  46.644  1.00  0.00     0.001 C 
HETATM   18  C   UNL     1      25.716  39.845  46.568  1.00  0.00     0.002 C 
HETATM   19  C   UNL     1      26.492  40.704  47.242  1.00  0.00     0.030 C 
HETATM   20  C   UNL     1      25.775  42.555  51.143  1.00  0.00     0.056 C 
HETATM   21  C   UNL     1      25.507  43.389  52.383  1.00  0.00     0.009 C 
HETATM   22  H   UNL     1      21.813  42.591  48.219  1.00  0.00     0.170 HD
ENDROOT
BRANCH   1  23
HETATM   23  C   UNL     1      27.957  43.815  53.336  1.00  0.00    -0.048 C 
HETATM   24  C   UNL     1      28.503  44.862  54.339  1.00  0.00     0.015 C 
HETATM   25  C   UNL     1      29.093  43.522  52.340  1.00  0.00     0.015 C 
HETATM   26  C   UNL     1      27.697  42.522  54.139  1.00  0.00     0.015 C 
ENDBRANCH   1  23
BRANCH  10  27
HETATM   27  C   UNL     1      22.848  46.989  48.722  1.00  0.00     0.000 A 
HETATM   28  C   UNL     1      21.861  47.308  47.784  1.00  0.00     0.017 A 
HETATM   29  C   UNL     1      21.479  48.641  47.592  1.00  0.00     0.037 A 
HETATM   30  C   UNL     1      22.060  49.668  48.340  1.00  0.00     0.068 A 
HETATM   31  C   UNL     1      23.055  49.356  49.262  1.00  0.00     0.037 A 
HETATM   32  C   UNL     1      23.442  48.024  49.457  1.00  0.00     0.017 A 
BRANCH  30  33
HETATM   33  O   UNL     1      21.572  50.918  48.083  1.00  0.00    -0.356 OA
HETATM   34  C   UNL     1      20.336  51.267  48.700  1.00  0.00     0.210 C 
ENDBRANCH  30  33
ENDBRANCH  10  27
TORSDOF 3
ENDMDL
MODEL 5
REMARK VINA RESULT:      -8.0     26.005     30.360
REMARK  3 active torsions:
REMARK  status: ('A' for Active; 'I' for Inactive)
REMARK    1  A    between atoms: C_2  and  C_3 
REMARK    2  A    between atoms: C_12  and  C_13 
REMARK    3  A    between atoms: C_16  and  O_17 
ROOT
HETATM    1  C   UNL     1      43.803  44.787  65.034  1.00  0.00    -0.007 C 
HETATM    2  C   UNL     1      43.260  43.819  66.110  1.00  0.00     0.009 C 
HETATM    3  C   UNL     1      41.825  44.100  66.597  1.00  0.00     0.056 C 
HETATM    4  C   UNL     1      40.805  44.413  65.480  1.00  0.00     0.129 C 
HETATM    5  N   UNL     1      40.217  43.208  64.835  1.00  0.00    -0.223 N 
HETATM    6  C   UNL     1      38.978  43.298  64.181  1.00  0.00     0.142 C 
HETATM    7  N   UNL     1      38.665  42.309  63.290  1.00  0.00    -0.305 N 
HETATM    8  C   UNL     1      39.402  41.155  63.231  1.00  0.00     0.278 C 
HETATM    9  O   UNL     1      39.268  40.332  62.341  1.00  0.00    -0.265 OA
HETATM   10  C   UNL     1      40.362  40.957  64.409  1.00  0.00     0.155 C 
HETATM   11  N   UNL     1      40.795  41.986  65.097  1.00  0.00    -0.162 NA
HETATM   12  C   UNL     1      38.107  44.299  64.447  1.00  0.00     0.036 C 
HETATM   13  C   UNL     1      38.499  45.195  65.596  1.00  0.00     0.044 C 
HETATM   14  N   UNL     1      39.683  45.183  66.096  1.00  0.00    -0.361 N 
HETATM   15  H   UNL     1      39.899  45.778  66.894  1.00  0.00     0.162 HD
HETATM   16  C   UNL     1      36.808  44.510  63.837  1.00  0.00     0.017 C 
HETATM   17  C   UNL     1      35.951  45.408  64.342  1.00  0.00     0.001 C 
HETATM   18  C   UNL     1      36.266  46.179  65.520  1.00  0.00     0.002 C 
HETATM   19  C   UNL     1      37.452  46.103  66.139  1.00  0.00     0.030 C 
HETATM   20  C   UNL     1      41.399  45.353  64.403  1.00  0.00     0.056 C 
HETATM   21  C   UNL     1      42.761  44.898  63.910  1.00  0.00     0.009 C 
HETATM   22  H   UNL     1      37.902  42.373  62.632  1.00  0.00     0.170 HD
ENDROOT
BRANCH   1  23
HETATM   23  C   UNL     1      44.426  46.142  65.575  1.00  0.00    -0.048 C 
HETATM   24  C   UNL     1      45.225  45.827  66.865  1.00  0.00     0.015 C 
HETATM   25  C   UNL     1      43.400  47.228  65.943  1.00  0.00     0.015 C 
HETATM   26  C   UNL     1      45.423  46.764  64.574  1.00  0.00     0.015 C 
ENDBRANCH   1  23
BRANCH  10  27
HETATM   27  C   UNL     1      40.715  39.572  64.847  1.00  0.00     0.000 A 
HETATM   28  C   UNL     1      39.735  38.753  65.417  1.00  0.00     0.017 A 
HETATM   29  C   UNL     1      40.016  37.412  65.700  1.00  0.00     0.037 A 
HETATM   30  C   UNL     1      41.268  36.865  65.408  1.00  0.00     0.068 A 
HETATM   31  C   UNL     1      42.252  37.681  64.856  1.00  0.00     0.037 A 
HETATM   32  C   UNL     1      41.976  39.025  64.571  1.00  0.00     0.017 A 
BRANCH  30  33
HETATM   33  O   UNL     1      41.402  35.537  65.698  1.00  0.00    -0.356 OA
HETATM   34  C   UNL     1      40.226  34.845  66.104  1.00  0.00     0.210 C 
ENDBRANCH  30  33
ENDBRANCH  10  27
TORSDOF 3
ENDMDL
MODEL 6
REMARK VINA RESULT:      -7.5      8.716     14.144
REMARK  3 active torsions:
REMARK  status: ('A' for Active; 'I' for Inactive)
REMARK    1  A    between atoms: C_2  and  C_3 
REMARK    2  A    between atoms: C_12  and  C_13 
REMARK    3  A    between atoms: C_16  and  O_17 
ROOT
HETATM    1  C   UNL     1      28.580  43.830  54.477  1.00  0.00    -0.007 C 
HETATM    2  C   UNL     1      28.606  44.577  53.125  1.00  0.00     0.009 C 
HETATM    3  C   UNL     1      28.858  43.700  51.883  1.00  0.00     0.056 C 
HETATM    4  C   UNL     1      28.059  42.379  51.840  1.00  0.00     0.129 C 
HETATM    5  N   UNL     1      26.677  42.519  51.306  1.00  0.00    -0.223 N 
HETATM    6  C   UNL     1      26.020  41.402  50.765  1.00  0.00     0.142 C 
HETATM    7  N   UNL     1      24.658  41.469  50.652  1.00  0.00    -0.305 N 
HETATM    8  C   UNL     1      23.996  42.657  50.814  1.00  0.00     0.278 C 
HETATM    9  O   UNL     1      22.781  42.730  50.897  1.00  0.00    -0.265 OA
HETATM   10  C   UNL     1      24.904  43.893  50.819  1.00  0.00     0.155 C 
HETATM   11  N   UNL     1      26.169  43.789  51.149  1.00  0.00    -0.162 NA
HETATM   12  C   UNL     1      26.704  40.318  50.333  1.00  0.00     0.036 C 
HETATM   13  C   UNL     1      28.204  40.471  50.331  1.00  0.00     0.044 C 
HETATM   14  N   UNL     1      28.792  41.436  50.944  1.00  0.00    -0.361 N 
HETATM   15  H   UNL     1      29.805  41.525  50.890  1.00  0.00     0.162 HD
HETATM   16  C   UNL     1      26.147  39.104  49.767  1.00  0.00     0.017 C 
HETATM   17  C   UNL     1      26.937  38.196  49.177  1.00  0.00     0.001 C 
HETATM   18  C   UNL     1      28.360  38.395  49.055  1.00  0.00     0.002 C 
HETATM   19  C   UNL     1      28.991  39.455  49.581  1.00  0.00     0.030 C 
HETATM   20  C   UNL     1      28.025  41.682  53.222  1.00  0.00     0.056 C 
HETATM   21  C   UNL     1      27.637  42.623  54.349  1.00  0.00     0.009 C 
HETATM   22  H   UNL     1      24.075  40.667  50.461  1.00  0.00     0.170 HD
ENDROOT
BRANCH   1  23
HETATM   23  C   UNL     1      29.994  43.570  55.150  1.00  0.00    -0.048 C 
HETATM   24  C   UNL     1      30.969  43.078  54.051  1.00  0.00     0.015 C 
HETATM   25  C   UNL     1      30.000  42.503  56.259  1.00  0.00     0.015 C 
HETATM   26  C   UNL     1      30.602  44.860  55.740  1.00  0.00     0.015 C 
ENDBRANCH   1  23
BRANCH  10  27
HETATM   27  C   UNL     1      24.369  45.202  50.336  1.00  0.00     0.000 A 
HETATM   28  C   UNL     1      24.924  46.396  50.809  1.00  0.00     0.017 A 
HETATM   29  C   UNL     1      24.529  47.621  50.260  1.00  0.00     0.037 A 
HETATM   30  C   UNL     1      23.591  47.674  49.226  1.00  0.00     0.068 A 
HETATM   31  C   UNL     1      23.023  46.489  48.764  1.00  0.00     0.037 A 
HETATM   32  C   UNL     1      23.415  45.260  49.311  1.00  0.00     0.017 A 
BRANCH  30  33
HETATM   33  O   UNL     1      23.320  48.927  48.754  1.00  0.00    -0.356 OA
HETATM   34  C   UNL     1      24.436  49.768  48.482  1.00  0.00     0.210 C 
ENDBRANCH  30  33
ENDBRANCH  10  27
TORSDOF 3
ENDMDL
MODEL 7
REMARK VINA RESULT:      -7.4      4.818      9.260
REMARK  3 active torsions:
REMARK  status: ('A' for Active; 'I' for Inactive)
REMARK    1  A    between atoms: C_2  and  C_3 
REMARK    2  A    between atoms: C_12  and  C_13 
REMARK    3  A    between atoms: C_16  and  O_17 
ROOT
HETATM    1  C   UNL     1      23.801  44.357  50.548  1.00  0.00    -0.007 C 
HETATM    2  C   UNL     1      23.712  45.683  49.760  1.00  0.00     0.009 C 
HETATM    3  C   UNL     1      23.573  45.542  48.232  1.00  0.00     0.056 C 
HETATM    4  C   UNL     1      22.557  44.478  47.761  1.00  0.00     0.129 C 
HETATM    5  N   UNL     1      21.148  44.955  47.720  1.00  0.00    -0.223 N 
HETATM    6  C   UNL     1      20.215  44.310  46.892  1.00  0.00     0.142 C 
HETATM    7  N   UNL     1      18.890  44.509  47.166  1.00  0.00    -0.305 N 
HETATM    8  C   UNL     1      18.490  45.490  48.035  1.00  0.00     0.278 C 
HETATM    9  O   UNL     1      17.343  45.586  48.439  1.00  0.00    -0.265 OA
HETATM   10  C   UNL     1      19.589  46.494  48.406  1.00  0.00     0.155 C 
HETATM   11  N   UNL     1      20.854  46.158  48.321  1.00  0.00    -0.162 NA
HETATM   12  C   UNL     1      20.605  43.553  45.840  1.00  0.00     0.036 C 
HETATM   13  C   UNL     1      22.082  43.593  45.540  1.00  0.00     0.044 C 
HETATM   14  N   UNL     1      22.934  44.076  46.373  1.00  0.00    -0.361 N 
HETATM   15  H   UNL     1      23.920  44.117  46.120  1.00  0.00     0.162 HD
HETATM   16  C   UNL     1      19.747  42.831  44.920  1.00  0.00     0.017 C 
HETATM   17  C   UNL     1      20.241  42.300  43.793  1.00  0.00     0.001 C 
HETATM   18  C   UNL     1      21.631  42.445  43.433  1.00  0.00     0.002 C 
HETATM   19  C   UNL     1      22.526  43.050  44.227  1.00  0.00     0.030 C 
HETATM   20  C   UNL     1      22.653  43.180  48.600  1.00  0.00     0.056 C 
HETATM   21  C   UNL     1      22.651  43.443  50.095  1.00  0.00     0.009 C 
HETATM   22  H   UNL     1      18.149  43.953  46.765  1.00  0.00     0.170 HD
ENDROOT
BRANCH   1  23
HETATM   23  C   UNL     1      25.245  43.705  50.641  1.00  0.00    -0.048 C 
HETATM   24  C   UNL     1      25.849  44.061  52.022  1.00  0.00     0.015 C 
HETATM   25  C   UNL     1      26.247  44.191  49.580  1.00  0.00     0.015 C 
HETATM   26  C   UNL     1      25.193  42.164  50.561  1.00  0.00     0.015 C 
ENDBRANCH   1  23
BRANCH  10  27
HETATM   27  C   UNL     1      19.216  47.898  48.757  1.00  0.00     0.000 A 
HETATM   28  C   UNL     1      18.917  48.225  50.083  1.00  0.00     0.017 A 
HETATM   29  C   UNL     1      18.705  49.559  50.447  1.00  0.00     0.037 A 
HETATM   30  C   UNL     1      18.802  50.585  49.503  1.00  0.00     0.068 A 
HETATM   31  C   UNL     1      19.082  50.261  48.178  1.00  0.00     0.037 A 
HETATM   32  C   UNL     1      19.295  48.926  47.808  1.00  0.00     0.017 A 
BRANCH  30  33
HETATM   33  O   UNL     1      18.609  51.845  49.994  1.00  0.00    -0.356 OA
HETATM   34  C   UNL     1      17.327  52.427  49.789  1.00  0.00     0.210 C 
ENDBRANCH  30  33
ENDBRANCH  10  27
TORSDOF 3
ENDMDL
MODEL 8
REMARK VINA RESULT:      -7.4     27.113     30.396
REMARK  3 active torsions:
REMARK  status: ('A' for Active; 'I' for Inactive)
REMARK    1  A    between atoms: C_2  and  C_3 
REMARK    2  A    between atoms: C_12  and  C_13 
REMARK    3  A    between atoms: C_16  and  O_17 
ROOT
HETATM    1  C   UNL     1      39.516  50.021  66.565  1.00  0.00    -0.007 C 
HETATM    2  C   UNL     1      40.125  48.973  67.524  1.00  0.00     0.009 C 
HETATM    3  C   UNL     1      39.573  47.541  67.383  1.00  0.00     0.056 C 
HETATM    4  C   UNL     1      39.428  47.034  65.931  1.00  0.00     0.129 C 
HETATM    5  N   UNL     1      40.680  46.476  65.351  1.00  0.00    -0.223 N 
HETATM    6  C   UNL     1      40.612  45.570  64.281  1.00  0.00     0.142 C 
HETATM    7  N   UNL     1      41.746  45.389  63.539  1.00  0.00    -0.305 N 
HETATM    8  C   UNL     1      42.955  45.866  63.972  1.00  0.00     0.278 C 
HETATM    9  O   UNL     1      43.950  45.882  63.267  1.00  0.00    -0.265 OA
HETATM   10  C   UNL     1      42.968  46.318  65.438  1.00  0.00     0.155 C 
HETATM   11  N   UNL     1      41.858  46.686  66.031  1.00  0.00    -0.162 NA
HETATM   12  C   UNL     1      39.484  44.871  64.014  1.00  0.00     0.036 C 
HETATM   13  C   UNL     1      38.386  45.020  65.037  1.00  0.00     0.044 C 
HETATM   14  N   UNL     1      38.409  45.942  65.933  1.00  0.00    -0.361 N 
HETATM   15  H   UNL     1      37.667  45.989  66.628  1.00  0.00     0.162 HD
HETATM   16  C   UNL     1      39.282  43.918  62.939  1.00  0.00     0.017 C 
HETATM   17  C   UNL     1      38.197  43.132  62.913  1.00  0.00     0.001 C 
HETATM   18  C   UNL     1      37.204  43.176  63.959  1.00  0.00     0.002 C 
HETATM   19  C   UNL     1      37.261  44.048  64.975  1.00  0.00     0.030 C 
HETATM   20  C   UNL     1      38.852  48.125  64.995  1.00  0.00     0.056 C 
HETATM   21  C   UNL     1      39.565  49.459  65.135  1.00  0.00     0.009 C 
HETATM   22  H   UNL     1      41.758  44.918  62.646  1.00  0.00     0.170 HD
ENDROOT
BRANCH   1  23
HETATM   23  C   UNL     1      38.149  50.676  67.034  1.00  0.00    -0.048 C 
HETATM   24  C   UNL     1      38.378  51.332  68.419  1.00  0.00     0.015 C 
HETATM   25  C   UNL     1      36.979  49.690  67.199  1.00  0.00     0.015 C 
HETATM   26  C   UNL     1      37.684  51.797  66.081  1.00  0.00     0.015 C 
ENDBRANCH   1  23
BRANCH  10  27
HETATM   27  C   UNL     1      44.235  46.229  66.225  1.00  0.00     0.000 A 
HETATM   28  C   UNL     1      44.857  47.399  66.673  1.00  0.00     0.017 A 
HETATM   29  C   UNL     1      45.963  47.324  67.527  1.00  0.00     0.037 A 
HETATM   30  C   UNL     1      46.455  46.089  67.957  1.00  0.00     0.068 A 
HETATM   31  C   UNL     1      45.850  44.922  67.499  1.00  0.00     0.037 A 
HETATM   32  C   UNL     1      44.743  44.991  66.643  1.00  0.00     0.017 A 
BRANCH  30  33
HETATM   33  O   UNL     1      47.514  46.155  68.817  1.00  0.00    -0.356 OA
HETATM   34  C   UNL     1      47.229  46.523  70.163  1.00  0.00     0.210 C 
ENDBRANCH  30  33
ENDBRANCH  10  27
TORSDOF 3
ENDMDL
MODEL 9
REMARK VINA RESULT:      -7.3     15.586     20.162
REMARK  3 active torsions:
REMARK  status: ('A' for Active; 'I' for Inactive)
REMARK    1  A    between atoms: C_2  and  C_3 
REMARK    2  A    between atoms: C_12  and  C_13 
REMARK    3  A    between atoms: C_16  and  O_17 
ROOT
HETATM    1  C   UNL     1      32.697  51.195  41.514  1.00  0.00    -0.007 C 
HETATM    2  C   UNL     1      33.819  50.585  42.384  1.00  0.00     0.009 C 
HETATM    3  C   UNL     1      35.032  50.029  41.613  1.00  0.00     0.056 C 
HETATM    4  C   UNL     1      35.558  50.934  40.477  1.00  0.00     0.129 C 
HETATM    5  N   UNL     1      36.492  52.000  40.929  1.00  0.00    -0.223 N 
HETATM    6  C   UNL     1      37.399  52.568  40.019  1.00  0.00     0.142 C 
HETATM    7  N   UNL     1      37.948  53.775  40.351  1.00  0.00    -0.305 N 
HETATM    8  C   UNL     1      37.822  54.282  41.618  1.00  0.00     0.278 C 
HETATM    9  O   UNL     1      38.140  55.424  41.907  1.00  0.00    -0.265 OA
HETATM   10  C   UNL     1      37.309  53.275  42.654  1.00  0.00     0.155 C 
HETATM   11  N   UNL     1      36.598  52.239  42.281  1.00  0.00    -0.162 NA
HETATM   12  C   UNL     1      37.750  51.930  38.878  1.00  0.00     0.036 C 
HETATM   13  C   UNL     1      37.226  50.522  38.748  1.00  0.00     0.044 C 
HETATM   14  N   UNL     1      36.301  50.066  39.515  1.00  0.00    -0.361 N 
HETATM   15  H   UNL     1      35.998  49.099  39.419  1.00  0.00     0.162 HD
HETATM   16  C   UNL     1      38.663  52.410  37.858  1.00  0.00     0.017 C 
HETATM   17  C   UNL     1      39.097  51.594  36.887  1.00  0.00     0.001 C 
HETATM   18  C   UNL     1      38.702  50.207  36.829  1.00  0.00     0.002 C 
HETATM   19  C   UNL     1      37.827  49.667  37.689  1.00  0.00     0.030 C 
HETATM   20  C   UNL     1      34.403  51.555  39.655  1.00  0.00     0.056 C 
HETATM   21  C   UNL     1      33.331  52.186  40.526  1.00  0.00     0.009 C 
HETATM   22  H   UNL     1      38.453  54.356  39.697  1.00  0.00     0.170 HD
ENDROOT
BRANCH   1  23
HETATM   23  C   UNL     1      31.643  50.165  40.924  1.00  0.00    -0.048 C 
HETATM   24  C   UNL     1      30.497  50.003  41.954  1.00  0.00     0.015 C 
HETATM   25  C   UNL     1      32.196  48.756  40.649  1.00  0.00     0.015 C 
HETATM   26  C   UNL     1      30.999  50.677  39.618  1.00  0.00     0.015 C 
ENDBRANCH   1  23
BRANCH  10  27
HETATM   27  C   UNL     1      37.720  53.416  44.084  1.00  0.00     0.000 A 
HETATM   28  C   UNL     1      38.686  52.557  44.617  1.00  0.00     0.017 A 
HETATM   29  C   UNL     1      39.179  52.768  45.909  1.00  0.00     0.037 A 
HETATM   30  C   UNL     1      38.730  53.842  46.682  1.00  0.00     0.068 A 
HETATM   31  C   UNL     1      37.755  54.689  46.162  1.00  0.00     0.037 A 
HETATM   32  C   UNL     1      37.257  54.482  44.869  1.00  0.00     0.017 A 
BRANCH  30  33
HETATM   33  O   UNL     1      39.317  53.957  47.909  1.00  0.00    -0.356 OA
HETATM   34  C   UNL     1      40.725  54.168  47.933  1.00  0.00     0.210 C 
ENDBRANCH  30  33
ENDBRANCH  10  27
TORSDOF 3
ENDMDL
MODEL 10
REMARK VINA RESULT:      -7.2      7.658     12.715
REMARK  3 active torsions:
REMARK  status: ('A' for Active; 'I' for Inactive)
REMARK    1  A    between atoms: C_2  and  C_3 
REMARK    2  A    between atoms: C_12  and  C_13 
REMARK    3  A    between atoms: C_16  and  O_17 
ROOT
HETATM    1  C   UNL     1      24.900  44.878  51.758  1.00  0.00    -0.007 C 
HETATM    2  C   UNL     1      25.134  45.356  50.306  1.00  0.00     0.009 C 
HETATM    3  C   UNL     1      26.106  44.499  49.472  1.00  0.00     0.056 C 
HETATM    4  C   UNL     1      25.902  42.973  49.592  1.00  0.00     0.129 C 
HETATM    5  N   UNL     1      24.848  42.425  48.696  1.00  0.00    -0.223 N 
HETATM    6  C   UNL     1      24.871  41.068  48.336  1.00  0.00     0.142 C 
HETATM    7  N   UNL     1      23.711  40.527  47.855  1.00  0.00    -0.305 N 
HETATM    8  C   UNL     1      22.656  41.325  47.498  1.00  0.00     0.278 C 
HETATM    9  O   UNL     1      21.551  40.880  47.234  1.00  0.00    -0.265 OA
HETATM   10  C   UNL     1      22.997  42.816  47.396  1.00  0.00     0.155 C 
HETATM   11  N   UNL     1      24.010  43.315  48.062  1.00  0.00    -0.162 NA
HETATM   12  C   UNL     1      26.003  40.332  48.421  1.00  0.00     0.036 C 
HETATM   13  C   UNL     1      27.245  41.112  48.769  1.00  0.00     0.044 C 
HETATM   14  N   UNL     1      27.190  42.315  49.221  1.00  0.00    -0.361 N 
HETATM   15  H   UNL     1      28.053  42.821  49.412  1.00  0.00     0.162 HD
HETATM   16  C   UNL     1      26.156  38.927  48.091  1.00  0.00     0.017 C 
HETATM   17  C   UNL     1      27.372  38.370  48.008  1.00  0.00     0.001 C 
HETATM   18  C   UNL     1      28.575  39.141  48.213  1.00  0.00     0.002 C 
HETATM   19  C   UNL     1      28.555  40.434  48.569  1.00  0.00     0.030 C 
HETATM   20  C   UNL     1      25.632  42.541  51.054  1.00  0.00     0.056 C 
HETATM   21  C   UNL     1      24.562  43.379  51.728  1.00  0.00     0.009 C 
HETATM   22  H   UNL     1      23.561  39.534  47.750  1.00  0.00     0.170 HD
ENDROOT
BRANCH   1  23
HETATM   23  C   UNL     1      25.975  45.353  52.823  1.00  0.00    -0.048 C 
HETATM   24  C   UNL     1      26.165  46.883  52.671  1.00  0.00     0.015 C 
HETATM   25  C   UNL     1      27.368  44.716  52.669  1.00  0.00     0.015 C 
HETATM   26  C   UNL     1      25.507  45.105  54.273  1.00  0.00     0.015 C 
ENDBRANCH   1  23
BRANCH  10  27
HETATM   27  C   UNL     1      22.238  43.682  46.442  1.00  0.00     0.000 A 
HETATM   28  C   UNL     1      21.011  44.230  46.828  1.00  0.00     0.017 A 
HETATM   29  C   UNL     1      20.361  45.152  46.000  1.00  0.00     0.037 A 
HETATM   30  C   UNL     1      20.929  45.552  44.788  1.00  0.00     0.068 A 
HETATM   31  C   UNL     1      22.142  44.995  44.392  1.00  0.00     0.037 A 
HETATM   32  C   UNL     1      22.796  44.070  45.216  1.00  0.00     0.017 A 
BRANCH  30  33
HETATM   33  O   UNL     1      20.212  46.484  44.092  1.00  0.00    -0.356 OA
HETATM   34  C   UNL     1      19.069  46.019  43.382  1.00  0.00     0.210 C 
ENDBRANCH  30  33
ENDBRANCH  10  27
TORSDOF 3
ENDMDL
