MODEL 1
REMARK VINA RESULT:      -8.1      0.000      0.000
REMARK  6 active torsions:
REMARK  status: ('A' for Active; 'I' for Inactive)
REMARK    1  A    between atoms: O_2  and  C_3 
REMARK    2  A    between atoms: C_4  and  O_5 
REMARK    3  A    between atoms: O_5  and  C_6 
REMARK    4  A    between atoms: C_9  and  N_10 
REMARK       I    between atoms: N_10  and  C_11 
REMARK    5  A    between atoms: C_11  and  C_12 
REMARK    6  A    between atoms: C_12  and  C_13 
ROOT
HETATM    1  C   UNL     1      27.205  43.541  53.858  1.00  0.00     0.103 A 
HETATM    2  C   UNL     1      27.526  42.948  52.626  1.00  0.00     0.109 A 
HETATM    3  C   UNL     1      28.846  42.588  52.331  1.00  0.00     0.041 A 
HETATM    4  C   UNL     1      29.863  42.869  53.243  1.00  0.00     0.025 A 
HETATM    5  C   UNL     1      29.558  43.490  54.459  1.00  0.00     0.047 A 
HETATM    6  C   UNL     1      30.602  43.779  55.399  1.00  0.00     0.099 C 
HETATM    7  N   UNL     1      31.443  44.016  56.163  1.00  0.00    -0.191 NA
HETATM    8  C   UNL     1      28.231  43.824  54.767  1.00  0.00     0.062 A 
ENDROOT
BRANCH   1   9
HETATM    9  O   UNL     1      25.881  43.823  54.067  1.00  0.00    -0.353 OA
HETATM   10  C   UNL     1      25.525  45.189  54.241  1.00  0.00     0.210 C 
ENDBRANCH   1   9
BRANCH   2  11
HETATM   11  O   UNL     1      26.487  42.627  51.779  1.00  0.00    -0.308 OA
BRANCH  11  12
HETATM   12  C   UNL     1      25.922  43.614  51.007  1.00  0.00     0.076 A 
HETATM   13  C   UNL     1      24.532  43.594  50.923  1.00  0.00     0.039 A 
HETATM   14  C   UNL     1      23.848  44.585  50.212  1.00  0.00     0.032 A 
HETATM   15  C   UNL     1      24.548  45.614  49.580  1.00  0.00     0.034 A 
HETATM   16  C   UNL     1      25.947  45.631  49.672  1.00  0.00     0.032 A 
HETATM   17  C   UNL     1      26.633  44.646  50.395  1.00  0.00     0.039 A 
BRANCH  15  18
HETATM   18  N   UNL     1      23.932  46.652  48.849  1.00  0.00    -0.327 N 
HETATM   19  C   UNL     1      23.700  47.954  49.270  1.00  0.00     0.227 C 
HETATM   20  O   UNL     1      24.061  48.433  50.345  1.00  0.00    -0.273 OA
HETATM   21  H   UNL     1      23.676  46.426  47.895  1.00  0.00     0.169 HD
BRANCH  19  22
HETATM   22  C   UNL     1      22.990  48.794  48.204  1.00  0.00     0.159 C 
BRANCH  22  23
HETATM   23  C   UNL     1      21.895  49.665  48.744  1.00  0.00     0.017 A 
HETATM   24  N   UNL     1      21.059  49.269  49.766  1.00  0.00    -0.369 N 
HETATM   25  H   UNL     1      21.087  48.351  50.203  1.00  0.00     0.165 HD
HETATM   26  C   UNL     1      20.178  50.272  50.062  1.00  0.00     0.088 A 
HETATM   27  C   UNL     1      20.448  51.334  49.230  1.00  0.00     0.019 A 
HETATM   28  C   UNL     1      21.530  50.954  48.400  1.00  0.00     0.027 A 
ENDBRANCH  22  23
ENDBRANCH  19  22
ENDBRANCH  15  18
ENDBRANCH  11  12
ENDBRANCH   2  11
TORSDOF 6
ENDMDL
MODEL 2
REMARK VINA RESULT:      -8.0      1.210      2.123
REMARK  6 active torsions:
REMARK  status: ('A' for Active; 'I' for Inactive)
REMARK    1  A    between atoms: O_2  and  C_3 
REMARK    2  A    between atoms: C_4  and  O_5 
REMARK    3  A    between atoms: O_5  and  C_6 
REMARK    4  A    between atoms: C_9  and  N_10 
REMARK       I    between atoms: N_10  and  C_11 
REMARK    5  A    between atoms: C_11  and  C_12 
REMARK    6  A    between atoms: C_12  and  C_13 
ROOT
HETATM    1  C   UNL     1      28.967  43.165  53.526  1.00  0.00     0.103 A 
HETATM    2  C   UNL     1      27.768  43.799  53.160  1.00  0.00     0.109 A 
HETATM    3  C   UNL     1      27.341  44.955  53.824  1.00  0.00     0.041 A 
HETATM    4  C   UNL     1      28.083  45.454  54.895  1.00  0.00     0.025 A 
HETATM    5  C   UNL     1      29.260  44.810  55.289  1.00  0.00     0.047 A 
HETATM    6  C   UNL     1      30.024  45.323  56.389  1.00  0.00     0.099 C 
HETATM    7  N   UNL     1      30.646  45.733  57.279  1.00  0.00    -0.191 NA
HETATM    8  C   UNL     1      29.703  43.669  54.604  1.00  0.00     0.062 A 
ENDROOT
BRANCH   1   9
HETATM    9  O   UNL     1      29.317  42.062  52.792  1.00  0.00    -0.353 OA
HETATM   10  C   UNL     1      28.776  40.811  53.198  1.00  0.00     0.210 C 
ENDBRANCH   1   9
BRANCH   2  11
HETATM   11  O   UNL     1      27.098  43.315  52.056  1.00  0.00    -0.308 OA
BRANCH  11  12
HETATM   12  C   UNL     1      26.240  44.146  51.377  1.00  0.00     0.076 A 
HETATM   13  C   UNL     1      26.820  44.930  50.382  1.00  0.00     0.039 A 
HETATM   14  C   UNL     1      26.031  45.770  49.589  1.00  0.00     0.032 A 
HETATM   15  C   UNL     1      24.649  45.830  49.778  1.00  0.00     0.034 A 
HETATM   16  C   UNL     1      24.071  45.035  50.778  1.00  0.00     0.032 A 
HETATM   17  C   UNL     1      24.859  44.184  51.564  1.00  0.00     0.039 A 
BRANCH  15  18
HETATM   18  N   UNL     1      23.786  46.647  49.017  1.00  0.00    -0.327 N 
HETATM   19  C   UNL     1      23.604  48.018  49.137  1.00  0.00     0.227 C 
HETATM   20  O   UNL     1      24.228  48.758  49.896  1.00  0.00    -0.273 OA
HETATM   21  H   UNL     1      23.281  46.181  48.273  1.00  0.00     0.169 HD
BRANCH  19  22
HETATM   22  C   UNL     1      22.567  48.558  48.146  1.00  0.00     0.159 C 
BRANCH  22  23
HETATM   23  C   UNL     1      21.645  49.586  48.730  1.00  0.00     0.017 A 
HETATM   24  N   UNL     1      21.731  50.014  50.037  1.00  0.00    -0.369 N 
HETATM   25  H   UNL     1      22.391  49.642  50.717  1.00  0.00     0.165 HD
HETATM   26  C   UNL     1      20.781  50.968  50.279  1.00  0.00     0.088 A 
HETATM   27  C   UNL     1      20.074  51.167  49.117  1.00  0.00     0.019 A 
HETATM   28  C   UNL     1      20.617  50.299  48.139  1.00  0.00     0.027 A 
ENDBRANCH  22  23
ENDBRANCH  19  22
ENDBRANCH  15  18
ENDBRANCH  11  12
ENDBRANCH   2  11
TORSDOF 6
ENDMDL
MODEL 3
REMARK VINA RESULT:      -7.9      2.087      9.401
REMARK  6 active torsions:
REMARK  status: ('A' for Active; 'I' for Inactive)
REMARK    1  A    between atoms: O_2  and  C_3 
REMARK    2  A    between atoms: C_4  and  O_5 
REMARK    3  A    between atoms: O_5  and  C_6 
REMARK    4  A    between atoms: C_9  and  N_10 
REMARK       I    between atoms: N_10  and  C_11 
REMARK    5  A    between atoms: C_11  and  C_12 
REMARK    6  A    between atoms: C_12  and  C_13 
ROOT
HETATM    1  C   UNL     1      22.306  49.760  47.927  1.00  0.00     0.103 A 
HETATM    2  C   UNL     1      22.021  48.458  48.371  1.00  0.00     0.109 A 
HETATM    3  C   UNL     1      20.821  48.179  49.037  1.00  0.00     0.041 A 
HETATM    4  C   UNL     1      19.924  49.210  49.312  1.00  0.00     0.025 A 
HETATM    5  C   UNL     1      20.215  50.516  48.904  1.00  0.00     0.047 A 
HETATM    6  C   UNL     1      19.293  51.578  49.186  1.00  0.00     0.099 C 
HETATM    7  N   UNL     1      18.550  52.441  49.412  1.00  0.00    -0.191 NA
HETATM    8  C   UNL     1      21.403  50.790  48.211  1.00  0.00     0.062 A 
ENDROOT
BRANCH   1   9
HETATM    9  O   UNL     1      23.488  49.924  47.254  1.00  0.00    -0.353 OA
HETATM   10  C   UNL     1      24.576  50.489  47.975  1.00  0.00     0.210 C 
ENDBRANCH   1   9
BRANCH   2  11
HETATM   11  O   UNL     1      22.899  47.455  48.023  1.00  0.00    -0.308 OA
BRANCH  11  12
HETATM   12  C   UNL     1      23.534  46.746  49.015  1.00  0.00     0.076 A 
HETATM   13  C   UNL     1      24.308  47.499  49.895  1.00  0.00     0.039 A 
HETATM   14  C   UNL     1      24.952  46.888  50.976  1.00  0.00     0.032 A 
HETATM   15  C   UNL     1      24.822  45.515  51.194  1.00  0.00     0.034 A 
HETATM   16  C   UNL     1      24.038  44.764  50.307  1.00  0.00     0.032 A 
HETATM   17  C   UNL     1      23.382  45.377  49.231  1.00  0.00     0.039 A 
BRANCH  15  18
HETATM   18  N   UNL     1      25.435  44.827  52.263  1.00  0.00    -0.327 N 
HETATM   19  C   UNL     1      26.695  44.245  52.275  1.00  0.00     0.227 C 
HETATM   20  O   UNL     1      27.515  44.295  51.359  1.00  0.00    -0.273 OA
HETATM   21  H   UNL     1      24.910  44.801  53.128  1.00  0.00     0.169 HD
BRANCH  19  22
HETATM   22  C   UNL     1      27.013  43.570  53.613  1.00  0.00     0.159 C 
BRANCH  22  23
HETATM   23  C   UNL     1      27.961  44.347  54.477  1.00  0.00     0.017 A 
HETATM   24  N   UNL     1      27.595  45.496  55.144  1.00  0.00    -0.369 N 
HETATM   25  H   UNL     1      26.677  45.930  55.074  1.00  0.00     0.165 HD
HETATM   26  C   UNL     1      28.654  45.972  55.868  1.00  0.00     0.088 A 
HETATM   27  C   UNL     1      29.716  45.120  55.675  1.00  0.00     0.019 A 
HETATM   28  C   UNL     1      29.282  44.096  54.801  1.00  0.00     0.027 A 
ENDBRANCH  22  23
ENDBRANCH  19  22
ENDBRANCH  15  18
ENDBRANCH  11  12
ENDBRANCH   2  11
TORSDOF 6
ENDMDL
MODEL 4
REMARK VINA RESULT:      -7.8      1.863      2.971
REMARK  6 active torsions:
REMARK  status: ('A' for Active; 'I' for Inactive)
REMARK    1  A    between atoms: O_2  and  C_3 
REMARK    2  A    between atoms: C_4  and  O_5 
REMARK    3  A    between atoms: O_5  and  C_6 
REMARK    4  A    between atoms: C_9  and  N_10 
REMARK       I    between atoms: N_10  and  C_11 
REMARK    5  A    between atoms: C_11  and  C_12 
REMARK    6  A    between atoms: C_12  and  C_13 
ROOT
HETATM    1  C   UNL     1      27.857  44.501  52.790  1.00  0.00     0.103 A 
HETATM    2  C   UNL     1      26.734  45.235  52.373  1.00  0.00     0.109 A 
HETATM    3  C   UNL     1      26.192  46.234  53.190  1.00  0.00     0.041 A 
HETATM    4  C   UNL     1      26.736  46.469  54.452  1.00  0.00     0.025 A 
HETATM    5  C   UNL     1      27.833  45.720  54.891  1.00  0.00     0.047 A 
HETATM    6  C   UNL     1      28.393  45.961  56.189  1.00  0.00     0.099 C 
HETATM    7  N   UNL     1      28.850  46.151  57.239  1.00  0.00    -0.191 NA
HETATM    8  C   UNL     1      28.394  44.739  54.060  1.00  0.00     0.062 A 
ENDROOT
BRANCH   1   9
HETATM    9  O   UNL     1      28.334  43.570  51.905  1.00  0.00    -0.353 OA
HETATM   10  C   UNL     1      28.412  42.223  52.355  1.00  0.00     0.210 C 
ENDBRANCH   1   9
BRANCH   2  11
HETATM   11  O   UNL     1      26.267  45.020  51.094  1.00  0.00    -0.308 OA
BRANCH  11  12
HETATM   12  C   UNL     1      25.457  45.965  50.509  1.00  0.00     0.076 A 
HETATM   13  C   UNL     1      26.047  47.206  50.278  1.00  0.00     0.039 A 
HETATM   14  C   UNL     1      25.333  48.223  49.637  1.00  0.00     0.032 A 
HETATM   15  C   UNL     1      24.021  48.008  49.211  1.00  0.00     0.034 A 
HETATM   16  C   UNL     1      23.435  46.756  49.444  1.00  0.00     0.032 A 
HETATM   17  C   UNL     1      24.153  45.731  50.074  1.00  0.00     0.039 A 
BRANCH  15  18
HETATM   18  N   UNL     1      23.238  48.980  48.554  1.00  0.00    -0.327 N 
HETATM   19  C   UNL     1      22.661  50.113  49.112  1.00  0.00     0.227 C 
HETATM   20  O   UNL     1      22.800  50.486  50.276  1.00  0.00    -0.273 OA
HETATM   21  H   UNL     1      23.128  48.856  47.555  1.00  0.00     0.169 HD
BRANCH  19  22
HETATM   22  C   UNL     1      21.864  50.927  48.087  1.00  0.00     0.159 C 
BRANCH  22  23
HETATM   23  C   UNL     1      20.526  51.389  48.584  1.00  0.00     0.017 A 
HETATM   24  N   UNL     1      20.088  51.166  49.871  1.00  0.00    -0.369 N 
HETATM   25  H   UNL     1      20.609  50.639  50.569  1.00  0.00     0.165 HD
HETATM   26  C   UNL     1      18.848  51.717  50.043  1.00  0.00     0.088 A 
HETATM   27  C   UNL     1      18.479  52.311  48.858  1.00  0.00     0.019 A 
HETATM   28  C   UNL     1      19.536  52.107  47.938  1.00  0.00     0.027 A 
ENDBRANCH  22  23
ENDBRANCH  19  22
ENDBRANCH  15  18
ENDBRANCH  11  12
ENDBRANCH   2  11
TORSDOF 6
ENDMDL
MODEL 5
REMARK VINA RESULT:      -7.6      5.807      9.635
REMARK  6 active torsions:
REMARK  status: ('A' for Active; 'I' for Inactive)
REMARK    1  A    between atoms: O_2  and  C_3 
REMARK    2  A    between atoms: C_4  and  O_5 
REMARK    3  A    between atoms: O_5  and  C_6 
REMARK    4  A    between atoms: C_9  and  N_10 
REMARK       I    between atoms: N_10  and  C_11 
REMARK    5  A    between atoms: C_11  and  C_12 
REMARK    6  A    between atoms: C_12  and  C_13 
ROOT
HETATM    1  C   UNL     1      22.024  48.395  48.152  1.00  0.00     0.103 A 
HETATM    2  C   UNL     1      21.732  49.749  47.916  1.00  0.00     0.109 A 
HETATM    3  C   UNL     1      22.717  50.729  48.082  1.00  0.00     0.041 A 
HETATM    4  C   UNL     1      23.985  50.369  48.537  1.00  0.00     0.025 A 
HETATM    5  C   UNL     1      24.275  49.028  48.807  1.00  0.00     0.047 A 
HETATM    6  C   UNL     1      25.579  48.656  49.274  1.00  0.00     0.099 C 
HETATM    7  N   UNL     1      26.633  48.349  49.654  1.00  0.00    -0.191 NA
HETATM    8  C   UNL     1      23.297  48.042  48.612  1.00  0.00     0.062 A 
ENDROOT
BRANCH   1   9
HETATM    9  O   UNL     1      21.004  47.508  47.927  1.00  0.00    -0.353 OA
HETATM   10  C   UNL     1      21.229  46.486  46.963  1.00  0.00     0.210 C 
ENDBRANCH   1   9
BRANCH   2  11
HETATM   11  O   UNL     1      20.490  50.057  47.405  1.00  0.00    -0.308 OA
BRANCH  11  12
HETATM   12  C   UNL     1      19.576  50.699  48.207  1.00  0.00     0.076 A 
HETATM   13  C   UNL     1      19.405  52.060  47.959  1.00  0.00     0.039 A 
HETATM   14  C   UNL     1      18.460  52.800  48.676  1.00  0.00     0.032 A 
HETATM   15  C   UNL     1      17.668  52.185  49.648  1.00  0.00     0.034 A 
HETATM   16  C   UNL     1      17.842  50.815  49.889  1.00  0.00     0.032 A 
HETATM   17  C   UNL     1      18.779  50.069  49.162  1.00  0.00     0.039 A 
BRANCH  15  18
HETATM   18  N   UNL     1      16.691  52.860  50.409  1.00  0.00    -0.327 N 
HETATM   19  C   UNL     1      15.474  53.360  49.963  1.00  0.00     0.227 C 
HETATM   20  O   UNL     1      15.023  53.231  48.826  1.00  0.00    -0.273 OA
HETATM   21  H   UNL     1      16.885  52.945  51.399  1.00  0.00     0.169 HD
BRANCH  19  22
HETATM   22  C   UNL     1      14.683  54.049  51.078  1.00  0.00     0.159 C 
BRANCH  22  23
HETATM   23  C   UNL     1      14.942  55.522  51.188  1.00  0.00     0.017 A 
HETATM   24  N   UNL     1      15.215  56.318  50.097  1.00  0.00    -0.369 N 
HETATM   25  H   UNL     1      15.304  55.970  49.144  1.00  0.00     0.165 HD
HETATM   26  C   UNL     1      15.384  57.615  50.496  1.00  0.00     0.088 A 
HETATM   27  C   UNL     1      15.214  57.665  51.860  1.00  0.00     0.019 A 
HETATM   28  C   UNL     1      14.934  56.348  52.298  1.00  0.00     0.027 A 
ENDBRANCH  22  23
ENDBRANCH  19  22
ENDBRANCH  15  18
ENDBRANCH  11  12
ENDBRANCH   2  11
TORSDOF 6
ENDMDL
MODEL 6
REMARK VINA RESULT:      -7.5      2.318      9.337
REMARK  6 active torsions:
REMARK  status: ('A' for Active; 'I' for Inactive)
REMARK    1  A    between atoms: O_2  and  C_3 
REMARK    2  A    between atoms: C_4  and  O_5 
REMARK    3  A    between atoms: O_5  and  C_6 
REMARK    4  A    between atoms: C_9  and  N_10 
REMARK       I    between atoms: N_10  and  C_11 
REMARK    5  A    between atoms: C_11  and  C_12 
REMARK    6  A    between atoms: C_12  and  C_13 
ROOT
HETATM    1  C   UNL     1      21.938  49.007  49.297  1.00  0.00     0.103 A 
HETATM    2  C   UNL     1      22.457  47.777  48.859  1.00  0.00     0.109 A 
HETATM    3  C   UNL     1      21.607  46.781  48.365  1.00  0.00     0.041 A 
HETATM    4  C   UNL     1      20.228  46.987  48.355  1.00  0.00     0.025 A 
HETATM    5  C   UNL     1      19.699  48.196  48.820  1.00  0.00     0.047 A 
HETATM    6  C   UNL     1      18.281  48.410  48.810  1.00  0.00     0.099 C 
HETATM    7  N   UNL     1      17.134  48.588  48.805  1.00  0.00    -0.191 NA
HETATM    8  C   UNL     1      20.553  49.205  49.288  1.00  0.00     0.062 A 
ENDROOT
BRANCH   1   9
HETATM    9  O   UNL     1      22.853  49.930  49.729  1.00  0.00    -0.353 OA
HETATM   10  C   UNL     1      23.069  51.070  48.906  1.00  0.00     0.210 C 
ENDBRANCH   1   9
BRANCH   2  11
HETATM   11  O   UNL     1      23.827  47.636  48.823  1.00  0.00    -0.308 OA
BRANCH  11  12
HETATM   12  C   UNL     1      24.445  46.843  49.761  1.00  0.00     0.076 A 
HETATM   13  C   UNL     1      25.172  47.519  50.738  1.00  0.00     0.039 A 
HETATM   14  C   UNL     1      25.794  46.816  51.775  1.00  0.00     0.032 A 
HETATM   15  C   UNL     1      25.689  45.426  51.850  1.00  0.00     0.034 A 
HETATM   16  C   UNL     1      24.953  44.753  50.866  1.00  0.00     0.032 A 
HETATM   17  C   UNL     1      24.318  45.457  49.834  1.00  0.00     0.039 A 
BRANCH  15  18
HETATM   18  N   UNL     1      26.282  44.646  52.866  1.00  0.00    -0.327 N 
HETATM   19  C   UNL     1      25.693  44.218  54.048  1.00  0.00     0.227 C 
HETATM   20  O   UNL     1      24.520  44.402  54.370  1.00  0.00    -0.273 OA
HETATM   21  H   UNL     1      27.226  44.329  52.683  1.00  0.00     0.169 HD
BRANCH  19  22
HETATM   22  C   UNL     1      26.656  43.401  54.916  1.00  0.00     0.159 C 
BRANCH  22  23
HETATM   23  C   UNL     1      27.811  42.816  54.159  1.00  0.00     0.017 A 
HETATM   24  N   UNL     1      27.718  41.647  53.436  1.00  0.00    -0.369 N 
HETATM   25  H   UNL     1      26.882  41.068  53.392  1.00  0.00     0.165 HD
HETATM   26  C   UNL     1      28.916  41.373  52.836  1.00  0.00     0.088 A 
HETATM   27  C   UNL     1      29.795  42.377  53.165  1.00  0.00     0.019 A 
HETATM   28  C   UNL     1      29.101  43.289  53.997  1.00  0.00     0.027 A 
ENDBRANCH  22  23
ENDBRANCH  19  22
ENDBRANCH  15  18
ENDBRANCH  11  12
ENDBRANCH   2  11
TORSDOF 6
ENDMDL
MODEL 7
REMARK VINA RESULT:      -7.4      3.073      5.257
REMARK  6 active torsions:
REMARK  status: ('A' for Active; 'I' for Inactive)
REMARK    1  A    between atoms: O_2  and  C_3 
REMARK    2  A    between atoms: C_4  and  O_5 
REMARK    3  A    between atoms: O_5  and  C_6 
REMARK    4  A    between atoms: C_9  and  N_10 
REMARK       I    between atoms: N_10  and  C_11 
REMARK    5  A    between atoms: C_11  and  C_12 
REMARK    6  A    between atoms: C_12  and  C_13 
ROOT
HETATM    1  C   UNL     1      24.680  45.263  50.654  1.00  0.00     0.103 A 
HETATM    2  C   UNL     1      25.087  46.608  50.631  1.00  0.00     0.109 A 
HETATM    3  C   UNL     1      25.634  47.207  51.772  1.00  0.00     0.041 A 
HETATM    4  C   UNL     1      25.726  46.482  52.960  1.00  0.00     0.025 A 
HETATM    5  C   UNL     1      25.292  45.153  53.002  1.00  0.00     0.047 A 
HETATM    6  C   UNL     1      25.388  44.406  54.223  1.00  0.00     0.099 C 
HETATM    7  N   UNL     1      25.462  43.796  55.208  1.00  0.00    -0.191 NA
HETATM    8  C   UNL     1      24.772  44.544  51.851  1.00  0.00     0.062 A 
ENDROOT
BRANCH   1   9
HETATM    9  O   UNL     1      24.192  44.759  49.478  1.00  0.00    -0.353 OA
HETATM   10  C   UNL     1      24.918  43.695  48.874  1.00  0.00     0.210 C 
ENDBRANCH   1   9
BRANCH   2  11
HETATM   11  O   UNL     1      25.041  47.271  49.423  1.00  0.00    -0.308 OA
BRANCH  11  12
HETATM   12  C   UNL     1      24.013  48.150  49.181  1.00  0.00     0.076 A 
HETATM   13  C   UNL     1      24.395  49.452  48.862  1.00  0.00     0.039 A 
HETATM   14  C   UNL     1      23.434  50.416  48.541  1.00  0.00     0.032 A 
HETATM   15  C   UNL     1      22.078  50.087  48.527  1.00  0.00     0.034 A 
HETATM   16  C   UNL     1      21.701  48.774  48.845  1.00  0.00     0.032 A 
HETATM   17  C   UNL     1      22.663  47.804  49.154  1.00  0.00     0.039 A 
BRANCH  15  18
HETATM   18  N   UNL     1      21.050  51.000  48.209  1.00  0.00    -0.327 N 
HETATM   19  C   UNL     1      20.085  51.512  49.067  1.00  0.00     0.227 C 
HETATM   20  O   UNL     1      20.016  51.294  50.276  1.00  0.00    -0.273 OA
HETATM   21  H   UNL     1      21.051  51.351  47.259  1.00  0.00     0.169 HD
BRANCH  19  22
HETATM   22  C   UNL     1      19.122  52.468  48.356  1.00  0.00     0.159 C 
BRANCH  22  23
HETATM   23  C   UNL     1      17.686  52.294  48.756  1.00  0.00     0.017 A 
HETATM   24  N   UNL     1      17.168  52.803  49.926  1.00  0.00    -0.369 N 
HETATM   25  H   UNL     1      17.717  53.295  50.628  1.00  0.00     0.165 HD
HETATM   26  C   UNL     1      15.835  52.510  50.012  1.00  0.00     0.088 A 
HETATM   27  C   UNL     1      15.481  51.809  48.883  1.00  0.00     0.019 A 
HETATM   28  C   UNL     1      16.645  51.673  48.090  1.00  0.00     0.027 A 
ENDBRANCH  22  23
ENDBRANCH  19  22
ENDBRANCH  15  18
ENDBRANCH  11  12
ENDBRANCH   2  11
TORSDOF 6
ENDMDL
MODEL 8
REMARK VINA RESULT:      -7.4      7.142     10.405
REMARK  6 active torsions:
REMARK  status: ('A' for Active; 'I' for Inactive)
REMARK    1  A    between atoms: O_2  and  C_3 
REMARK    2  A    between atoms: C_4  and  O_5 
REMARK    3  A    between atoms: O_5  and  C_6 
REMARK    4  A    between atoms: C_9  and  N_10 
REMARK       I    between atoms: N_10  and  C_11 
REMARK    5  A    between atoms: C_11  and  C_12 
REMARK    6  A    between atoms: C_12  and  C_13 
ROOT
HETATM    1  C   UNL     1      21.188  48.787  48.396  1.00  0.00     0.103 A 
HETATM    2  C   UNL     1      20.731  49.670  49.389  1.00  0.00     0.109 A 
HETATM    3  C   UNL     1      21.548  50.709  49.849  1.00  0.00     0.041 A 
HETATM    4  C   UNL     1      22.847  50.840  49.358  1.00  0.00     0.025 A 
HETATM    5  C   UNL     1      23.323  49.945  48.394  1.00  0.00     0.047 A 
HETATM    6  C   UNL     1      24.658  50.079  47.889  1.00  0.00     0.099 C 
HETATM    7  N   UNL     1      25.739  50.182  47.476  1.00  0.00    -0.191 NA
HETATM    8  C   UNL     1      22.494  48.922  47.913  1.00  0.00     0.062 A 
ENDROOT
BRANCH   1   9
HETATM    9  O   UNL     1      20.302  47.826  47.987  1.00  0.00    -0.353 OA
HETATM   10  C   UNL     1      20.505  46.503  48.470  1.00  0.00     0.210 C 
ENDBRANCH   1   9
BRANCH   2  11
HETATM   11  O   UNL     1      19.422  49.549  49.801  1.00  0.00    -0.308 OA
BRANCH  11  12
HETATM   12  C   UNL     1      18.530  50.551  49.499  1.00  0.00     0.076 A 
HETATM   13  C   UNL     1      17.366  50.147  48.848  1.00  0.00     0.039 A 
HETATM   14  C   UNL     1      16.363  51.073  48.543  1.00  0.00     0.032 A 
HETATM   15  C   UNL     1      16.512  52.417  48.893  1.00  0.00     0.034 A 
HETATM   16  C   UNL     1      17.683  52.816  49.551  1.00  0.00     0.032 A 
HETATM   17  C   UNL     1      18.682  51.886  49.868  1.00  0.00     0.039 A 
BRANCH  15  18
HETATM   18  N   UNL     1      15.545  53.410  48.626  1.00  0.00    -0.327 N 
HETATM   19  C   UNL     1      14.566  53.884  49.488  1.00  0.00     0.227 C 
HETATM   20  O   UNL     1      14.427  53.550  50.664  1.00  0.00    -0.273 OA
HETATM   21  H   UNL     1      15.610  53.855  47.718  1.00  0.00     0.169 HD
BRANCH  19  22
HETATM   22  C   UNL     1      13.686  54.956  48.838  1.00  0.00     0.159 C 
BRANCH  22  23
HETATM   23  C   UNL     1      13.982  56.351  49.303  1.00  0.00     0.017 A 
HETATM   24  N   UNL     1      15.059  56.660  50.105  1.00  0.00    -0.369 N 
HETATM   25  H   UNL     1      15.709  55.972  50.479  1.00  0.00     0.165 HD
HETATM   26  C   UNL     1      15.089  58.006  50.347  1.00  0.00     0.088 A 
HETATM   27  C   UNL     1      14.025  58.579  49.691  1.00  0.00     0.019 A 
HETATM   28  C   UNL     1      13.328  57.539  49.031  1.00  0.00     0.027 A 
ENDBRANCH  22  23
ENDBRANCH  19  22
ENDBRANCH  15  18
ENDBRANCH  11  12
ENDBRANCH   2  11
TORSDOF 6
ENDMDL
MODEL 9
REMARK VINA RESULT:      -7.1      4.691      7.435
REMARK  6 active torsions:
REMARK  status: ('A' for Active; 'I' for Inactive)
REMARK    1  A    between atoms: O_2  and  C_3 
REMARK    2  A    between atoms: C_4  and  O_5 
REMARK    3  A    between atoms: O_5  and  C_6 
REMARK    4  A    between atoms: C_9  and  N_10 
REMARK       I    between atoms: N_10  and  C_11 
REMARK    5  A    between atoms: C_11  and  C_12 
REMARK    6  A    between atoms: C_12  and  C_13 
ROOT
HETATM    1  C   UNL     1      28.480  45.302  55.096  1.00  0.00     0.103 A 
HETATM    2  C   UNL     1      28.341  44.541  53.923  1.00  0.00     0.109 A 
HETATM    3  C   UNL     1      29.197  43.464  53.667  1.00  0.00     0.041 A 
HETATM    4  C   UNL     1      30.232  43.173  54.556  1.00  0.00     0.025 A 
HETATM    5  C   UNL     1      30.400  43.946  55.709  1.00  0.00     0.047 A 
HETATM    6  C   UNL     1      31.463  43.648  56.624  1.00  0.00     0.099 C 
HETATM    7  N   UNL     1      32.323  43.412  57.368  1.00  0.00    -0.191 NA
HETATM    8  C   UNL     1      29.524  45.008  55.980  1.00  0.00     0.062 A 
ENDROOT
BRANCH   1   9
HETATM    9  O   UNL     1      27.572  46.312  55.273  1.00  0.00    -0.353 OA
HETATM   10  C   UNL     1      27.978  47.625  54.906  1.00  0.00     0.210 C 
ENDBRANCH   1   9
BRANCH   2  11
HETATM   11  O   UNL     1      27.267  44.817  53.104  1.00  0.00    -0.308 OA
BRANCH  11  12
HETATM   12  C   UNL     1      27.064  44.046  51.985  1.00  0.00     0.076 A 
HETATM   13  C   UNL     1      27.043  44.733  50.773  1.00  0.00     0.039 A 
HETATM   14  C   UNL     1      26.900  44.042  49.566  1.00  0.00     0.032 A 
HETATM   15  C   UNL     1      26.783  42.651  49.556  1.00  0.00     0.034 A 
HETATM   16  C   UNL     1      26.808  41.965  50.778  1.00  0.00     0.032 A 
HETATM   17  C   UNL     1      26.965  42.655  51.987  1.00  0.00     0.039 A 
BRANCH  15  18
HETATM   18  N   UNL     1      26.640  41.882  48.381  1.00  0.00    -0.327 N 
HETATM   19  C   UNL     1      27.547  40.969  47.859  1.00  0.00     0.227 C 
HETATM   20  O   UNL     1      28.608  40.635  48.385  1.00  0.00    -0.273 OA
HETATM   21  H   UNL     1      25.756  41.978  47.896  1.00  0.00     0.169 HD
BRANCH  19  22
HETATM   22  C   UNL     1      27.052  40.337  46.555  1.00  0.00     0.159 C 
BRANCH  22  23
HETATM   23  C   UNL     1      27.126  38.839  46.538  1.00  0.00     0.017 A 
HETATM   24  N   UNL     1      28.296  38.149  46.307  1.00  0.00    -0.369 N 
HETATM   25  H   UNL     1      29.186  38.591  46.089  1.00  0.00     0.165 HD
HETATM   26  C   UNL     1      28.064  36.802  46.375  1.00  0.00     0.088 A 
HETATM   27  C   UNL     1      26.732  36.615  46.660  1.00  0.00     0.019 A 
HETATM   28  C   UNL     1      26.139  37.896  46.765  1.00  0.00     0.027 A 
ENDBRANCH  22  23
ENDBRANCH  19  22
ENDBRANCH  15  18
ENDBRANCH  11  12
ENDBRANCH   2  11
TORSDOF 6
ENDMDL
MODEL 10
REMARK VINA RESULT:      -7.1      4.013     10.855
REMARK  6 active torsions:
REMARK  status: ('A' for Active; 'I' for Inactive)
REMARK    1  A    between atoms: O_2  and  C_3 
REMARK    2  A    between atoms: C_4  and  O_5 
REMARK    3  A    between atoms: O_5  and  C_6 
REMARK    4  A    between atoms: C_9  and  N_10 
REMARK       I    between atoms: N_10  and  C_11 
REMARK    5  A    between atoms: C_11  and  C_12 
REMARK    6  A    between atoms: C_12  and  C_13 
ROOT
HETATM    1  C   UNL     1      17.526  50.370  47.792  1.00  0.00     0.103 A 
HETATM    2  C   UNL     1      18.634  51.225  47.671  1.00  0.00     0.109 A 
HETATM    3  C   UNL     1      18.675  52.441  48.363  1.00  0.00     0.041 A 
HETATM    4  C   UNL     1      17.585  52.836  49.137  1.00  0.00     0.025 A 
HETATM    5  C   UNL     1      16.463  52.007  49.237  1.00  0.00     0.047 A 
HETATM    6  C   UNL     1      15.341  52.411  50.034  1.00  0.00     0.099 C 
HETATM    7  N   UNL     1      14.429  52.734  50.677  1.00  0.00    -0.191 NA
HETATM    8  C   UNL     1      16.434  50.775  48.568  1.00  0.00     0.062 A 
ENDROOT
BRANCH   1   9
HETATM    9  O   UNL     1      17.597  49.187  47.105  1.00  0.00    -0.353 OA
HETATM   10  C   UNL     1      16.646  48.977  46.069  1.00  0.00     0.210 C 
ENDBRANCH   1   9
BRANCH   2  11
HETATM   11  O   UNL     1      19.718  50.771  46.951  1.00  0.00    -0.308 OA
BRANCH  11  12
HETATM   12  C   UNL     1      20.825  50.312  47.624  1.00  0.00     0.076 A 
HETATM   13  C   UNL     1      21.099  48.953  47.480  1.00  0.00     0.039 A 
HETATM   14  C   UNL     1      22.233  48.390  48.074  1.00  0.00     0.032 A 
HETATM   15  C   UNL     1      23.111  49.182  48.816  1.00  0.00     0.034 A 
HETATM   16  C   UNL     1      22.832  50.549  48.954  1.00  0.00     0.032 A 
HETATM   17  C   UNL     1      21.703  51.117  48.348  1.00  0.00     0.039 A 
BRANCH  15  18
HETATM   18  N   UNL     1      24.276  48.690  49.442  1.00  0.00    -0.327 N 
HETATM   19  C   UNL     1      25.592  48.899  49.050  1.00  0.00     0.227 C 
HETATM   20  O   UNL     1      25.955  49.613  48.117  1.00  0.00    -0.273 OA
HETATM   21  H   UNL     1      24.130  48.167  50.296  1.00  0.00     0.169 HD
BRANCH  19  22
HETATM   22  C   UNL     1      26.593  48.191  49.969  1.00  0.00     0.159 C 
BRANCH  22  23
HETATM   23  C   UNL     1      26.149  46.830  50.418  1.00  0.00     0.017 A 
HETATM   24  N   UNL     1      26.113  45.739  49.577  1.00  0.00    -0.369 N 
HETATM   25  H   UNL     1      26.341  45.774  48.586  1.00  0.00     0.165 HD
HETATM   26  C   UNL     1      25.692  44.634  50.265  1.00  0.00     0.088 A 
HETATM   27  C   UNL     1      25.458  45.009  51.567  1.00  0.00     0.019 A 
HETATM   28  C   UNL     1      25.746  46.391  51.666  1.00  0.00     0.027 A 
ENDBRANCH  22  23
ENDBRANCH  19  22
ENDBRANCH  15  18
ENDBRANCH  11  12
ENDBRANCH   2  11
TORSDOF 6
ENDMDL
