MODEL 1
REMARK VINA RESULT:     -11.4      0.000      0.000
REMARK  6 active torsions:
REMARK  status: ('A' for Active; 'I' for Inactive)
REMARK    1  A    between atoms: C_7  and  C_8 
REMARK    2  A    between atoms: C_8  and  C_9 
REMARK    3  A    between atoms: C_9  and  N_10 
REMARK    4  A    between atoms: C_12  and  C_13 
REMARK    5  A    between atoms: C_13  and  N_14 
REMARK    6  A    between atoms: C_36  and  O_37 
ROOT
HETATM    1  N   UNL     1      25.954  45.877  52.402  1.00  0.00    -0.054 N 
HETATM    2  H   UNL     1      25.269  45.570  53.131  1.00  0.00     0.281 HD
HETATM    3  C   UNL     1      27.054  44.795  52.435  1.00  0.00     0.240 C 
HETATM    4  C   UNL     1      27.976  44.888  53.653  1.00  0.00    -0.020 A 
HETATM    5  C   UNL     1      27.938  46.003  54.517  1.00  0.00    -0.048 A 
HETATM    6  C   UNL     1      26.964  47.127  54.301  1.00  0.00     0.067 C 
HETATM    7  C   UNL     1      26.488  47.209  52.860  1.00  0.00     0.241 C 
HETATM    8  C   UNL     1      28.926  43.883  53.917  1.00  0.00     0.010 A 
HETATM    9  C   UNL     1      29.764  43.953  55.032  1.00  0.00     0.001 A 
HETATM   10  C   UNL     1      29.685  45.035  55.897  1.00  0.00     0.001 A 
HETATM   11  C   UNL     1      28.778  46.058  55.641  1.00  0.00     0.008 A 
ENDROOT
BRANCH   1  12
HETATM   12  C   UNL     1      25.166  46.014  51.075  1.00  0.00     0.319 C 
BRANCH  12  13
HETATM   13  C   UNL     1      25.954  46.683  49.953  1.00  0.00     0.188 C 
HETATM   14  O   UNL     1      26.957  46.112  49.517  1.00  0.00    -0.290 OA
BRANCH  13  15
HETATM   15  C   UNL     1      25.533  47.976  49.411  1.00  0.00     0.046 A 
HETATM   16  C   UNL     1      26.434  48.977  49.054  1.00  0.00     0.020 A 
HETATM   17  C   UNL     1      27.919  49.045  49.156  1.00  0.00     0.069 C 
HETATM   18  N   UNL     1      25.723  50.020  48.521  1.00  0.00    -0.358 N 
HETATM   19  H   UNL     1      26.123  50.876  48.158  1.00  0.00     0.166 HD
HETATM   20  C   UNL     1      24.381  49.735  48.528  1.00  0.00     0.043 A 
HETATM   21  C   UNL     1      24.218  48.474  49.104  1.00  0.00     0.009 A 
HETATM   22  C   UNL     1      23.313  50.506  48.055  1.00  0.00     0.033 A 
HETATM   23  C   UNL     1      22.897  47.985  49.216  1.00  0.00     0.051 A 
HETATM   24  C   UNL     1      21.808  48.740  48.750  1.00  0.00     0.069 A 
HETATM   25  C   UNL     1      22.022  49.986  48.173  1.00  0.00     0.039 A 
BRANCH  24  26
HETATM   26  O   UNL     1      20.594  48.130  48.923  1.00  0.00    -0.356 OA
HETATM   27  C   UNL     1      19.626  48.836  49.695  1.00  0.00     0.210 C 
ENDBRANCH  24  26
ENDBRANCH  13  15
ENDBRANCH  12  13
ENDBRANCH   1  12
BRANCH   3  28
HETATM   28  C   UNL     1      26.463  43.370  52.213  1.00  0.00     0.173 C 
BRANCH  28  29
HETATM   29  N   UNL     1      27.157  42.442  51.329  1.00  0.00    -0.278 N 
HETATM   30  C   UNL     1      27.839  41.309  51.682  1.00  0.00     0.261 A 
HETATM   31  O   UNL     1      28.084  40.903  52.806  1.00  0.00    -0.267 OA
HETATM   32  C   UNL     1      28.123  40.573  50.453  1.00  0.00     0.048 A 
HETATM   33  C   UNL     1      27.522  41.259  49.413  1.00  0.00     0.048 A 
HETATM   34  C   UNL     1      28.774  39.372  50.257  1.00  0.00     0.018 A 
HETATM   35  C   UNL     1      26.874  42.436  49.985  1.00  0.00     0.261 A 
HETATM   36  C   UNL     1      27.535  40.785  48.117  1.00  0.00     0.018 A 
HETATM   37  O   UNL     1      26.168  43.211  49.370  1.00  0.00    -0.267 OA
HETATM   38  C   UNL     1      28.194  39.572  47.890  1.00  0.00     0.001 A 
HETATM   39  C   UNL     1      28.809  38.873  48.950  1.00  0.00     0.001 A 
ENDBRANCH  28  29
ENDBRANCH   3  28
TORSDOF 6
ENDMDL
MODEL 2
REMARK VINA RESULT:     -10.4      1.709      2.097
REMARK  6 active torsions:
REMARK  status: ('A' for Active; 'I' for Inactive)
REMARK    1  A    between atoms: C_7  and  C_8 
REMARK    2  A    between atoms: C_8  and  C_9 
REMARK    3  A    between atoms: C_9  and  N_10 
REMARK    4  A    between atoms: C_12  and  C_13 
REMARK    5  A    between atoms: C_13  and  N_14 
REMARK    6  A    between atoms: C_36  and  O_37 
ROOT
HETATM    1  N   UNL     1      26.170  44.075  52.449  1.00  0.00    -0.054 N 
HETATM    2  H   UNL     1      25.652  43.666  53.261  1.00  0.00     0.281 HD
HETATM    3  C   UNL     1      27.450  43.219  52.345  1.00  0.00     0.240 C 
HETATM    4  C   UNL     1      28.482  43.517  53.436  1.00  0.00    -0.020 A 
HETATM    5  C   UNL     1      28.342  44.628  54.293  1.00  0.00    -0.048 A 
HETATM    6  C   UNL     1      27.155  45.545  54.199  1.00  0.00     0.067 C 
HETATM    7  C   UNL     1      26.496  45.496  52.829  1.00  0.00     0.241 C 
HETATM    8  C   UNL     1      29.630  42.714  53.581  1.00  0.00     0.010 A 
HETATM    9  C   UNL     1      30.573  42.971  54.579  1.00  0.00     0.001 A 
HETATM   10  C   UNL     1      30.399  44.043  55.443  1.00  0.00     0.001 A 
HETATM   11  C   UNL     1      29.291  44.871  55.300  1.00  0.00     0.008 A 
ENDROOT
BRANCH   1  12
HETATM   12  C   UNL     1      25.212  44.026  51.232  1.00  0.00     0.319 C 
BRANCH  12  13
HETATM   13  C   UNL     1      25.631  44.929  50.076  1.00  0.00     0.188 C 
HETATM   14  O   UNL     1      26.674  44.665  49.473  1.00  0.00    -0.290 OA
BRANCH  13  15
HETATM   15  C   UNL     1      24.817  46.084  49.696  1.00  0.00     0.046 A 
HETATM   16  C   UNL     1      25.291  47.393  49.747  1.00  0.00     0.020 A 
HETATM   17  C   UNL     1      26.598  47.949  50.201  1.00  0.00     0.069 C 
HETATM   18  N   UNL     1      24.312  48.221  49.264  1.00  0.00    -0.358 N 
HETATM   19  H   UNL     1      24.390  49.225  49.166  1.00  0.00     0.166 HD
HETATM   20  C   UNL     1      23.205  47.492  48.908  1.00  0.00     0.043 A 
HETATM   21  C   UNL     1      23.472  46.151  49.190  1.00  0.00     0.009 A 
HETATM   22  C   UNL     1      22.001  47.934  48.350  1.00  0.00     0.033 A 
HETATM   23  C   UNL     1      22.450  45.219  48.901  1.00  0.00     0.051 A 
HETATM   24  C   UNL     1      21.231  45.637  48.343  1.00  0.00     0.069 A 
HETATM   25  C   UNL     1      21.017  46.982  48.068  1.00  0.00     0.039 A 
BRANCH  24  26
HETATM   26  O   UNL     1      20.345  44.618  48.115  1.00  0.00    -0.356 OA
HETATM   27  C   UNL     1      19.035  44.989  47.695  1.00  0.00     0.210 C 
ENDBRANCH  24  26
ENDBRANCH  13  15
ENDBRANCH  12  13
ENDBRANCH   1  12
BRANCH   3  28
HETATM   28  C   UNL     1      27.116  41.703  52.207  1.00  0.00     0.173 C 
BRANCH  28  29
HETATM   29  N   UNL     1      27.628  40.965  51.059  1.00  0.00    -0.278 N 
HETATM   30  C   UNL     1      28.647  40.052  51.043  1.00  0.00     0.261 A 
HETATM   31  O   UNL     1      29.391  39.747  51.960  1.00  0.00    -0.267 OA
HETATM   32  C   UNL     1      28.615  39.386  49.744  1.00  0.00     0.048 A 
HETATM   33  C   UNL     1      27.516  39.873  49.059  1.00  0.00     0.048 A 
HETATM   34  C   UNL     1      29.415  38.388  49.227  1.00  0.00     0.018 A 
HETATM   35  C   UNL     1      26.867  40.857  49.920  1.00  0.00     0.261 A 
HETATM   36  C   UNL     1      27.152  39.389  47.818  1.00  0.00     0.018 A 
HETATM   37  O   UNL     1      25.813  41.412  49.674  1.00  0.00    -0.267 OA
HETATM   38  C   UNL     1      27.951  38.381  47.269  1.00  0.00     0.001 A 
HETATM   39  C   UNL     1      29.073  37.886  47.967  1.00  0.00     0.001 A 
ENDBRANCH  28  29
ENDBRANCH   3  28
TORSDOF 6
ENDMDL
MODEL 3
REMARK VINA RESULT:     -10.2      1.667      5.088
REMARK  6 active torsions:
REMARK  status: ('A' for Active; 'I' for Inactive)
REMARK    1  A    between atoms: C_7  and  C_8 
REMARK    2  A    between atoms: C_8  and  C_9 
REMARK    3  A    between atoms: C_9  and  N_10 
REMARK    4  A    between atoms: C_12  and  C_13 
REMARK    5  A    between atoms: C_13  and  N_14 
REMARK    6  A    between atoms: C_36  and  O_37 
ROOT
HETATM    1  N   UNL     1      25.373  43.693  50.287  1.00  0.00    -0.054 N 
HETATM    2  H   UNL     1      25.904  44.007  49.441  1.00  0.00     0.281 HD
HETATM    3  C   UNL     1      26.444  43.047  51.190  1.00  0.00     0.240 C 
HETATM    4  C   UNL     1      26.913  41.672  50.705  1.00  0.00    -0.020 A 
HETATM    5  C   UNL     1      26.245  40.996  49.663  1.00  0.00    -0.048 A 
HETATM    6  C   UNL     1      25.069  41.612  48.958  1.00  0.00     0.067 C 
HETATM    7  C   UNL     1      24.379  42.670  49.804  1.00  0.00     0.241 C 
HETATM    8  C   UNL     1      27.999  41.022  51.322  1.00  0.00     0.010 A 
HETATM    9  C   UNL     1      28.442  39.773  50.880  1.00  0.00     0.001 A 
HETATM   10  C   UNL     1      27.801  39.139  49.825  1.00  0.00     0.001 A 
HETATM   11  C   UNL     1      26.705  39.745  49.220  1.00  0.00     0.008 A 
ENDROOT
BRANCH   1  12
HETATM   12  C   UNL     1      24.658  44.943  50.858  1.00  0.00     0.319 C 
BRANCH  12  13
HETATM   13  C   UNL     1      23.849  45.722  49.825  1.00  0.00     0.188 C 
HETATM   14  O   UNL     1      22.940  45.140  49.230  1.00  0.00    -0.290 OA
BRANCH  13  15
HETATM   15  C   UNL     1      24.152  47.126  49.542  1.00  0.00     0.046 A 
HETATM   16  C   UNL     1      25.452  47.620  49.472  1.00  0.00     0.020 A 
HETATM   17  C   UNL     1      26.770  46.958  49.691  1.00  0.00     0.069 C 
HETATM   18  N   UNL     1      25.387  48.944  49.124  1.00  0.00    -0.358 N 
HETATM   19  H   UNL     1      26.184  49.552  48.981  1.00  0.00     0.166 HD
HETATM   20  C   UNL     1      24.080  49.334  48.974  1.00  0.00     0.043 A 
HETATM   21  C   UNL     1      23.274  48.229  49.256  1.00  0.00     0.009 A 
HETATM   22  C   UNL     1      23.569  50.582  48.602  1.00  0.00     0.033 A 
HETATM   23  C   UNL     1      21.875  48.416  49.166  1.00  0.00     0.051 A 
HETATM   24  C   UNL     1      21.337  49.659  48.796  1.00  0.00     0.069 A 
HETATM   25  C   UNL     1      22.182  50.726  48.514  1.00  0.00     0.039 A 
BRANCH  24  26
HETATM   26  O   UNL     1      19.969  49.680  48.749  1.00  0.00    -0.356 OA
HETATM   27  C   UNL     1      19.283  48.801  49.636  1.00  0.00     0.210 C 
ENDBRANCH  24  26
ENDBRANCH  13  15
ENDBRANCH  12  13
ENDBRANCH   1  12
BRANCH   3  28
HETATM   28  C   UNL     1      27.615  44.032  51.486  1.00  0.00     0.173 C 
BRANCH  28  29
HETATM   29  N   UNL     1      28.119  44.148  52.849  1.00  0.00    -0.278 N 
HETATM   30  C   UNL     1      29.304  43.675  53.341  1.00  0.00     0.261 A 
HETATM   31  O   UNL     1      30.128  42.981  52.768  1.00  0.00    -0.267 OA
HETATM   32  C   UNL     1      29.490  44.263  54.665  1.00  0.00     0.048 A 
HETATM   33  C   UNL     1      28.440  45.137  54.879  1.00  0.00     0.048 A 
HETATM   34  C   UNL     1      30.519  44.119  55.574  1.00  0.00     0.018 A 
HETATM   35  C   UNL     1      27.584  45.087  53.697  1.00  0.00     0.261 A 
HETATM   36  C   UNL     1      28.357  45.919  56.013  1.00  0.00     0.018 A 
HETATM   37  O   UNL     1      26.621  45.803  53.503  1.00  0.00    -0.267 OA
HETATM   38  C   UNL     1      29.384  45.788  56.954  1.00  0.00     0.001 A 
HETATM   39  C   UNL     1      30.454  44.895  56.737  1.00  0.00     0.001 A 
ENDBRANCH  28  29
ENDBRANCH   3  28
TORSDOF 6
ENDMDL
MODEL 4
REMARK VINA RESULT:     -10.1      3.016      8.263
REMARK  6 active torsions:
REMARK  status: ('A' for Active; 'I' for Inactive)
REMARK    1  A    between atoms: C_7  and  C_8 
REMARK    2  A    between atoms: C_8  and  C_9 
REMARK    3  A    between atoms: C_9  and  N_10 
REMARK    4  A    between atoms: C_12  and  C_13 
REMARK    5  A    between atoms: C_13  and  N_14 
REMARK    6  A    between atoms: C_36  and  O_37 
ROOT
HETATM    1  N   UNL     1      25.727  41.965  50.829  1.00  0.00    -0.054 N 
HETATM    2  H   UNL     1      24.808  41.801  51.300  1.00  0.00     0.281 HD
HETATM    3  C   UNL     1      26.220  43.304  51.415  1.00  0.00     0.240 C 
HETATM    4  C   UNL     1      25.476  44.527  50.873  1.00  0.00    -0.020 A 
HETATM    5  C   UNL     1      24.593  44.421  49.779  1.00  0.00    -0.048 A 
HETATM    6  C   UNL     1      24.314  43.098  49.123  1.00  0.00     0.067 C 
HETATM    7  C   UNL     1      25.429  42.092  49.358  1.00  0.00     0.241 C 
HETATM    8  C   UNL     1      25.692  45.805  51.423  1.00  0.00     0.010 A 
HETATM    9  C   UNL     1      25.010  46.926  50.943  1.00  0.00     0.001 A 
HETATM   10  C   UNL     1      24.111  46.798  49.893  1.00  0.00     0.001 A 
HETATM   11  C   UNL     1      23.904  45.553  49.311  1.00  0.00     0.008 A 
ENDROOT
BRANCH   1  12
HETATM   12  C   UNL     1      26.609  40.724  51.118  1.00  0.00     0.319 C 
BRANCH  12  13
HETATM   13  C   UNL     1      27.949  40.732  50.388  1.00  0.00     0.188 C 
HETATM   14  O   UNL     1      28.704  41.692  50.557  1.00  0.00    -0.290 OA
BRANCH  13  15
HETATM   15  C   UNL     1      28.326  39.629  49.504  1.00  0.00     0.046 A 
HETATM   16  C   UNL     1      29.062  38.528  49.938  1.00  0.00     0.020 A 
HETATM   17  C   UNL     1      29.663  38.208  51.264  1.00  0.00     0.069 C 
HETATM   18  N   UNL     1      29.181  37.654  48.890  1.00  0.00    -0.358 N 
HETATM   19  H   UNL     1      29.650  36.758  48.925  1.00  0.00     0.166 HD
HETATM   20  C   UNL     1      28.553  38.155  47.777  1.00  0.00     0.043 A 
HETATM   21  C   UNL     1      28.029  39.405  48.114  1.00  0.00     0.009 A 
HETATM   22  C   UNL     1      28.411  37.580  46.510  1.00  0.00     0.033 A 
HETATM   23  C   UNL     1      27.338  40.106  47.099  1.00  0.00     0.051 A 
HETATM   24  C   UNL     1      27.184  39.550  45.818  1.00  0.00     0.069 A 
HETATM   25  C   UNL     1      27.713  38.297  45.535  1.00  0.00     0.039 A 
BRANCH  24  26
HETATM   26  O   UNL     1      26.488  40.346  44.948  1.00  0.00    -0.356 OA
HETATM   27  C   UNL     1      25.130  40.624  45.279  1.00  0.00     0.210 C 
ENDBRANCH  24  26
ENDBRANCH  13  15
ENDBRANCH  12  13
ENDBRANCH   1  12
BRANCH   3  28
HETATM   28  C   UNL     1      26.287  43.259  52.971  1.00  0.00     0.173 C 
BRANCH  28  29
HETATM   29  N   UNL     1      27.483  43.748  53.646  1.00  0.00    -0.278 N 
HETATM   30  C   UNL     1      27.638  44.934  54.310  1.00  0.00     0.261 A 
HETATM   31  O   UNL     1      26.845  45.857  54.387  1.00  0.00    -0.267 OA
HETATM   32  C   UNL     1      28.899  44.859  55.044  1.00  0.00     0.048 A 
HETATM   33  C   UNL     1      29.411  43.589  54.854  1.00  0.00     0.048 A 
HETATM   34  C   UNL     1      29.512  45.780  55.870  1.00  0.00     0.018 A 
HETATM   35  C   UNL     1      28.482  42.869  53.988  1.00  0.00     0.261 A 
HETATM   36  C   UNL     1      30.565  43.163  55.480  1.00  0.00     0.018 A 
HETATM   37  O   UNL     1      28.570  41.692  53.695  1.00  0.00    -0.267 OA
HETATM   38  C   UNL     1      31.210  44.079  56.319  1.00  0.00     0.001 A 
HETATM   39  C   UNL     1      30.688  45.376  56.510  1.00  0.00     0.001 A 
ENDBRANCH  28  29
ENDBRANCH   3  28
TORSDOF 6
ENDMDL
MODEL 5
REMARK VINA RESULT:     -10.1      2.484      7.521
REMARK  6 active torsions:
REMARK  status: ('A' for Active; 'I' for Inactive)
REMARK    1  A    between atoms: C_7  and  C_8 
REMARK    2  A    between atoms: C_8  and  C_9 
REMARK    3  A    between atoms: C_9  and  N_10 
REMARK    4  A    between atoms: C_12  and  C_13 
REMARK    5  A    between atoms: C_13  and  N_14 
REMARK    6  A    between atoms: C_36  and  O_37 
ROOT
HETATM    1  N   UNL     1      22.886  44.250  49.835  1.00  0.00    -0.054 N 
HETATM    2  H   UNL     1      22.177  44.569  50.536  1.00  0.00     0.281 HD
HETATM    3  C   UNL     1      24.040  45.264  49.972  1.00  0.00     0.240 C 
HETATM    4  C   UNL     1      23.733  46.635  49.363  1.00  0.00    -0.020 A 
HETATM    5  C   UNL     1      22.591  46.841  48.562  1.00  0.00    -0.048 A 
HETATM    6  C   UNL     1      21.605  45.736  48.305  1.00  0.00     0.067 C 
HETATM    7  C   UNL     1      22.223  44.359  48.487  1.00  0.00     0.241 C 
HETATM    8  C   UNL     1      24.614  47.719  49.546  1.00  0.00     0.010 A 
HETATM    9  C   UNL     1      24.338  48.976  49.004  1.00  0.00     0.001 A 
HETATM   10  C   UNL     1      23.187  49.175  48.254  1.00  0.00     0.001 A 
HETATM   11  C   UNL     1      22.318  48.113  48.031  1.00  0.00     0.008 A 
ENDROOT
BRANCH   1  12
HETATM   12  C   UNL     1      23.223  42.777  50.176  1.00  0.00     0.319 C 
BRANCH  12  13
HETATM   13  C   UNL     1      23.215  41.843  48.969  1.00  0.00     0.188 C 
HETATM   14  O   UNL     1      22.149  41.318  48.640  1.00  0.00    -0.290 OA
BRANCH  13  15
HETATM   15  C   UNL     1      24.445  41.572  48.225  1.00  0.00     0.046 A 
HETATM   16  C   UNL     1      24.538  41.708  46.841  1.00  0.00     0.020 A 
HETATM   17  C   UNL     1      23.518  42.076  45.818  1.00  0.00     0.069 C 
HETATM   18  N   UNL     1      25.832  41.449  46.473  1.00  0.00    -0.358 N 
HETATM   19  H   UNL     1      26.192  41.494  45.528  1.00  0.00     0.166 HD
HETATM   20  C   UNL     1      26.588  41.136  47.575  1.00  0.00     0.043 A 
HETATM   21  C   UNL     1      25.748  41.174  48.689  1.00  0.00     0.009 A 
HETATM   22  C   UNL     1      27.951  40.833  47.652  1.00  0.00     0.033 A 
HETATM   23  C   UNL     1      26.329  40.873  49.942  1.00  0.00     0.051 A 
HETATM   24  C   UNL     1      27.695  40.565  50.046  1.00  0.00     0.069 A 
HETATM   25  C   UNL     1      28.494  40.552  48.908  1.00  0.00     0.039 A 
BRANCH  24  26
HETATM   26  O   UNL     1      28.110  40.303  51.324  1.00  0.00    -0.356 OA
HETATM   27  C   UNL     1      29.185  39.379  51.473  1.00  0.00     0.210 C 
ENDBRANCH  24  26
ENDBRANCH  13  15
ENDBRANCH  12  13
ENDBRANCH   1  12
BRANCH   3  28
HETATM   28  C   UNL     1      24.564  45.341  51.437  1.00  0.00     0.173 C 
BRANCH  28  29
HETATM   29  N   UNL     1      25.721  44.541  51.822  1.00  0.00    -0.278 N 
HETATM   30  C   UNL     1      26.934  44.477  51.193  1.00  0.00     0.261 A 
HETATM   31  O   UNL     1      27.258  44.996  50.139  1.00  0.00    -0.267 OA
HETATM   32  C   UNL     1      27.848  43.768  52.085  1.00  0.00     0.048 A 
HETATM   33  C   UNL     1      27.161  43.507  53.257  1.00  0.00     0.048 A 
HETATM   34  C   UNL     1      29.182  43.446  51.932  1.00  0.00     0.018 A 
HETATM   35  C   UNL     1      25.810  44.036  53.096  1.00  0.00     0.261 A 
HETATM   36  C   UNL     1      27.767  42.911  54.344  1.00  0.00     0.018 A 
HETATM   37  O   UNL     1      24.965  44.069  53.970  1.00  0.00    -0.267 OA
HETATM   38  C   UNL     1      29.117  42.569  54.213  1.00  0.00     0.001 A 
HETATM   39  C   UNL     1      29.817  42.833  53.017  1.00  0.00     0.001 A 
ENDBRANCH  28  29
ENDBRANCH   3  28
TORSDOF 6
ENDMDL
MODEL 6
REMARK VINA RESULT:     -10.0      1.957      8.250
REMARK  6 active torsions:
REMARK  status: ('A' for Active; 'I' for Inactive)
REMARK    1  A    between atoms: C_7  and  C_8 
REMARK    2  A    between atoms: C_8  and  C_9 
REMARK    3  A    between atoms: C_9  and  N_10 
REMARK    4  A    between atoms: C_12  and  C_13 
REMARK    5  A    between atoms: C_13  and  N_14 
REMARK    6  A    between atoms: C_36  and  O_37 
ROOT
HETATM    1  N   UNL     1      26.425  43.552  51.905  1.00  0.00    -0.054 N 
HETATM    2  H   UNL     1      27.423  43.502  51.596  1.00  0.00     0.281 HD
HETATM    3  C   UNL     1      26.130  45.064  51.992  1.00  0.00     0.240 C 
HETATM    4  C   UNL     1      26.768  45.749  53.203  1.00  0.00    -0.020 A 
HETATM    5  C   UNL     1      27.365  45.000  54.238  1.00  0.00    -0.048 A 
HETATM    6  C   UNL     1      27.436  43.500  54.178  1.00  0.00     0.067 C 
HETATM    7  C   UNL     1      26.373  42.909  53.266  1.00  0.00     0.241 C 
HETATM    8  C   UNL     1      26.731  47.150  53.341  1.00  0.00     0.010 A 
HETATM    9  C   UNL     1      27.320  47.786  54.437  1.00  0.00     0.001 A 
HETATM   10  C   UNL     1      27.942  47.037  55.426  1.00  0.00     0.001 A 
HETATM   11  C   UNL     1      27.964  45.650  55.330  1.00  0.00     0.008 A 
ENDROOT
BRANCH   1  12
HETATM   12  C   UNL     1      25.594  42.749  50.873  1.00  0.00     0.319 C 
BRANCH  12  13
HETATM   13  C   UNL     1      26.389  42.300  49.650  1.00  0.00     0.188 C 
HETATM   14  O   UNL     1      27.268  43.046  49.215  1.00  0.00    -0.290 OA
BRANCH  13  15
HETATM   15  C   UNL     1      26.110  41.015  49.008  1.00  0.00     0.046 A 
HETATM   16  C   UNL     1      24.931  40.758  48.311  1.00  0.00     0.020 A 
HETATM   17  C   UNL     1      23.720  41.597  48.083  1.00  0.00     0.069 C 
HETATM   18  N   UNL     1      25.016  39.499  47.778  1.00  0.00    -0.358 N 
HETATM   19  H   UNL     1      24.309  39.057  47.204  1.00  0.00     0.166 HD
HETATM   20  C   UNL     1      26.213  38.918  48.115  1.00  0.00     0.043 A 
HETATM   21  C   UNL     1      26.915  39.827  48.910  1.00  0.00     0.009 A 
HETATM   22  C   UNL     1      26.715  37.661  47.761  1.00  0.00     0.033 A 
HETATM   23  C   UNL     1      28.186  39.422  49.377  1.00  0.00     0.051 A 
HETATM   24  C   UNL     1      28.711  38.165  49.037  1.00  0.00     0.069 A 
HETATM   25  C   UNL     1      27.979  37.300  48.232  1.00  0.00     0.039 A 
BRANCH  24  26
HETATM   26  O   UNL     1      29.954  37.921  49.560  1.00  0.00    -0.356 OA
HETATM   27  C   UNL     1      30.021  37.671  50.961  1.00  0.00     0.210 C 
ENDBRANCH  24  26
ENDBRANCH  13  15
ENDBRANCH  12  13
ENDBRANCH   1  12
BRANCH   3  28
HETATM   28  C   UNL     1      26.430  45.785  50.643  1.00  0.00     0.173 C 
BRANCH  28  29
HETATM   29  N   UNL     1      25.531  46.837  50.184  1.00  0.00    -0.278 N 
HETATM   30  C   UNL     1      25.867  48.096  49.768  1.00  0.00     0.261 A 
HETATM   31  O   UNL     1      26.967  48.622  49.789  1.00  0.00    -0.267 OA
HETATM   32  C   UNL     1      24.678  48.682  49.153  1.00  0.00     0.048 A 
HETATM   33  C   UNL     1      23.694  47.710  49.152  1.00  0.00     0.048 A 
HETATM   34  C   UNL     1      24.486  49.919  48.572  1.00  0.00     0.018 A 
HETATM   35  C   UNL     1      24.257  46.519  49.780  1.00  0.00     0.261 A 
HETATM   36  C   UNL     1      22.460  47.918  48.568  1.00  0.00     0.018 A 
HETATM   37  O   UNL     1      23.699  45.442  49.857  1.00  0.00    -0.267 OA
HETATM   38  C   UNL     1      22.238  49.166  47.976  1.00  0.00     0.001 A 
HETATM   39  C   UNL     1      23.241  50.158  47.980  1.00  0.00     0.001 A 
ENDBRANCH  28  29
ENDBRANCH   3  28
TORSDOF 6
ENDMDL
MODEL 7
REMARK VINA RESULT:     -10.0      2.013      2.818
REMARK  6 active torsions:
REMARK  status: ('A' for Active; 'I' for Inactive)
REMARK    1  A    between atoms: C_7  and  C_8 
REMARK    2  A    between atoms: C_8  and  C_9 
REMARK    3  A    between atoms: C_9  and  N_10 
REMARK    4  A    between atoms: C_12  and  C_13 
REMARK    5  A    between atoms: C_13  and  N_14 
REMARK    6  A    between atoms: C_36  and  O_37 
ROOT
HETATM    1  N   UNL     1      25.755  45.282  51.420  1.00  0.00    -0.054 N 
HETATM    2  H   UNL     1      24.966  45.053  52.068  1.00  0.00     0.281 HD
HETATM    3  C   UNL     1      26.926  44.414  51.928  1.00  0.00     0.240 C 
HETATM    4  C   UNL     1      27.555  44.924  53.228  1.00  0.00    -0.020 A 
HETATM    5  C   UNL     1      27.223  46.189  53.754  1.00  0.00    -0.048 A 
HETATM    6  C   UNL     1      26.209  47.075  53.085  1.00  0.00     0.067 C 
HETATM    7  C   UNL     1      26.044  46.748  51.609  1.00  0.00     0.241 C 
HETATM    8  C   UNL     1      28.523  44.161  53.908  1.00  0.00     0.010 A 
HETATM    9  C   UNL     1      29.094  44.612  55.100  1.00  0.00     0.001 A 
HETATM   10  C   UNL     1      28.726  45.841  55.629  1.00  0.00     0.001 A 
HETATM   11  C   UNL     1      27.796  46.628  54.959  1.00  0.00     0.008 A 
ENDROOT
BRANCH   1  12
HETATM   12  C   UNL     1      25.258  44.989  49.983  1.00  0.00     0.319 C 
BRANCH  12  13
HETATM   13  C   UNL     1      23.781  44.611  49.903  1.00  0.00     0.188 C 
HETATM   14  O   UNL     1      23.326  43.838  50.749  1.00  0.00    -0.290 OA
BRANCH  13  15
HETATM   15  C   UNL     1      22.929  45.148  48.842  1.00  0.00     0.046 A 
HETATM   16  C   UNL     1      22.355  44.349  47.855  1.00  0.00     0.020 A 
HETATM   17  C   UNL     1      22.468  42.888  47.583  1.00  0.00     0.069 C 
HETATM   18  N   UNL     1      21.566  45.145  47.067  1.00  0.00    -0.358 N 
HETATM   19  H   UNL     1      21.011  44.827  46.282  1.00  0.00     0.166 HD
HETATM   20  C   UNL     1      21.615  46.446  47.503  1.00  0.00     0.043 A 
HETATM   21  C   UNL     1      22.481  46.493  48.596  1.00  0.00     0.009 A 
HETATM   22  C   UNL     1      20.945  47.569  47.005  1.00  0.00     0.033 A 
HETATM   23  C   UNL     1      22.683  47.755  49.202  1.00  0.00     0.051 A 
HETATM   24  C   UNL     1      22.022  48.897  48.720  1.00  0.00     0.069 A 
HETATM   25  C   UNL     1      21.160  48.797  47.636  1.00  0.00     0.039 A 
BRANCH  24  26
HETATM   26  O   UNL     1      22.315  50.041  49.414  1.00  0.00    -0.356 OA
HETATM   27  C   UNL     1      23.142  50.996  48.754  1.00  0.00     0.210 C 
ENDBRANCH  24  26
ENDBRANCH  13  15
ENDBRANCH  12  13
ENDBRANCH   1  12
BRANCH   3  28
HETATM   28  C   UNL     1      26.541  42.905  51.977  1.00  0.00     0.173 C 
BRANCH  28  29
HETATM   29  N   UNL     1      27.435  41.924  51.374  1.00  0.00    -0.278 N 
HETATM   30  C   UNL     1      28.172  40.965  52.015  1.00  0.00     0.261 A 
HETATM   31  O   UNL     1      28.304  40.802  53.216  1.00  0.00    -0.267 OA
HETATM   32  C   UNL     1      28.688  40.058  50.992  1.00  0.00     0.048 A 
HETATM   33  C   UNL     1      28.166  40.467  49.778  1.00  0.00     0.048 A 
HETATM   34  C   UNL     1      29.474  38.930  51.108  1.00  0.00     0.018 A 
HETATM   35  C   UNL     1      27.335  41.640  50.034  1.00  0.00     0.261 A 
HETATM   36  C   UNL     1      28.398  39.770  48.609  1.00  0.00     0.018 A 
HETATM   37  O   UNL     1      26.644  42.199  49.204  1.00  0.00    -0.267 OA
HETATM   38  C   UNL     1      29.197  38.626  48.698  1.00  0.00     0.001 A 
HETATM   39  C   UNL     1      29.732  38.210  49.936  1.00  0.00     0.001 A 
ENDBRANCH  28  29
ENDBRANCH   3  28
TORSDOF 6
ENDMDL
MODEL 8
REMARK VINA RESULT:      -9.9     17.473     20.251
REMARK  6 active torsions:
REMARK  status: ('A' for Active; 'I' for Inactive)
REMARK    1  A    between atoms: C_7  and  C_8 
REMARK    2  A    between atoms: C_8  and  C_9 
REMARK    3  A    between atoms: C_9  and  N_10 
REMARK    4  A    between atoms: C_12  and  C_13 
REMARK    5  A    between atoms: C_13  and  N_14 
REMARK    6  A    between atoms: C_36  and  O_37 
ROOT
HETATM    1  N   UNL     1      40.099  44.888  64.529  1.00  0.00    -0.054 N 
HETATM    2  H   UNL     1      39.496  44.732  65.370  1.00  0.00     0.281 HD
HETATM    3  C   UNL     1      39.443  44.029  63.428  1.00  0.00     0.240 C 
HETATM    4  C   UNL     1      39.681  42.526  63.593  1.00  0.00    -0.020 A 
HETATM    5  C   UNL     1      40.604  42.029  64.536  1.00  0.00    -0.048 A 
HETATM    6  C   UNL     1      41.365  42.952  65.448  1.00  0.00     0.067 C 
HETATM    7  C   UNL     1      41.465  44.362  64.888  1.00  0.00     0.241 C 
HETATM    8  C   UNL     1      39.019  41.596  62.768  1.00  0.00     0.010 A 
HETATM    9  C   UNL     1      39.220  40.222  62.917  1.00  0.00     0.001 A 
HETATM   10  C   UNL     1      40.100  39.747  63.880  1.00  0.00     0.001 A 
HETATM   11  C   UNL     1      40.792  40.645  64.685  1.00  0.00     0.008 A 
ENDROOT
BRANCH   1  12
HETATM   12  C   UNL     1      40.136  46.416  64.278  1.00  0.00     0.319 C 
BRANCH  12  13
HETATM   13  C   UNL     1      40.731  47.220  65.430  1.00  0.00     0.188 C 
HETATM   14  O   UNL     1      41.918  47.546  65.367  1.00  0.00    -0.290 OA
BRANCH  13  15
HETATM   15  C   UNL     1      39.912  47.590  66.584  1.00  0.00     0.046 A 
HETATM   16  C   UNL     1      39.817  46.801  67.729  1.00  0.00     0.020 A 
HETATM   17  C   UNL     1      40.410  45.474  68.060  1.00  0.00     0.069 C 
HETATM   18  N   UNL     1      39.034  47.462  68.639  1.00  0.00    -0.358 N 
HETATM   19  H   UNL     1      38.812  47.131  69.569  1.00  0.00     0.166 HD
HETATM   20  C   UNL     1      38.604  48.656  68.119  1.00  0.00     0.043 A 
HETATM   21  C   UNL     1      39.109  48.761  66.822  1.00  0.00     0.009 A 
HETATM   22  C   UNL     1      37.813  49.644  68.716  1.00  0.00     0.033 A 
HETATM   23  C   UNL     1      38.777  49.927  66.095  1.00  0.00     0.051 A 
HETATM   24  C   UNL     1      37.983  50.932  66.672  1.00  0.00     0.069 A 
HETATM   25  C   UNL     1      37.514  50.788  67.972  1.00  0.00     0.039 A 
BRANCH  24  26
HETATM   26  O   UNL     1      37.754  52.000  65.846  1.00  0.00    -0.356 OA
HETATM   27  C   UNL     1      37.752  53.290  66.452  1.00  0.00     0.210 C 
ENDBRANCH  24  26
ENDBRANCH  13  15
ENDBRANCH  12  13
ENDBRANCH   1  12
BRANCH   3  28
HETATM   28  C   UNL     1      37.943  44.400  63.229  1.00  0.00     0.173 C 
BRANCH  28  29
HETATM   29  N   UNL     1      37.177  44.896  64.366  1.00  0.00    -0.278 N 
HETATM   30  C   UNL     1      37.156  44.393  65.638  1.00  0.00     0.261 A 
HETATM   31  O   UNL     1      37.694  43.379  66.050  1.00  0.00    -0.267 OA
HETATM   32  C   UNL     1      36.469  45.369  66.480  1.00  0.00     0.048 A 
HETATM   33  C   UNL     1      36.178  46.464  65.687  1.00  0.00     0.048 A 
HETATM   34  C   UNL     1      36.191  45.351  67.832  1.00  0.00     0.018 A 
HETATM   35  C   UNL     1      36.665  46.170  64.342  1.00  0.00     0.261 A 
HETATM   36  C   UNL     1      35.592  47.605  66.198  1.00  0.00     0.018 A 
HETATM   37  O   UNL     1      36.664  46.954  63.413  1.00  0.00    -0.267 OA
HETATM   38  C   UNL     1      35.295  47.609  67.565  1.00  0.00     0.001 A 
HETATM   39  C   UNL     1      35.590  46.492  68.374  1.00  0.00     0.001 A 
ENDBRANCH  28  29
ENDBRANCH   3  28
TORSDOF 6
ENDMDL
MODEL 9
REMARK VINA RESULT:      -9.9      1.990      7.966
REMARK  6 active torsions:
REMARK  status: ('A' for Active; 'I' for Inactive)
REMARK    1  A    between atoms: C_7  and  C_8 
REMARK    2  A    between atoms: C_8  and  C_9 
REMARK    3  A    between atoms: C_9  and  N_10 
REMARK    4  A    between atoms: C_12  and  C_13 
REMARK    5  A    between atoms: C_13  and  N_14 
REMARK    6  A    between atoms: C_36  and  O_37 
ROOT
HETATM    1  N   UNL     1      26.670  43.587  52.108  1.00  0.00    -0.054 N 
HETATM    2  H   UNL     1      27.680  43.615  51.837  1.00  0.00     0.281 HD
HETATM    3  C   UNL     1      26.239  45.068  52.121  1.00  0.00     0.240 C 
HETATM    4  C   UNL     1      26.766  45.856  53.323  1.00  0.00    -0.020 A 
HETATM    5  C   UNL     1      27.388  45.205  54.409  1.00  0.00    -0.048 A 
HETATM    6  C   UNL     1      27.594  43.715  54.415  1.00  0.00     0.067 C 
HETATM    7  C   UNL     1      26.623  42.995  53.493  1.00  0.00     0.241 C 
HETATM    8  C   UNL     1      26.600  47.252  53.400  1.00  0.00     0.010 A 
HETATM    9  C   UNL     1      27.088  47.981  54.487  1.00  0.00     0.001 A 
HETATM   10  C   UNL     1      27.736  47.331  55.529  1.00  0.00     0.001 A 
HETATM   11  C   UNL     1      27.884  45.949  55.492  1.00  0.00     0.008 A 
ENDROOT
BRANCH   1  12
HETATM   12  C   UNL     1      25.954  42.672  51.084  1.00  0.00     0.319 C 
BRANCH  12  13
HETATM   13  C   UNL     1      26.868  42.137  49.985  1.00  0.00     0.188 C 
HETATM   14  O   UNL     1      27.238  42.912  49.100  1.00  0.00    -0.290 OA
BRANCH  13  15
HETATM   15  C   UNL     1      27.288  40.735  49.979  1.00  0.00     0.046 A 
HETATM   16  C   UNL     1      28.192  40.212  50.900  1.00  0.00     0.020 A 
HETATM   17  C   UNL     1      28.955  40.859  52.006  1.00  0.00     0.069 C 
HETATM   18  N   UNL     1      28.314  38.868  50.663  1.00  0.00    -0.358 N 
HETATM   19  H   UNL     1      28.891  38.230  51.196  1.00  0.00     0.166 HD
HETATM   20  C   UNL     1      27.523  38.497  49.605  1.00  0.00     0.043 A 
HETATM   21  C   UNL     1      26.885  39.645  49.130  1.00  0.00     0.009 A 
HETATM   22  C   UNL     1      27.329  37.227  49.052  1.00  0.00     0.033 A 
HETATM   23  C   UNL     1      26.018  39.487  48.025  1.00  0.00     0.051 A 
HETATM   24  C   UNL     1      25.807  38.222  47.451  1.00  0.00     0.069 A 
HETATM   25  C   UNL     1      26.456  37.107  47.967  1.00  0.00     0.039 A 
BRANCH  24  26
HETATM   26  O   UNL     1      24.937  38.230  46.394  1.00  0.00    -0.356 OA
HETATM   27  C   UNL     1      24.210  39.436  46.171  1.00  0.00     0.210 C 
ENDBRANCH  24  26
ENDBRANCH  13  15
ENDBRANCH  12  13
ENDBRANCH   1  12
BRANCH   3  28
HETATM   28  C   UNL     1      26.525  45.760  50.754  1.00  0.00     0.173 C 
BRANCH  28  29
HETATM   29  N   UNL     1      25.617  46.796  50.278  1.00  0.00    -0.278 N 
HETATM   30  C   UNL     1      25.945  48.042  49.816  1.00  0.00     0.261 A 
HETATM   31  O   UNL     1      27.045  48.568  49.802  1.00  0.00    -0.267 OA
HETATM   32  C   UNL     1      24.745  48.608  49.204  1.00  0.00     0.048 A 
HETATM   33  C   UNL     1      23.762  47.637  49.251  1.00  0.00     0.048 A 
HETATM   34  C   UNL     1      24.542  49.826  48.588  1.00  0.00     0.018 A 
HETATM   35  C   UNL     1      24.336  46.466  49.907  1.00  0.00     0.261 A 
HETATM   36  C   UNL     1      22.518  47.825  48.683  1.00  0.00     0.018 A 
HETATM   37  O   UNL     1      23.780  45.391  50.028  1.00  0.00    -0.267 OA
HETATM   38  C   UNL     1      22.284  49.054  48.057  1.00  0.00     0.001 A 
HETATM   39  C   UNL     1      23.287  50.046  48.011  1.00  0.00     0.001 A 
ENDBRANCH  28  29
ENDBRANCH   3  28
TORSDOF 6
ENDMDL
MODEL 10
REMARK VINA RESULT:      -9.8     10.676     14.047
REMARK  6 active torsions:
REMARK  status: ('A' for Active; 'I' for Inactive)
REMARK    1  A    between atoms: C_7  and  C_8 
REMARK    2  A    between atoms: C_8  and  C_9 
REMARK    3  A    between atoms: C_9  and  N_10 
REMARK    4  A    between atoms: C_12  and  C_13 
REMARK    5  A    between atoms: C_13  and  N_14 
REMARK    6  A    between atoms: C_36  and  O_37 
ROOT
HETATM    1  N   UNL     1      26.083  48.613  40.855  1.00  0.00    -0.054 N 
HETATM    2  H   UNL     1      25.459  49.313  41.320  1.00  0.00     0.281 HD
HETATM    3  C   UNL     1      26.030  48.991  39.360  1.00  0.00     0.240 C 
HETATM    4  C   UNL     1      24.718  48.604  38.671  1.00  0.00    -0.020 A 
HETATM    5  C   UNL     1      23.769  47.781  39.312  1.00  0.00    -0.048 A 
HETATM    6  C   UNL     1      23.987  47.280  40.713  1.00  0.00     0.067 C 
HETATM    7  C   UNL     1      25.457  47.264  41.098  1.00  0.00     0.241 C 
HETATM    8  C   UNL     1      24.445  49.021  37.354  1.00  0.00     0.010 A 
HETATM    9  C   UNL     1      23.247  48.683  36.721  1.00  0.00     0.001 A 
HETATM   10  C   UNL     1      22.303  47.908  37.381  1.00  0.00     0.001 A 
HETATM   11  C   UNL     1      22.563  47.456  38.670  1.00  0.00     0.008 A 
ENDROOT
BRANCH   1  12
HETATM   12  C   UNL     1      27.468  48.721  41.541  1.00  0.00     0.319 C 
BRANCH  12  13
HETATM   13  C   UNL     1      28.448  47.624  41.134  1.00  0.00     0.188 C 
HETATM   14  O   UNL     1      28.062  46.454  41.155  1.00  0.00    -0.290 OA
BRANCH  13  15
HETATM   15  C   UNL     1      29.816  47.955  40.735  1.00  0.00     0.046 A 
HETATM   16  C   UNL     1      30.367  47.559  39.517  1.00  0.00     0.020 A 
HETATM   17  C   UNL     1      29.810  46.730  38.410  1.00  0.00     0.069 C 
HETATM   18  N   UNL     1      31.627  48.087  39.427  1.00  0.00    -0.358 N 
HETATM   19  H   UNL     1      32.253  47.978  38.638  1.00  0.00     0.166 HD
HETATM   20  C   UNL     1      31.924  48.810  40.555  1.00  0.00     0.043 A 
HETATM   21  C   UNL     1      30.825  48.727  41.412  1.00  0.00     0.009 A 
HETATM   22  C   UNL     1      33.083  49.531  40.862  1.00  0.00     0.033 A 
HETATM   23  C   UNL     1      30.923  49.404  42.649  1.00  0.00     0.051 A 
HETATM   24  C   UNL     1      32.076  50.134  42.981  1.00  0.00     0.069 A 
HETATM   25  C   UNL     1      33.140  50.196  42.089  1.00  0.00     0.039 A 
BRANCH  24  26
HETATM   26  O   UNL     1      32.017  50.737  44.209  1.00  0.00    -0.356 OA
HETATM   27  C   UNL     1      32.876  51.856  44.414  1.00  0.00     0.210 C 
ENDBRANCH  24  26
ENDBRANCH  13  15
ENDBRANCH  12  13
ENDBRANCH   1  12
BRANCH   3  28
HETATM   28  C   UNL     1      26.435  50.477  39.129  1.00  0.00     0.173 C 
BRANCH  28  29
HETATM   29  N   UNL     1      27.781  50.910  39.484  1.00  0.00    -0.278 N 
HETATM   30  C   UNL     1      28.903  50.865  38.702  1.00  0.00     0.261 A 
HETATM   31  O   UNL     1      29.024  50.367  37.596  1.00  0.00    -0.267 OA
HETATM   32  C   UNL     1      29.934  51.650  39.377  1.00  0.00     0.048 A 
HETATM   33  C   UNL     1      29.357  52.206  40.504  1.00  0.00     0.048 A 
HETATM   34  C   UNL     1      31.236  51.926  39.009  1.00  0.00     0.018 A 
HETATM   35  C   UNL     1      27.968  51.759  40.548  1.00  0.00     0.261 A 
HETATM   36  C   UNL     1      30.046  53.073  41.328  1.00  0.00     0.018 A 
HETATM   37  O   UNL     1      27.139  52.137  41.353  1.00  0.00    -0.267 OA
HETATM   38  C   UNL     1      31.369  53.366  40.981  1.00  0.00     0.001 A 
HETATM   39  C   UNL     1      31.959  52.796  39.832  1.00  0.00     0.001 A 
ENDBRANCH  28  29
ENDBRANCH   3  28
TORSDOF 6
ENDMDL
