MODEL 1
REMARK VINA RESULT:      -8.6      0.000      0.000
REMARK  4 active torsions:
REMARK  status: ('A' for Active; 'I' for Inactive)
REMARK    1  A    between atoms: C_2  and  C_3 
REMARK    2  A    between atoms: C_6  and  C_7 
REMARK       I    between atoms: C_7  and  N_8 
REMARK    3  A    between atoms: N_8  and  C_9 
REMARK    4  A    between atoms: C_11  and  C_12 
ROOT
HETATM    1  C   UNL     1      26.749  45.997  53.826  1.00  0.00     0.257 C 
HETATM    2  N   UNL     1      26.869  45.841  52.455  1.00  0.00    -0.323 N 
HETATM    3  O   UNL     1      25.796  46.476  54.428  1.00  0.00    -0.267 OA
HETATM    4  H   UNL     1      27.778  45.581  52.098  1.00  0.00     0.169 HD
ENDROOT
BRANCH   2   5
HETATM    5  C   UNL     1      25.887  46.103  51.475  1.00  0.00     0.035 A 
HETATM    6  C   UNL     1      25.847  47.267  50.699  1.00  0.00     0.042 A 
HETATM    7  C   UNL     1      24.839  47.470  49.738  1.00  0.00    -0.021 A 
HETATM    8  C   UNL     1      23.860  46.481  49.576  1.00  0.00     0.012 A 
HETATM    9  C   UNL     1      23.885  45.322  50.350  1.00  0.00     0.003 A 
HETATM   10  C   UNL     1      24.893  45.135  51.295  1.00  0.00     0.029 A 
BRANCH   7  11
HETATM   11  C   UNL     1      24.798  48.680  48.928  1.00  0.00     0.010 A 
HETATM   12  C   UNL     1      25.834  49.401  48.283  1.00  0.00     0.152 A 
HETATM   13  N   UNL     1      25.394  50.482  47.633  1.00  0.00    -0.187 NA
HETATM   14  N   UNL     1      24.071  50.461  47.857  1.00  0.00    -0.289 N 
HETATM   15  H   UNL     1      23.501  51.198  47.455  1.00  0.00     0.188 HD
HETATM   16  C   UNL     1      23.666  49.409  48.627  1.00  0.00     0.123 A 
ENDBRANCH   7  11
ENDBRANCH   2   5
BRANCH   1  17
HETATM   17  C   UNL     1      27.928  45.566  54.617  1.00  0.00     0.049 A 
HETATM   18  C   UNL     1      28.301  46.313  55.725  1.00  0.00     0.134 A 
HETATM   19  N   UNL     1      29.359  46.010  56.520  1.00  0.00    -0.264 NA
HETATM   20  C   UNL     1      30.082  44.906  56.214  1.00  0.00     0.037 A 
HETATM   21  C   UNL     1      29.757  44.085  55.134  1.00  0.00     0.028 A 
HETATM   22  C   UNL     1      28.667  44.417  54.328  1.00  0.00     0.020 A 
BRANCH  20  23
HETATM   23  C   UNL     1      31.238  44.539  57.127  1.00  0.00     0.029 C 
HETATM   24  C   UNL     1      31.459  43.027  57.115  1.00  0.00     0.016 C 
HETATM   25  C   UNL     1      31.017  45.044  58.555  1.00  0.00     0.016 C 
ENDBRANCH  20  23
ENDBRANCH   1  17
TORSDOF 4
ENDMDL
MODEL 2
REMARK VINA RESULT:      -8.6      1.199      1.483
REMARK  4 active torsions:
REMARK  status: ('A' for Active; 'I' for Inactive)
REMARK    1  A    between atoms: C_2  and  C_3 
REMARK    2  A    between atoms: C_6  and  C_7 
REMARK       I    between atoms: C_7  and  N_8 
REMARK    3  A    between atoms: N_8  and  C_9 
REMARK    4  A    between atoms: C_11  and  C_12 
ROOT
HETATM    1  C   UNL     1      27.689  44.314  52.598  1.00  0.00     0.257 C 
HETATM    2  N   UNL     1      26.883  45.440  52.557  1.00  0.00    -0.323 N 
HETATM    3  O   UNL     1      27.645  43.354  51.838  1.00  0.00    -0.267 OA
HETATM    4  H   UNL     1      26.931  46.070  53.345  1.00  0.00     0.169 HD
ENDROOT
BRANCH   2   5
HETATM    5  C   UNL     1      25.918  45.766  51.579  1.00  0.00     0.035 A 
HETATM    6  C   UNL     1      25.958  46.925  50.797  1.00  0.00     0.042 A 
HETATM    7  C   UNL     1      24.962  47.195  49.839  1.00  0.00    -0.021 A 
HETATM    8  C   UNL     1      23.913  46.279  49.687  1.00  0.00     0.012 A 
HETATM    9  C   UNL     1      23.859  45.125  50.468  1.00  0.00     0.003 A 
HETATM   10  C   UNL     1      24.856  44.872  51.410  1.00  0.00     0.029 A 
BRANCH   7  11
HETATM   11  C   UNL     1      25.005  48.401  49.022  1.00  0.00     0.010 A 
HETATM   12  C   UNL     1      23.977  49.090  48.330  1.00  0.00     0.152 A 
HETATM   13  N   UNL     1      24.419  50.167  47.674  1.00  0.00    -0.187 NA
HETATM   14  N   UNL     1      25.734  50.176  47.943  1.00  0.00    -0.289 N 
HETATM   15  H   UNL     1      26.303  50.918  47.548  1.00  0.00     0.188 HD
HETATM   16  C   UNL     1      26.134  49.142  48.739  1.00  0.00     0.123 A 
ENDBRANCH   7  11
ENDBRANCH   2   5
BRANCH   1  17
HETATM   17  C   UNL     1      28.670  44.280  53.710  1.00  0.00     0.049 A 
HETATM   18  C   UNL     1      28.631  45.280  54.670  1.00  0.00     0.134 A 
HETATM   19  N   UNL     1      29.476  45.347  55.729  1.00  0.00    -0.264 NA
HETATM   20  C   UNL     1      30.405  44.368  55.857  1.00  0.00     0.037 A 
HETATM   21  C   UNL     1      30.493  43.310  54.952  1.00  0.00     0.028 A 
HETATM   22  C   UNL     1      29.615  43.265  53.868  1.00  0.00     0.020 A 
BRANCH  20  23
HETATM   23  C   UNL     1      31.322  44.414  57.065  1.00  0.00     0.029 C 
HETATM   24  C   UNL     1      31.848  43.013  57.381  1.00  0.00     0.016 C 
HETATM   25  C   UNL     1      30.626  45.019  58.286  1.00  0.00     0.016 C 
ENDBRANCH  20  23
ENDBRANCH   1  17
TORSDOF 4
ENDMDL
MODEL 3
REMARK VINA RESULT:      -8.4      1.806      8.837
REMARK  4 active torsions:
REMARK  status: ('A' for Active; 'I' for Inactive)
REMARK    1  A    between atoms: C_2  and  C_3 
REMARK    2  A    between atoms: C_6  and  C_7 
REMARK       I    between atoms: C_7  and  N_8 
REMARK    3  A    between atoms: N_8  and  C_9 
REMARK    4  A    between atoms: C_11  and  C_12 
ROOT
HETATM    1  C   UNL     1      26.059  44.608  52.145  1.00  0.00     0.257 C 
HETATM    2  N   UNL     1      27.412  44.885  52.252  1.00  0.00    -0.323 N 
HETATM    3  O   UNL     1      25.468  43.648  52.626  1.00  0.00    -0.267 OA
HETATM    4  H   UNL     1      27.779  45.623  51.667  1.00  0.00     0.169 HD
ENDROOT
BRANCH   2   5
HETATM    5  C   UNL     1      28.371  44.185  53.016  1.00  0.00     0.035 A 
HETATM    6  C   UNL     1      28.866  44.629  54.247  1.00  0.00     0.042 A 
HETATM    7  C   UNL     1      29.825  43.886  54.959  1.00  0.00    -0.021 A 
HETATM    8  C   UNL     1      30.290  42.686  54.406  1.00  0.00     0.012 A 
HETATM    9  C   UNL     1      29.811  42.239  53.174  1.00  0.00     0.003 A 
HETATM   10  C   UNL     1      28.857  42.986  52.484  1.00  0.00     0.029 A 
BRANCH   7  11
HETATM   11  C   UNL     1      30.338  44.347  56.243  1.00  0.00     0.010 A 
HETATM   12  C   UNL     1      31.253  43.748  57.146  1.00  0.00     0.152 A 
HETATM   13  N   UNL     1      31.469  44.487  58.238  1.00  0.00    -0.187 NA
HETATM   14  N   UNL     1      30.694  45.565  58.042  1.00  0.00    -0.289 N 
HETATM   15  H   UNL     1      30.687  46.289  58.752  1.00  0.00     0.188 HD
HETATM   16  C   UNL     1      29.996  45.528  56.870  1.00  0.00     0.123 A 
ENDBRANCH   7  11
ENDBRANCH   2   5
BRANCH   1  17
HETATM   17  C   UNL     1      25.280  45.568  51.325  1.00  0.00     0.049 A 
HETATM   18  C   UNL     1      25.473  46.927  51.521  1.00  0.00     0.134 A 
HETATM   19  N   UNL     1      24.817  47.893  50.828  1.00  0.00    -0.264 NA
HETATM   20  C   UNL     1      23.930  47.498  49.882  1.00  0.00     0.037 A 
HETATM   21  C   UNL     1      23.699  46.151  49.603  1.00  0.00     0.028 A 
HETATM   22  C   UNL     1      24.382  45.176  50.331  1.00  0.00     0.020 A 
BRANCH  20  23
HETATM   23  C   UNL     1      23.229  48.574  49.074  1.00  0.00     0.029 C 
HETATM   24  C   UNL     1      22.316  47.936  48.027  1.00  0.00     0.016 C 
HETATM   25  C   UNL     1      24.225  49.530  48.414  1.00  0.00     0.016 C 
ENDBRANCH  20  23
ENDBRANCH   1  17
TORSDOF 4
ENDMDL
MODEL 4
REMARK VINA RESULT:      -8.4      4.325     10.558
REMARK  4 active torsions:
REMARK  status: ('A' for Active; 'I' for Inactive)
REMARK    1  A    between atoms: C_2  and  C_3 
REMARK    2  A    between atoms: C_6  and  C_7 
REMARK       I    between atoms: C_7  and  N_8 
REMARK    3  A    between atoms: N_8  and  C_9 
REMARK    4  A    between atoms: C_11  and  C_12 
ROOT
HETATM    1  C   UNL     1      21.993  50.695  49.848  1.00  0.00     0.257 C 
HETATM    2  N   UNL     1      22.609  49.810  48.979  1.00  0.00    -0.323 N 
HETATM    3  O   UNL     1      22.478  51.182  50.862  1.00  0.00    -0.267 OA
HETATM    4  H   UNL     1      22.028  49.372  48.277  1.00  0.00     0.169 HD
ENDROOT
BRANCH   2   5
HETATM    5  C   UNL     1      23.949  49.364  49.018  1.00  0.00     0.035 A 
HETATM    6  C   UNL     1      24.369  48.206  49.681  1.00  0.00     0.042 A 
HETATM    7  C   UNL     1      25.721  47.817  49.685  1.00  0.00    -0.021 A 
HETATM    8  C   UNL     1      26.652  48.621  49.015  1.00  0.00     0.012 A 
HETATM    9  C   UNL     1      26.246  49.783  48.359  1.00  0.00     0.003 A 
HETATM   10  C   UNL     1      24.901  50.152  48.362  1.00  0.00     0.029 A 
BRANCH   7  11
HETATM   11  C   UNL     1      26.159  46.609  50.372  1.00  0.00     0.010 A 
HETATM   12  C   UNL     1      26.029  46.213  51.727  1.00  0.00     0.152 A 
HETATM   13  N   UNL     1      26.577  45.020  51.979  1.00  0.00    -0.187 NA
HETATM   14  N   UNL     1      27.061  44.643  50.785  1.00  0.00    -0.289 N 
HETATM   15  H   UNL     1      27.533  43.748  50.717  1.00  0.00     0.188 HD
HETATM   16  C   UNL     1      26.841  45.557  49.795  1.00  0.00     0.123 A 
ENDBRANCH   7  11
ENDBRANCH   2   5
BRANCH   1  17
HETATM   17  C   UNL     1      20.590  51.039  49.510  1.00  0.00     0.049 A 
HETATM   18  C   UNL     1      19.568  50.540  50.305  1.00  0.00     0.134 A 
HETATM   19  N   UNL     1      18.252  50.791  50.090  1.00  0.00    -0.264 NA
HETATM   20  C   UNL     1      17.924  51.586  49.043  1.00  0.00     0.037 A 
HETATM   21  C   UNL     1      18.892  52.151  48.213  1.00  0.00     0.028 A 
HETATM   22  C   UNL     1      20.239  51.876  48.450  1.00  0.00     0.020 A 
BRANCH  20  23
HETATM   23  C   UNL     1      16.456  51.906  48.828  1.00  0.00     0.029 C 
HETATM   24  C   UNL     1      15.863  52.530  50.091  1.00  0.00     0.016 C 
HETATM   25  C   UNL     1      15.659  50.669  48.409  1.00  0.00     0.016 C 
ENDBRANCH  20  23
ENDBRANCH   1  17
TORSDOF 4
ENDMDL
MODEL 5
REMARK VINA RESULT:      -8.1      2.396      3.787
REMARK  4 active torsions:
REMARK  status: ('A' for Active; 'I' for Inactive)
REMARK    1  A    between atoms: C_2  and  C_3 
REMARK    2  A    between atoms: C_6  and  C_7 
REMARK       I    between atoms: C_7  and  N_8 
REMARK    3  A    between atoms: N_8  and  C_9 
REMARK    4  A    between atoms: C_11  and  C_12 
ROOT
HETATM    1  C   UNL     1      25.880  46.952  51.727  1.00  0.00     0.257 C 
HETATM    2  N   UNL     1      26.090  47.171  50.376  1.00  0.00    -0.323 N 
HETATM    3  O   UNL     1      25.187  47.626  52.479  1.00  0.00    -0.267 OA
HETATM    4  H   UNL     1      26.813  46.626  49.927  1.00  0.00     0.169 HD
ENDROOT
BRANCH   2   5
HETATM    5  C   UNL     1      25.477  48.148  49.561  1.00  0.00     0.035 A 
HETATM    6  C   UNL     1      24.096  48.242  49.358  1.00  0.00     0.042 A 
HETATM    7  C   UNL     1      23.545  49.239  48.531  1.00  0.00    -0.021 A 
HETATM    8  C   UNL     1      24.412  50.140  47.899  1.00  0.00     0.012 A 
HETATM    9  C   UNL     1      25.791  50.049  48.087  1.00  0.00     0.003 A 
HETATM   10  C   UNL     1      26.320  49.058  48.913  1.00  0.00     0.029 A 
BRANCH   7  11
HETATM   11  C   UNL     1      22.107  49.339  48.321  1.00  0.00     0.010 A 
HETATM   12  C   UNL     1      21.070  48.396  48.531  1.00  0.00     0.152 A 
HETATM   13  N   UNL     1      19.861  48.866  48.207  1.00  0.00    -0.187 NA
HETATM   14  N   UNL     1      20.116  50.115  47.789  1.00  0.00    -0.289 N 
HETATM   15  H   UNL     1      19.338  50.690  47.484  1.00  0.00     0.188 HD
HETATM   16  C   UNL     1      21.440  50.445  47.834  1.00  0.00     0.123 A 
ENDBRANCH   7  11
ENDBRANCH   2   5
BRANCH   1  17
HETATM   17  C   UNL     1      26.612  45.797  52.301  1.00  0.00     0.049 A 
HETATM   18  C   UNL     1      26.928  45.808  53.651  1.00  0.00     0.134 A 
HETATM   19  N   UNL     1      27.593  44.807  54.282  1.00  0.00    -0.264 NA
HETATM   20  C   UNL     1      27.957  43.730  53.544  1.00  0.00     0.037 A 
HETATM   21  C   UNL     1      27.653  43.627  52.187  1.00  0.00     0.028 A 
HETATM   22  C   UNL     1      26.971  44.670  51.559  1.00  0.00     0.020 A 
BRANCH  20  23
HETATM   23  C   UNL     1      28.660  42.588  54.255  1.00  0.00     0.029 C 
HETATM   24  C   UNL     1      30.094  42.987  54.602  1.00  0.00     0.016 C 
HETATM   25  C   UNL     1      28.641  41.302  53.425  1.00  0.00     0.016 C 
ENDBRANCH  20  23
ENDBRANCH   1  17
TORSDOF 4
ENDMDL
MODEL 6
REMARK VINA RESULT:      -7.9      3.509      4.168
REMARK  4 active torsions:
REMARK  status: ('A' for Active; 'I' for Inactive)
REMARK    1  A    between atoms: C_2  and  C_3 
REMARK    2  A    between atoms: C_6  and  C_7 
REMARK       I    between atoms: C_7  and  N_8 
REMARK    3  A    between atoms: N_8  and  C_9 
REMARK    4  A    between atoms: C_11  and  C_12 
ROOT
HETATM    1  C   UNL     1      27.541  43.831  52.664  1.00  0.00     0.257 C 
HETATM    2  N   UNL     1      27.478  42.583  52.066  1.00  0.00    -0.323 N 
HETATM    3  O   UNL     1      26.881  44.819  52.367  1.00  0.00    -0.267 OA
HETATM    4  H   UNL     1      28.196  41.917  52.312  1.00  0.00     0.169 HD
ENDROOT
BRANCH   2   5
HETATM    5  C   UNL     1      26.576  42.158  51.066  1.00  0.00     0.035 A 
HETATM    6  C   UNL     1      25.421  42.860  50.705  1.00  0.00     0.042 A 
HETATM    7  C   UNL     1      24.559  42.381  49.700  1.00  0.00    -0.021 A 
HETATM    8  C   UNL     1      24.875  41.172  49.068  1.00  0.00     0.012 A 
HETATM    9  C   UNL     1      26.018  40.459  49.427  1.00  0.00     0.003 A 
HETATM   10  C   UNL     1      26.863  40.950  50.422  1.00  0.00     0.029 A 
BRANCH   7  11
HETATM   11  C   UNL     1      23.358  43.113  49.321  1.00  0.00     0.010 A 
HETATM   12  C   UNL     1      22.537  43.017  48.170  1.00  0.00     0.152 A 
HETATM   13  N   UNL     1      21.515  43.879  48.182  1.00  0.00    -0.187 NA
HETATM   14  N   UNL     1      21.675  44.533  49.343  1.00  0.00    -0.289 N 
HETATM   15  H   UNL     1      21.005  45.255  49.586  1.00  0.00     0.188 HD
HETATM   16  C   UNL     1      22.761  44.117  50.057  1.00  0.00     0.123 A 
ENDBRANCH   7  11
ENDBRANCH   2   5
BRANCH   1  17
HETATM   17  C   UNL     1      28.549  43.963  53.745  1.00  0.00     0.049 A 
HETATM   18  C   UNL     1      28.440  45.020  54.636  1.00  0.00     0.134 A 
HETATM   19  N   UNL     1      29.303  45.237  55.662  1.00  0.00    -0.264 NA
HETATM   20  C   UNL     1      30.321  44.358  55.826  1.00  0.00     0.037 A 
HETATM   21  C   UNL     1      30.484  43.253  54.991  1.00  0.00     0.028 A 
HETATM   22  C   UNL     1      29.588  43.052  53.941  1.00  0.00     0.020 A 
BRANCH  20  23
HETATM   23  C   UNL     1      31.260  44.571  56.999  1.00  0.00     0.029 C 
HETATM   24  C   UNL     1      31.958  43.260  57.360  1.00  0.00     0.016 C 
HETATM   25  C   UNL     1      30.531  45.149  58.214  1.00  0.00     0.016 C 
ENDBRANCH  20  23
ENDBRANCH   1  17
TORSDOF 4
ENDMDL
MODEL 7
REMARK VINA RESULT:      -7.8      2.253      9.051
REMARK  4 active torsions:
REMARK  status: ('A' for Active; 'I' for Inactive)
REMARK    1  A    between atoms: C_2  and  C_3 
REMARK    2  A    between atoms: C_6  and  C_7 
REMARK       I    between atoms: C_7  and  N_8 
REMARK    3  A    between atoms: N_8  and  C_9 
REMARK    4  A    between atoms: C_11  and  C_12 
ROOT
HETATM    1  C   UNL     1      25.501  47.250  51.121  1.00  0.00     0.257 C 
HETATM    2  N   UNL     1      25.319  46.666  52.363  1.00  0.00    -0.323 N 
HETATM    3  O   UNL     1      26.425  47.980  50.783  1.00  0.00    -0.267 OA
HETATM    4  H   UNL     1      24.428  46.223  52.539  1.00  0.00     0.169 HD
ENDROOT
BRANCH   2   5
HETATM    5  C   UNL     1      26.204  46.701  53.463  1.00  0.00     0.035 A 
HETATM    6  C   UNL     1      27.193  45.741  53.703  1.00  0.00     0.042 A 
HETATM    7  C   UNL     1      28.043  45.831  54.821  1.00  0.00    -0.021 A 
HETATM    8  C   UNL     1      27.875  46.905  55.706  1.00  0.00     0.012 A 
HETATM    9  C   UNL     1      26.886  47.862  55.482  1.00  0.00     0.003 A 
HETATM   10  C   UNL     1      26.055  47.760  54.366  1.00  0.00     0.029 A 
BRANCH   7  11
HETATM   11  C   UNL     1      29.075  44.834  55.070  1.00  0.00     0.010 A 
HETATM   12  C   UNL     1      30.171  44.835  55.968  1.00  0.00     0.152 A 
HETATM   13  N   UNL     1      30.910  43.725  55.895  1.00  0.00    -0.187 NA
HETATM   14  N   UNL     1      30.291  43.002  54.948  1.00  0.00    -0.289 N 
HETATM   15  H   UNL     1      30.673  42.094  54.708  1.00  0.00     0.188 HD
HETATM   16  C   UNL     1      29.195  43.621  54.422  1.00  0.00     0.123 A 
ENDBRANCH   7  11
ENDBRANCH   2   5
BRANCH   1  17
HETATM   17  C   UNL     1      24.430  46.978  50.132  1.00  0.00     0.049 A 
HETATM   18  C   UNL     1      23.732  48.046  49.588  1.00  0.00     0.134 A 
HETATM   19  N   UNL     1      22.736  47.913  48.676  1.00  0.00    -0.264 NA
HETATM   20  C   UNL     1      22.417  46.661  48.267  1.00  0.00     0.037 A 
HETATM   21  C   UNL     1      23.089  45.535  48.743  1.00  0.00     0.028 A 
HETATM   22  C   UNL     1      24.108  45.695  49.683  1.00  0.00     0.020 A 
BRANCH  20  23
HETATM   23  C   UNL     1      21.335  46.512  47.213  1.00  0.00     0.029 C 
HETATM   24  C   UNL     1      19.981  46.271  47.879  1.00  0.00     0.016 C 
HETATM   25  C   UNL     1      21.658  45.393  46.220  1.00  0.00     0.016 C 
ENDBRANCH  20  23
ENDBRANCH   1  17
TORSDOF 4
ENDMDL
MODEL 8
REMARK VINA RESULT:      -7.8      2.942      9.580
REMARK  4 active torsions:
REMARK  status: ('A' for Active; 'I' for Inactive)
REMARK    1  A    between atoms: C_2  and  C_3 
REMARK    2  A    between atoms: C_6  and  C_7 
REMARK       I    between atoms: C_7  and  N_8 
REMARK    3  A    between atoms: N_8  and  C_9 
REMARK    4  A    between atoms: C_11  and  C_12 
ROOT
HETATM    1  C   UNL     1      24.116  48.339  49.494  1.00  0.00     0.257 C 
HETATM    2  N   UNL     1      23.914  47.053  49.967  1.00  0.00    -0.323 N 
HETATM    3  O   UNL     1      25.190  48.920  49.389  1.00  0.00    -0.267 OA
HETATM    4  H   UNL     1      22.960  46.772  50.146  1.00  0.00     0.169 HD
ENDROOT
BRANCH   2   5
HETATM    5  C   UNL     1      24.900  46.109  50.328  1.00  0.00     0.035 A 
HETATM    6  C   UNL     1      25.550  46.091  51.567  1.00  0.00     0.042 A 
HETATM    7  C   UNL     1      26.527  45.123  51.866  1.00  0.00    -0.021 A 
HETATM    8  C   UNL     1      26.851  44.174  50.887  1.00  0.00     0.012 A 
HETATM    9  C   UNL     1      26.217  44.189  49.645  1.00  0.00     0.003 A 
HETATM   10  C   UNL     1      25.247  45.153  49.368  1.00  0.00     0.029 A 
BRANCH   7  11
HETATM   11  C   UNL     1      27.201  45.102  53.157  1.00  0.00     0.010 A 
HETATM   12  C   UNL     1      28.337  44.378  53.599  1.00  0.00     0.152 A 
HETATM   13  N   UNL     1      28.650  44.624  54.875  1.00  0.00    -0.187 NA
HETATM   14  N   UNL     1      27.716  45.508  55.259  1.00  0.00    -0.289 N 
HETATM   15  H   UNL     1      27.743  45.856  56.211  1.00  0.00     0.188 HD
HETATM   16  C   UNL     1      26.827  45.823  54.273  1.00  0.00     0.123 A 
ENDBRANCH   7  11
ENDBRANCH   2   5
BRANCH   1  17
HETATM   17  C   UNL     1      22.884  49.077  49.122  1.00  0.00     0.049 A 
HETATM   18  C   UNL     1      21.767  48.357  48.724  1.00  0.00     0.134 A 
HETATM   19  N   UNL     1      20.589  48.927  48.364  1.00  0.00    -0.264 NA
HETATM   20  C   UNL     1      20.502  50.279  48.409  1.00  0.00     0.037 A 
HETATM   21  C   UNL     1      21.570  51.074  48.825  1.00  0.00     0.028 A 
HETATM   22  C   UNL     1      22.773  50.467  49.187  1.00  0.00     0.020 A 
BRANCH  20  23
HETATM   23  C   UNL     1      19.172  50.916  48.051  1.00  0.00     0.029 C 
HETATM   24  C   UNL     1      18.871  50.708  46.567  1.00  0.00     0.016 C 
HETATM   25  C   UNL     1      19.140  52.404  48.407  1.00  0.00     0.016 C 
ENDBRANCH  20  23
ENDBRANCH   1  17
TORSDOF 4
ENDMDL
MODEL 9
REMARK VINA RESULT:      -7.7      2.532      3.960
REMARK  4 active torsions:
REMARK  status: ('A' for Active; 'I' for Inactive)
REMARK    1  A    between atoms: C_2  and  C_3 
REMARK    2  A    between atoms: C_6  and  C_7 
REMARK       I    between atoms: C_7  and  N_8 
REMARK    3  A    between atoms: N_8  and  C_9 
REMARK    4  A    between atoms: C_11  and  C_12 
ROOT
HETATM    1  C   UNL     1      26.591  45.858  53.846  1.00  0.00     0.257 C 
HETATM    2  N   UNL     1      26.710  45.367  52.556  1.00  0.00    -0.323 N 
HETATM    3  O   UNL     1      25.650  46.498  54.301  1.00  0.00    -0.267 OA
HETATM    4  H   UNL     1      27.612  45.000  52.284  1.00  0.00     0.169 HD
ENDROOT
BRANCH   2   5
HETATM    5  C   UNL     1      25.740  45.409  51.531  1.00  0.00     0.035 A 
HETATM    6  C   UNL     1      25.229  44.275  50.891  1.00  0.00     0.042 A 
HETATM    7  C   UNL     1      24.264  44.383  49.872  1.00  0.00    -0.021 A 
HETATM    8  C   UNL     1      23.826  45.660  49.498  1.00  0.00     0.012 A 
HETATM    9  C   UNL     1      24.336  46.798  50.123  1.00  0.00     0.003 A 
HETATM   10  C   UNL     1      25.288  46.672  51.133  1.00  0.00     0.029 A 
BRANCH   7  11
HETATM   11  C   UNL     1      23.730  43.203  49.207  1.00  0.00     0.010 A 
HETATM   12  C   UNL     1      22.551  43.023  48.440  1.00  0.00     0.152 A 
HETATM   13  N   UNL     1      22.400  41.770  47.999  1.00  0.00    -0.187 NA
HETATM   14  N   UNL     1      23.482  41.139  48.480  1.00  0.00    -0.289 N 
HETATM   15  H   UNL     1      23.597  40.153  48.274  1.00  0.00     0.188 HD
HETATM   16  C   UNL     1      24.304  41.947  49.211  1.00  0.00     0.123 A 
ENDBRANCH   7  11
ENDBRANCH   2   5
BRANCH   1  17
HETATM   17  C   UNL     1      27.752  45.600  54.731  1.00  0.00     0.049 A 
HETATM   18  C   UNL     1      28.610  44.553  54.424  1.00  0.00     0.134 A 
HETATM   19  N   UNL     1      29.702  44.229  55.160  1.00  0.00    -0.264 NA
HETATM   20  C   UNL     1      29.972  44.983  56.254  1.00  0.00     0.037 A 
HETATM   21  C   UNL     1      29.177  46.070  56.616  1.00  0.00     0.028 A 
HETATM   22  C   UNL     1      28.057  46.383  55.846  1.00  0.00     0.020 A 
BRANCH  20  23
HETATM   23  C   UNL     1      31.218  44.651  57.054  1.00  0.00     0.029 C 
HETATM   24  C   UNL     1      31.504  43.150  56.986  1.00  0.00     0.016 C 
HETATM   25  C   UNL     1      31.103  45.115  58.508  1.00  0.00     0.016 C 
ENDBRANCH  20  23
ENDBRANCH   1  17
TORSDOF 4
ENDMDL
MODEL 10
REMARK VINA RESULT:      -7.5      5.126      6.744
REMARK  4 active torsions:
REMARK  status: ('A' for Active; 'I' for Inactive)
REMARK    1  A    between atoms: C_2  and  C_3 
REMARK    2  A    between atoms: C_6  and  C_7 
REMARK       I    between atoms: C_7  and  N_8 
REMARK    3  A    between atoms: N_8  and  C_9 
REMARK    4  A    between atoms: C_11  and  C_12 
ROOT
HETATM    1  C   UNL     1      27.939  43.428  52.403  1.00  0.00     0.257 C 
HETATM    2  N   UNL     1      28.029  42.102  52.014  1.00  0.00    -0.323 N 
HETATM    3  O   UNL     1      27.293  44.311  51.852  1.00  0.00    -0.267 OA
HETATM    4  H   UNL     1      28.728  41.534  52.472  1.00  0.00     0.169 HD
ENDROOT
BRANCH   2   5
HETATM    5  C   UNL     1      27.321  41.466  50.971  1.00  0.00     0.035 A 
HETATM    6  C   UNL     1      27.843  40.430  50.190  1.00  0.00     0.042 A 
HETATM    7  C   UNL     1      27.087  39.838  49.161  1.00  0.00    -0.021 A 
HETATM    8  C   UNL     1      25.791  40.316  48.922  1.00  0.00     0.012 A 
HETATM    9  C   UNL     1      25.265  41.355  49.689  1.00  0.00     0.003 A 
HETATM   10  C   UNL     1      26.027  41.927  50.707  1.00  0.00     0.029 A 
BRANCH   7  11
HETATM   11  C   UNL     1      27.628  38.756  48.350  1.00  0.00     0.010 A 
HETATM   12  C   UNL     1      27.008  37.910  47.396  1.00  0.00     0.152 A 
HETATM   13  N   UNL     1      27.848  37.019  46.862  1.00  0.00    -0.187 NA
HETATM   14  N   UNL     1      29.014  37.289  47.469  1.00  0.00    -0.289 N 
HETATM   15  H   UNL     1      29.826  36.732  47.224  1.00  0.00     0.188 HD
HETATM   16  C   UNL     1      28.935  38.312  48.368  1.00  0.00     0.123 A 
ENDBRANCH   7  11
ENDBRANCH   2   5
BRANCH   1  17
HETATM   17  C   UNL     1      28.751  43.795  53.589  1.00  0.00     0.049 A 
HETATM   18  C   UNL     1      28.404  44.925  54.316  1.00  0.00     0.134 A 
HETATM   19  N   UNL     1      29.073  45.352  55.416  1.00  0.00    -0.264 NA
HETATM   20  C   UNL     1      30.136  44.621  55.831  1.00  0.00     0.037 A 
HETATM   21  C   UNL     1      30.534  43.457  55.175  1.00  0.00     0.028 A 
HETATM   22  C   UNL     1      29.833  43.038  54.043  1.00  0.00     0.020 A 
BRANCH  20  23
HETATM   23  C   UNL     1      30.859  45.070  57.088  1.00  0.00     0.029 C 
HETATM   24  C   UNL     1      31.616  43.896  57.708  1.00  0.00     0.016 C 
HETATM   25  C   UNL     1      29.899  45.693  58.105  1.00  0.00     0.016 C 
ENDBRANCH  20  23
ENDBRANCH   1  17
TORSDOF 4
ENDMDL
