MODEL 1
REMARK VINA RESULT:      -9.0      0.000      0.000
REMARK  8 active torsions:
REMARK  status: ('A' for Active; 'I' for Inactive)
REMARK    1  A    between atoms: C_3  and  N_4 
REMARK       I    between atoms: N_4  and  C_5 
REMARK       I    between atoms: C_5  and  N_6 
REMARK       I    between atoms: N_6  and  C_7 
REMARK    2  A    between atoms: C_7  and  C_8 
REMARK    3  A    between atoms: C_8  and  N_9 
REMARK    4  A    between atoms: N_9  and  C_11 
REMARK    5  A    between atoms: N_9  and  C_17 
REMARK    6  A    between atoms: C_11  and  C_12 
REMARK    7  A    between atoms: C_17  and  C_18 
REMARK    8  A    between atoms: C_19  and  O_20 
ROOT
HETATM    1  N   UNL     1      26.248  46.261  51.327  1.00  0.00    -0.053 N 
HETATM    2  H   UNL     1      27.214  46.352  51.679  1.00  0.00     0.281 HD
ENDROOT
BRANCH   1   3
HETATM    3  C   UNL     1      26.276  46.833  49.919  1.00  0.00     0.338 C 
BRANCH   3   4
HETATM    4  C   UNL     1      24.955  47.496  49.536  1.00  0.00     0.251 C 
HETATM    5  N   UNL     1      25.076  48.769  49.023  1.00  0.00    -0.278 N 
HETATM    6  C   UNL     1      24.107  49.450  48.339  1.00  0.00     0.323 C 
HETATM    7  H   UNL     1      25.983  49.049  48.665  1.00  0.00     0.173 HD
HETATM    8  N   UNL     1      22.823  49.215  48.718  1.00  0.00    -0.338 N 
HETATM    9  O   UNL     1      24.447  50.205  47.434  1.00  0.00    -0.247 OA
HETATM   10  H   UNL     1      22.661  48.451  49.367  1.00  0.00     0.164 HD
HETATM   11  O   UNL     1      23.899  46.884  49.693  1.00  0.00    -0.271 OA
BRANCH   8  12
HETATM   12  C   UNL     1      21.675  49.830  48.056  1.00  0.00     0.089 C 
HETATM   13  C   UNL     1      20.444  48.893  48.029  1.00  0.00     0.004 C 
HETATM   14  C   UNL     1      20.743  47.541  47.377  1.00  0.00     0.012 C 
HETATM   15  C   UNL     1      19.842  48.702  49.429  1.00  0.00     0.006 C 
HETATM   16  C   UNL     1      19.500  50.040  50.081  1.00  0.00     0.001 C 
HETATM   17  C   UNL     1      20.699  50.982  50.110  1.00  0.00     0.002 C 
HETATM   18  C   UNL     1      21.302  51.169  48.718  1.00  0.00     0.026 C 
ENDBRANCH   8  12
ENDBRANCH   3   4
ENDBRANCH   1   3
BRANCH   1  19
HETATM   19  C   UNL     1      25.439  47.056  52.322  1.00  0.00     0.300 C 
BRANCH  19  20
HETATM   20  C   UNL     1      26.136  47.344  53.600  1.00  0.00     0.078 A 
HETATM   21  O   UNL     1      25.524  48.240  54.430  1.00  0.00    -0.325 OA
HETATM   22  C   UNL     1      26.339  48.414  55.501  1.00  0.00     0.142 A 
HETATM   23  C   UNL     1      27.452  47.614  55.389  1.00  0.00     0.027 A 
HETATM   24  C   UNL     1      27.322  46.919  54.160  1.00  0.00     0.036 A 
ENDBRANCH  19  20
ENDBRANCH   1  19
BRANCH   1  25
HETATM   25  C   UNL     1      25.952  44.785  51.351  1.00  0.00     0.277 C 
BRANCH  25  26
HETATM   26  C   UNL     1      26.905  44.047  52.251  1.00  0.00     0.001 A 
HETATM   27  C   UNL     1      26.460  43.540  53.478  1.00  0.00     0.073 A 
HETATM   28  C   UNL     1      27.324  42.878  54.346  1.00  0.00     0.037 A 
HETATM   29  C   UNL     1      28.664  42.729  53.993  1.00  0.00     0.003 A 
HETATM   30  C   UNL     1      29.129  43.237  52.780  1.00  0.00     0.001 A 
HETATM   31  C   UNL     1      28.255  43.890  51.909  1.00  0.00     0.011 A 
BRANCH  27  32
HETATM   32  O   UNL     1      25.151  43.737  53.821  1.00  0.00    -0.360 OA
HETATM   33  H   UNL     1      25.131  44.256  54.651  1.00  0.00     0.217 HD
ENDBRANCH  27  32
ENDBRANCH  25  26
ENDBRANCH   1  25
TORSDOF 8
ENDMDL
MODEL 2
REMARK VINA RESULT:      -8.2      1.726      3.655
REMARK  8 active torsions:
REMARK  status: ('A' for Active; 'I' for Inactive)
REMARK    1  A    between atoms: C_3  and  N_4 
REMARK       I    between atoms: N_4  and  C_5 
REMARK       I    between atoms: C_5  and  N_6 
REMARK       I    between atoms: N_6  and  C_7 
REMARK    2  A    between atoms: C_7  and  C_8 
REMARK    3  A    between atoms: C_8  and  N_9 
REMARK    4  A    between atoms: N_9  and  C_11 
REMARK    5  A    between atoms: N_9  and  C_17 
REMARK    6  A    between atoms: C_11  and  C_12 
REMARK    7  A    between atoms: C_17  and  C_18 
REMARK    8  A    between atoms: C_19  and  O_20 
ROOT
HETATM    1  N   UNL     1      26.075  45.517  50.789  1.00  0.00    -0.053 N 
HETATM    2  H   UNL     1      25.375  45.128  50.138  1.00  0.00     0.281 HD
ENDROOT
BRANCH   1   3
HETATM    3  C   UNL     1      26.290  46.954  50.342  1.00  0.00     0.338 C 
BRANCH   3   4
HETATM    4  C   UNL     1      25.008  47.594  49.815  1.00  0.00     0.251 C 
HETATM    5  N   UNL     1      25.185  48.810  49.192  1.00  0.00    -0.278 N 
HETATM    6  C   UNL     1      24.273  49.436  48.386  1.00  0.00     0.323 C 
HETATM    7  H   UNL     1      26.117  49.044  48.869  1.00  0.00     0.173 HD
HETATM    8  N   UNL     1      22.963  49.253  48.702  1.00  0.00    -0.338 N 
HETATM    9  O   UNL     1      24.683  50.097  47.438  1.00  0.00    -0.247 OA
HETATM   10  H   UNL     1      22.747  48.557  49.408  1.00  0.00     0.164 HD
HETATM   11  O   UNL     1      23.933  47.013  49.960  1.00  0.00    -0.271 OA
BRANCH   8  12
HETATM   12  C   UNL     1      21.871  49.817  47.913  1.00  0.00     0.089 C 
HETATM   13  C   UNL     1      20.665  48.853  47.811  1.00  0.00     0.004 C 
HETATM   14  C   UNL     1      21.048  47.483  47.245  1.00  0.00     0.012 C 
HETATM   15  C   UNL     1      19.939  48.704  49.157  1.00  0.00     0.006 C 
HETATM   16  C   UNL     1      19.514  50.059  49.719  1.00  0.00     0.001 C 
HETATM   17  C   UNL     1      20.687  51.027  49.819  1.00  0.00     0.002 C 
HETATM   18  C   UNL     1      21.414  51.172  48.482  1.00  0.00     0.026 C 
ENDBRANCH   8  12
ENDBRANCH   3   4
ENDBRANCH   1   3
BRANCH   1  19
HETATM   19  C   UNL     1      27.265  44.606  50.603  1.00  0.00     0.300 C 
BRANCH  19  20
HETATM   20  C   UNL     1      26.924  43.197  50.287  1.00  0.00     0.078 A 
HETATM   21  O   UNL     1      27.056  42.826  48.979  1.00  0.00    -0.325 OA
HETATM   22  C   UNL     1      26.640  41.537  48.885  1.00  0.00     0.142 A 
HETATM   23  C   UNL     1      26.276  41.062  50.122  1.00  0.00     0.027 A 
HETATM   24  C   UNL     1      26.459  42.134  51.032  1.00  0.00     0.036 A 
ENDBRANCH  19  20
ENDBRANCH   1  19
BRANCH   1  25
HETATM   25  C   UNL     1      25.449  45.419  52.154  1.00  0.00     0.277 C 
BRANCH  25  26
HETATM   26  C   UNL     1      26.423  45.797  53.236  1.00  0.00     0.001 A 
HETATM   27  C   UNL     1      26.344  47.058  53.842  1.00  0.00     0.073 A 
HETATM   28  C   UNL     1      27.248  47.449  54.824  1.00  0.00     0.037 A 
HETATM   29  C   UNL     1      28.265  46.574  55.204  1.00  0.00     0.003 A 
HETATM   30  C   UNL     1      28.367  45.318  54.605  1.00  0.00     0.001 A 
HETATM   31  C   UNL     1      27.449  44.927  53.628  1.00  0.00     0.011 A 
BRANCH  27  32
HETATM   32  O   UNL     1      25.366  47.916  53.420  1.00  0.00    -0.360 OA
HETATM   33  H   UNL     1      24.500  47.491  53.586  1.00  0.00     0.217 HD
ENDBRANCH  27  32
ENDBRANCH  25  26
ENDBRANCH   1  25
TORSDOF 8
ENDMDL
MODEL 3
REMARK VINA RESULT:      -8.1     11.092     13.236
REMARK  8 active torsions:
REMARK  status: ('A' for Active; 'I' for Inactive)
REMARK    1  A    between atoms: C_3  and  N_4 
REMARK       I    between atoms: N_4  and  C_5 
REMARK       I    between atoms: C_5  and  N_6 
REMARK       I    between atoms: N_6  and  C_7 
REMARK    2  A    between atoms: C_7  and  C_8 
REMARK    3  A    between atoms: C_8  and  N_9 
REMARK    4  A    between atoms: N_9  and  C_11 
REMARK    5  A    between atoms: N_9  and  C_17 
REMARK    6  A    between atoms: C_11  and  C_12 
REMARK    7  A    between atoms: C_17  and  C_18 
REMARK    8  A    between atoms: C_19  and  O_20 
ROOT
HETATM    1  N   UNL     1      32.118  49.776  40.641  1.00  0.00    -0.053 N 
HETATM    2  H   UNL     1      31.427  50.185  41.289  1.00  0.00     0.281 HD
ENDROOT
BRANCH   1   3
HETATM    3  C   UNL     1      31.628  48.364  40.365  1.00  0.00     0.338 C 
BRANCH   3   4
HETATM    4  C   UNL     1      30.116  48.304  40.165  1.00  0.00     0.251 C 
HETATM    5  N   UNL     1      29.374  48.747  41.238  1.00  0.00    -0.278 N 
HETATM    6  C   UNL     1      28.047  49.076  41.212  1.00  0.00     0.323 C 
HETATM    7  H   UNL     1      29.839  49.333  41.924  1.00  0.00     0.173 HD
HETATM    8  N   UNL     1      27.265  48.357  40.362  1.00  0.00    -0.338 N 
HETATM    9  O   UNL     1      27.652  49.989  41.929  1.00  0.00    -0.247 OA
HETATM   10  H   UNL     1      27.733  47.740  39.706  1.00  0.00     0.164 HD
HETATM   11  O   UNL     1      29.658  47.888  39.101  1.00  0.00    -0.271 OA
BRANCH   8  12
HETATM   12  C   UNL     1      25.838  48.618  40.186  1.00  0.00     0.089 C 
HETATM   13  C   UNL     1      25.483  48.959  38.719  1.00  0.00     0.004 C 
HETATM   14  C   UNL     1      26.287  50.142  38.174  1.00  0.00     0.012 C 
HETATM   15  C   UNL     1      25.621  47.735  37.800  1.00  0.00     0.006 C 
HETATM   16  C   UNL     1      24.793  46.556  38.306  1.00  0.00     0.001 C 
HETATM   17  C   UNL     1      25.122  46.209  39.754  1.00  0.00     0.002 C 
HETATM   18  C   UNL     1      24.990  47.427  40.669  1.00  0.00     0.026 C 
ENDBRANCH   8  12
ENDBRANCH   3   4
ENDBRANCH   1   3
BRANCH   1  19
HETATM   19  C   UNL     1      33.412  49.863  41.413  1.00  0.00     0.300 C 
BRANCH  19  20
HETATM   20  C   UNL     1      33.357  50.725  42.620  1.00  0.00     0.078 A 
HETATM   21  O   UNL     1      34.516  51.368  42.952  1.00  0.00    -0.325 OA
HETATM   22  C   UNL     1      34.281  52.045  44.105  1.00  0.00     0.142 A 
HETATM   23  C   UNL     1      32.976  51.874  44.501  1.00  0.00     0.027 A 
HETATM   24  C   UNL     1      32.375  51.021  43.540  1.00  0.00     0.036 A 
ENDBRANCH  19  20
ENDBRANCH   1  19
BRANCH   1  25
HETATM   25  C   UNL     1      32.086  50.653  39.417  1.00  0.00     0.277 C 
BRANCH  25  26
HETATM   26  C   UNL     1      31.053  51.739  39.546  1.00  0.00     0.001 A 
HETATM   27  C   UNL     1      29.931  51.743  38.706  1.00  0.00     0.073 A 
HETATM   28  C   UNL     1      28.973  52.750  38.780  1.00  0.00     0.037 A 
HETATM   29  C   UNL     1      29.139  53.784  39.700  1.00  0.00     0.003 A 
HETATM   30  C   UNL     1      30.254  53.803  40.538  1.00  0.00     0.001 A 
HETATM   31  C   UNL     1      31.207  52.784  40.466  1.00  0.00     0.011 A 
BRANCH  27  32
HETATM   32  O   UNL     1      29.814  50.742  37.781  1.00  0.00    -0.360 OA
HETATM   33  H   UNL     1      29.096  50.985  37.163  1.00  0.00     0.217 HD
ENDBRANCH  27  32
ENDBRANCH  25  26
ENDBRANCH   1  25
TORSDOF 8
ENDMDL
MODEL 4
REMARK VINA RESULT:      -8.1      2.444      4.229
REMARK  8 active torsions:
REMARK  status: ('A' for Active; 'I' for Inactive)
REMARK    1  A    between atoms: C_3  and  N_4 
REMARK       I    between atoms: N_4  and  C_5 
REMARK       I    between atoms: C_5  and  N_6 
REMARK       I    between atoms: N_6  and  C_7 
REMARK    2  A    between atoms: C_7  and  C_8 
REMARK    3  A    between atoms: C_8  and  N_9 
REMARK    4  A    between atoms: N_9  and  C_11 
REMARK    5  A    between atoms: N_9  and  C_17 
REMARK    6  A    between atoms: C_11  and  C_12 
REMARK    7  A    between atoms: C_17  and  C_18 
REMARK    8  A    between atoms: C_19  and  O_20 
ROOT
HETATM    1  N   UNL     1      26.752  44.373  52.781  1.00  0.00    -0.053 N 
HETATM    2  H   UNL     1      27.035  43.445  53.135  1.00  0.00     0.281 HD
ENDROOT
BRANCH   1   3
HETATM    3  C   UNL     1      25.243  44.428  52.949  1.00  0.00     0.338 C 
BRANCH   3   4
HETATM    4  C   UNL     1      24.548  45.059  51.744  1.00  0.00     0.251 C 
HETATM    5  N   UNL     1      24.810  46.399  51.565  1.00  0.00    -0.278 N 
HETATM    6  C   UNL     1      24.567  47.115  50.425  1.00  0.00     0.323 C 
HETATM    7  H   UNL     1      25.629  46.786  52.021  1.00  0.00     0.173 HD
HETATM    8  N   UNL     1      23.476  46.746  49.702  1.00  0.00    -0.338 N 
HETATM    9  O   UNL     1      25.340  48.018  50.121  1.00  0.00    -0.247 OA
HETATM   10  H   UNL     1      23.009  45.885  49.968  1.00  0.00     0.164 HD
HETATM   11  O   UNL     1      23.829  44.366  51.025  1.00  0.00    -0.271 OA
BRANCH   8  12
HETATM   12  C   UNL     1      23.109  47.383  48.439  1.00  0.00     0.089 C 
HETATM   13  C   UNL     1      22.090  46.541  47.635  1.00  0.00     0.004 C 
HETATM   14  C   UNL     1      22.581  45.117  47.363  1.00  0.00     0.012 C 
HETATM   15  C   UNL     1      20.708  46.523  48.307  1.00  0.00     0.006 C 
HETATM   16  C   UNL     1      20.184  47.936  48.551  1.00  0.00     0.001 C 
HETATM   17  C   UNL     1      21.178  48.785  49.335  1.00  0.00     0.002 C 
HETATM   18  C   UNL     1      22.554  48.800  48.670  1.00  0.00     0.026 C 
ENDBRANCH   8  12
ENDBRANCH   3   4
ENDBRANCH   1   3
BRANCH   1  19
HETATM   19  C   UNL     1      27.236  44.362  51.351  1.00  0.00     0.300 C 
BRANCH  19  20
HETATM   20  C   UNL     1      27.231  43.026  50.705  1.00  0.00     0.078 A 
HETATM   21  O   UNL     1      27.107  43.018  49.344  1.00  0.00    -0.325 OA
HETATM   22  C   UNL     1      27.059  41.718  48.955  1.00  0.00     0.142 A 
HETATM   23  C   UNL     1      27.185  40.890  50.045  1.00  0.00     0.027 A 
HETATM   24  C   UNL     1      27.298  41.734  51.178  1.00  0.00     0.036 A 
ENDBRANCH  19  20
ENDBRANCH   1  19
BRANCH   1  25
HETATM   25  C   UNL     1      27.472  45.368  53.653  1.00  0.00     0.277 C 
BRANCH  25  26
HETATM   26  C   UNL     1      28.623  44.730  54.381  1.00  0.00     0.001 A 
HETATM   27  C   UNL     1      29.188  45.366  55.494  1.00  0.00     0.073 A 
HETATM   28  C   UNL     1      30.272  44.816  56.172  1.00  0.00     0.037 A 
HETATM   29  C   UNL     1      30.817  43.613  55.725  1.00  0.00     0.003 A 
HETATM   30  C   UNL     1      30.276  42.969  54.613  1.00  0.00     0.001 A 
HETATM   31  C   UNL     1      29.181  43.521  53.943  1.00  0.00     0.011 A 
BRANCH  27  32
HETATM   32  O   UNL     1      28.664  46.567  55.886  1.00  0.00    -0.360 OA
HETATM   33  H   UNL     1      29.403  47.198  55.995  1.00  0.00     0.217 HD
ENDBRANCH  27  32
ENDBRANCH  25  26
ENDBRANCH   1  25
TORSDOF 8
ENDMDL
MODEL 5
REMARK VINA RESULT:      -8.0      3.923      7.615
REMARK  8 active torsions:
REMARK  status: ('A' for Active; 'I' for Inactive)
REMARK    1  A    between atoms: C_3  and  N_4 
REMARK       I    between atoms: N_4  and  C_5 
REMARK       I    between atoms: C_5  and  N_6 
REMARK       I    between atoms: N_6  and  C_7 
REMARK    2  A    between atoms: C_7  and  C_8 
REMARK    3  A    between atoms: C_8  and  N_9 
REMARK    4  A    between atoms: N_9  and  C_11 
REMARK    5  A    between atoms: N_9  and  C_17 
REMARK    6  A    between atoms: C_11  and  C_12 
REMARK    7  A    between atoms: C_17  and  C_18 
REMARK    8  A    between atoms: C_19  and  O_20 
ROOT
HETATM    1  N   UNL     1      26.035  45.191  51.379  1.00  0.00    -0.053 N 
HETATM    2  H   UNL     1      27.046  45.166  51.171  1.00  0.00     0.281 HD
ENDROOT
BRANCH   1   3
HETATM    3  C   UNL     1      25.347  44.742  50.100  1.00  0.00     0.338 C 
BRANCH   3   4
HETATM    4  C   UNL     1      25.888  43.410  49.588  1.00  0.00     0.251 C 
HETATM    5  N   UNL     1      24.947  42.410  49.476  1.00  0.00    -0.278 N 
HETATM    6  C   UNL     1      25.098  41.245  48.775  1.00  0.00     0.323 C 
HETATM    7  H   UNL     1      23.970  42.683  49.443  1.00  0.00     0.173 HD
HETATM    8  N   UNL     1      26.351  40.718  48.744  1.00  0.00    -0.338 N 
HETATM    9  O   UNL     1      24.118  40.763  48.217  1.00  0.00    -0.247 OA
HETATM   10  H   UNL     1      27.107  41.291  49.106  1.00  0.00     0.164 HD
HETATM   11  O   UNL     1      27.082  43.304  49.307  1.00  0.00    -0.271 OA
BRANCH   8  12
HETATM   12  C   UNL     1      26.683  39.504  48.002  1.00  0.00     0.089 C 
HETATM   13  C   UNL     1      28.039  39.621  47.267  1.00  0.00     0.004 C 
HETATM   14  C   UNL     1      28.101  40.826  46.326  1.00  0.00     0.012 C 
HETATM   15  C   UNL     1      29.221  39.634  48.250  1.00  0.00     0.006 C 
HETATM   16  C   UNL     1      29.198  38.418  49.173  1.00  0.00     0.001 C 
HETATM   17  C   UNL     1      27.865  38.280  49.900  1.00  0.00     0.002 C 
HETATM   18  C   UNL     1      26.689  38.271  48.925  1.00  0.00     0.026 C 
ENDBRANCH   8  12
ENDBRANCH   3   4
ENDBRANCH   1   3
BRANCH   1  19
HETATM   19  C   UNL     1      25.794  46.631  51.763  1.00  0.00     0.300 C 
BRANCH  19  20
HETATM   20  C   UNL     1      25.856  47.592  50.634  1.00  0.00     0.078 A 
HETATM   21  O   UNL     1      24.660  48.103  50.215  1.00  0.00    -0.325 OA
HETATM   22  C   UNL     1      24.919  48.901  49.147  1.00  0.00     0.142 A 
HETATM   23  C   UNL     1      26.270  48.937  48.895  1.00  0.00     0.027 A 
HETATM   24  C   UNL     1      26.879  48.092  49.857  1.00  0.00     0.036 A 
ENDBRANCH  19  20
ENDBRANCH   1  19
BRANCH   1  25
HETATM   25  C   UNL     1      25.838  44.223  52.516  1.00  0.00     0.277 C 
BRANCH  25  26
HETATM   26  C   UNL     1      27.153  43.720  53.044  1.00  0.00     0.001 A 
HETATM   27  C   UNL     1      27.585  42.424  52.732  1.00  0.00     0.073 A 
HETATM   28  C   UNL     1      28.783  41.919  53.229  1.00  0.00     0.037 A 
HETATM   29  C   UNL     1      29.563  42.714  54.068  1.00  0.00     0.003 A 
HETATM   30  C   UNL     1      29.146  44.003  54.399  1.00  0.00     0.001 A 
HETATM   31  C   UNL     1      27.948  44.508  53.888  1.00  0.00     0.011 A 
BRANCH  27  32
HETATM   32  O   UNL     1      26.781  41.649  51.944  1.00  0.00    -0.360 OA
HETATM   33  H   UNL     1      26.583  42.151  51.128  1.00  0.00     0.217 HD
ENDBRANCH  27  32
ENDBRANCH  25  26
ENDBRANCH   1  25
TORSDOF 8
ENDMDL
MODEL 6
REMARK VINA RESULT:      -7.9      4.742      8.317
REMARK  8 active torsions:
REMARK  status: ('A' for Active; 'I' for Inactive)
REMARK    1  A    between atoms: C_3  and  N_4 
REMARK       I    between atoms: N_4  and  C_5 
REMARK       I    between atoms: C_5  and  N_6 
REMARK       I    between atoms: N_6  and  C_7 
REMARK    2  A    between atoms: C_7  and  C_8 
REMARK    3  A    between atoms: C_8  and  N_9 
REMARK    4  A    between atoms: N_9  and  C_11 
REMARK    5  A    between atoms: N_9  and  C_17 
REMARK    6  A    between atoms: C_11  and  C_12 
REMARK    7  A    between atoms: C_17  and  C_18 
REMARK    8  A    between atoms: C_19  and  O_20 
ROOT
HETATM    1  N   UNL     1      26.839  43.476  51.978  1.00  0.00    -0.053 N 
HETATM    2  H   UNL     1      27.631  42.819  51.906  1.00  0.00     0.281 HD
ENDROOT
BRANCH   1   3
HETATM    3  C   UNL     1      25.663  42.767  51.325  1.00  0.00     0.338 C 
BRANCH   3   4
HETATM    4  C   UNL     1      26.103  41.574  50.481  1.00  0.00     0.251 C 
HETATM    5  N   UNL     1      26.489  41.887  49.196  1.00  0.00    -0.278 N 
HETATM    6  C   UNL     1      27.195  41.074  48.353  1.00  0.00     0.323 C 
HETATM    7  H   UNL     1      26.738  42.851  49.000  1.00  0.00     0.173 HD
HETATM    8  N   UNL     1      26.956  39.740  48.461  1.00  0.00    -0.338 N 
HETATM    9  O   UNL     1      27.996  41.584  47.576  1.00  0.00    -0.247 OA
HETATM   10  H   UNL     1      26.394  39.429  49.247  1.00  0.00     0.164 HD
HETATM   11  O   UNL     1      26.097  40.445  50.972  1.00  0.00    -0.271 OA
BRANCH   8  12
HETATM   12  C   UNL     1      27.661  38.740  47.663  1.00  0.00     0.089 C 
HETATM   13  C   UNL     1      28.175  37.561  48.524  1.00  0.00     0.004 C 
HETATM   14  C   UNL     1      29.071  38.017  49.679  1.00  0.00     0.012 C 
HETATM   15  C   UNL     1      27.022  36.688  49.041  1.00  0.00     0.006 C 
HETATM   16  C   UNL     1      26.138  36.191  47.900  1.00  0.00     0.001 C 
HETATM   17  C   UNL     1      25.628  37.337  47.033  1.00  0.00     0.002 C 
HETATM   18  C   UNL     1      26.774  38.210  46.522  1.00  0.00     0.026 C 
ENDBRANCH   8  12
ENDBRANCH   3   4
ENDBRANCH   1   3
BRANCH   1  19
HETATM   19  C   UNL     1      27.334  44.699  51.245  1.00  0.00     0.300 C 
BRANCH  19  20
HETATM   20  C   UNL     1      26.287  45.704  50.936  1.00  0.00     0.078 A 
HETATM   21  O   UNL     1      25.780  45.673  49.668  1.00  0.00    -0.325 OA
HETATM   22  C   UNL     1      24.894  46.697  49.567  1.00  0.00     0.142 A 
HETATM   23  C   UNL     1      24.798  47.365  50.764  1.00  0.00     0.027 A 
HETATM   24  C   UNL     1      25.697  46.723  51.653  1.00  0.00     0.036 A 
ENDBRANCH  19  20
ENDBRANCH   1  19
BRANCH   1  25
HETATM   25  C   UNL     1      26.639  43.699  53.454  1.00  0.00     0.277 C 
BRANCH  25  26
HETATM   26  C   UNL     1      27.951  43.878  54.166  1.00  0.00     0.001 A 
HETATM   27  C   UNL     1      28.904  42.851  54.151  1.00  0.00     0.073 A 
HETATM   28  C   UNL     1      30.115  42.975  54.824  1.00  0.00     0.037 A 
HETATM   29  C   UNL     1      30.381  44.139  55.542  1.00  0.00     0.003 A 
HETATM   30  C   UNL     1      29.441  45.169  55.579  1.00  0.00     0.001 A 
HETATM   31  C   UNL     1      28.232  45.043  54.892  1.00  0.00     0.011 A 
BRANCH  27  32
HETATM   32  O   UNL     1      28.601  41.700  53.476  1.00  0.00    -0.360 OA
HETATM   33  H   UNL     1      28.857  41.823  52.540  1.00  0.00     0.217 HD
ENDBRANCH  27  32
ENDBRANCH  25  26
ENDBRANCH   1  25
TORSDOF 8
ENDMDL
MODEL 7
REMARK VINA RESULT:      -7.9     12.192     14.272
REMARK  8 active torsions:
REMARK  status: ('A' for Active; 'I' for Inactive)
REMARK    1  A    between atoms: C_3  and  N_4 
REMARK       I    between atoms: N_4  and  C_5 
REMARK       I    between atoms: C_5  and  N_6 
REMARK       I    between atoms: N_6  and  C_7 
REMARK    2  A    between atoms: C_7  and  C_8 
REMARK    3  A    between atoms: C_8  and  N_9 
REMARK    4  A    between atoms: N_9  and  C_11 
REMARK    5  A    between atoms: N_9  and  C_17 
REMARK    6  A    between atoms: C_11  and  C_12 
REMARK    7  A    between atoms: C_17  and  C_18 
REMARK    8  A    between atoms: C_19  and  O_20 
ROOT
HETATM    1  N   UNL     1      35.355  52.154  40.915  1.00  0.00    -0.053 N 
HETATM    2  H   UNL     1      34.914  52.946  41.409  1.00  0.00     0.281 HD
ENDROOT
BRANCH   1   3
HETATM    3  C   UNL     1      34.687  52.104  39.551  1.00  0.00     0.338 C 
BRANCH   3   4
HETATM    4  C   UNL     1      33.163  52.123  39.651  1.00  0.00     0.251 C 
HETATM    5  N   UNL     1      32.654  53.064  40.519  1.00  0.00    -0.278 N 
HETATM    6  C   UNL     1      31.354  53.486  40.567  1.00  0.00     0.323 C 
HETATM    7  H   UNL     1      33.255  53.837  40.783  1.00  0.00     0.173 HD
HETATM    8  N   UNL     1      30.407  52.556  40.270  1.00  0.00    -0.338 N 
HETATM    9  O   UNL     1      31.125  54.656  40.854  1.00  0.00    -0.247 OA
HETATM   10  H   UNL     1      30.726  51.670  39.892  1.00  0.00     0.164 HD
HETATM   11  O   UNL     1      32.499  51.336  38.977  1.00  0.00    -0.271 OA
BRANCH   8  12
HETATM   12  C   UNL     1      28.979  52.863  40.234  1.00  0.00     0.089 C 
HETATM   13  C   UNL     1      28.312  52.387  38.921  1.00  0.00     0.004 C 
HETATM   14  C   UNL     1      28.988  52.959  37.672  1.00  0.00     0.012 C 
HETATM   15  C   UNL     1      28.232  50.854  38.845  1.00  0.00     0.006 C 
HETATM   16  C   UNL     1      27.527  50.267  40.065  1.00  0.00     0.001 C 
HETATM   17  C   UNL     1      28.163  50.731  41.370  1.00  0.00     0.002 C 
HETATM   18  C   UNL     1      28.247  52.255  41.445  1.00  0.00     0.026 C 
ENDBRANCH   8  12
ENDBRANCH   3   4
ENDBRANCH   1   3
BRANCH   1  19
HETATM   19  C   UNL     1      35.061  50.977  41.813  1.00  0.00     0.300 C 
BRANCH  19  20
HETATM   20  C   UNL     1      34.070  51.246  42.884  1.00  0.00     0.078 A 
HETATM   21  O   UNL     1      32.826  50.712  42.699  1.00  0.00    -0.325 OA
HETATM   22  C   UNL     1      32.057  51.120  43.741  1.00  0.00     0.142 A 
HETATM   23  C   UNL     1      32.799  51.880  44.613  1.00  0.00     0.027 A 
HETATM   24  C   UNL     1      34.103  51.962  44.062  1.00  0.00     0.036 A 
ENDBRANCH  19  20
ENDBRANCH   1  19
BRANCH   1  25
HETATM   25  C   UNL     1      36.818  52.499  40.835  1.00  0.00     0.277 C 
BRANCH  25  26
HETATM   26  C   UNL     1      37.436  52.600  42.203  1.00  0.00     0.001 A 
HETATM   27  C   UNL     1      38.298  51.595  42.660  1.00  0.00     0.073 A 
HETATM   28  C   UNL     1      38.863  51.645  43.931  1.00  0.00     0.037 A 
HETATM   29  C   UNL     1      38.552  52.711  44.774  1.00  0.00     0.003 A 
HETATM   30  C   UNL     1      37.687  53.716  44.342  1.00  0.00     0.001 A 
HETATM   31  C   UNL     1      37.133  53.666  43.061  1.00  0.00     0.011 A 
BRANCH  27  32
HETATM   32  O   UNL     1      38.552  50.538  41.830  1.00  0.00    -0.360 OA
HETATM   33  H   UNL     1      38.389  49.714  42.333  1.00  0.00     0.217 HD
ENDBRANCH  27  32
ENDBRANCH  25  26
ENDBRANCH   1  25
TORSDOF 8
ENDMDL
MODEL 8
REMARK VINA RESULT:      -7.8      2.510      8.032
REMARK  8 active torsions:
REMARK  status: ('A' for Active; 'I' for Inactive)
REMARK    1  A    between atoms: C_3  and  N_4 
REMARK       I    between atoms: N_4  and  C_5 
REMARK       I    between atoms: C_5  and  N_6 
REMARK       I    between atoms: N_6  and  C_7 
REMARK    2  A    between atoms: C_7  and  C_8 
REMARK    3  A    between atoms: C_8  and  N_9 
REMARK    4  A    between atoms: N_9  and  C_11 
REMARK    5  A    between atoms: N_9  and  C_17 
REMARK    6  A    between atoms: C_11  and  C_12 
REMARK    7  A    between atoms: C_17  and  C_18 
REMARK    8  A    between atoms: C_19  and  O_20 
ROOT
HETATM    1  N   UNL     1      21.342  49.604  48.997  1.00  0.00    -0.053 N 
HETATM    2  H   UNL     1      21.318  48.805  49.650  1.00  0.00     0.281 HD
ENDROOT
BRANCH   1   3
HETATM    3  C   UNL     1      22.760  49.638  48.452  1.00  0.00     0.338 C 
BRANCH   3   4
HETATM    4  C   UNL     1      23.624  48.510  49.013  1.00  0.00     0.251 C 
HETATM    5  N   UNL     1      24.982  48.717  48.907  1.00  0.00    -0.278 N 
HETATM    6  C   UNL     1      25.950  48.026  49.583  1.00  0.00     0.323 C 
HETATM    7  H   UNL     1      25.305  49.667  48.759  1.00  0.00     0.173 HD
HETATM    8  N   UNL     1      25.691  46.716  49.837  1.00  0.00    -0.338 N 
HETATM    9  O   UNL     1      26.967  48.622  49.925  1.00  0.00    -0.247 OA
HETATM   10  H   UNL     1      24.751  46.381  49.648  1.00  0.00     0.164 HD
HETATM   11  O   UNL     1      23.086  47.523  49.515  1.00  0.00    -0.271 OA
BRANCH   8  12
HETATM   12  C   UNL     1      26.604  45.858  50.588  1.00  0.00     0.089 C 
HETATM   13  C   UNL     1      26.071  45.532  52.003  1.00  0.00     0.004 C 
HETATM   14  C   UNL     1      25.763  46.788  52.824  1.00  0.00     0.012 C 
HETATM   15  C   UNL     1      24.850  44.600  51.953  1.00  0.00     0.006 C 
HETATM   16  C   UNL     1      25.150  43.324  51.171  1.00  0.00     0.001 C 
HETATM   17  C   UNL     1      25.686  43.623  49.775  1.00  0.00     0.002 C 
HETATM   18  C   UNL     1      26.897  44.553  49.824  1.00  0.00     0.026 C 
ENDBRANCH   8  12
ENDBRANCH   3   4
ENDBRANCH   1   3
BRANCH   1  19
HETATM   19  C   UNL     1      20.966  50.777  49.870  1.00  0.00     0.300 C 
BRANCH  19  20
HETATM   20  C   UNL     1      19.618  51.339  49.607  1.00  0.00     0.078 A 
HETATM   21  O   UNL     1      18.586  50.776  50.305  1.00  0.00    -0.325 OA
HETATM   22  C   UNL     1      17.444  51.376  49.881  1.00  0.00     0.142 A 
HETATM   23  C   UNL     1      17.731  52.342  48.946  1.00  0.00     0.027 A 
HETATM   24  C   UNL     1      19.138  52.321  48.768  1.00  0.00     0.036 A 
ENDBRANCH  19  20
ENDBRANCH   1  19
BRANCH   1  25
HETATM   25  C   UNL     1      20.318  49.288  47.940  1.00  0.00     0.277 C 
BRANCH  25  26
HETATM   26  C   UNL     1      20.159  47.803  47.755  1.00  0.00     0.001 A 
HETATM   27  C   UNL     1      19.647  47.017  48.796  1.00  0.00     0.073 A 
HETATM   28  C   UNL     1      19.515  45.638  48.666  1.00  0.00     0.037 A 
HETATM   29  C   UNL     1      19.913  45.023  47.481  1.00  0.00     0.003 A 
HETATM   30  C   UNL     1      20.434  45.786  46.436  1.00  0.00     0.001 A 
HETATM   31  C   UNL     1      20.555  47.171  46.568  1.00  0.00     0.011 A 
BRANCH  27  32
HETATM   32  O   UNL     1      19.305  47.639  49.965  1.00  0.00    -0.360 OA
HETATM   33  H   UNL     1      19.837  48.458  50.038  1.00  0.00     0.217 HD
ENDBRANCH  27  32
ENDBRANCH  25  26
ENDBRANCH   1  25
TORSDOF 8
ENDMDL
MODEL 9
REMARK VINA RESULT:      -7.7     13.539     16.490
REMARK  8 active torsions:
REMARK  status: ('A' for Active; 'I' for Inactive)
REMARK    1  A    between atoms: C_3  and  N_4 
REMARK       I    between atoms: N_4  and  C_5 
REMARK       I    between atoms: C_5  and  N_6 
REMARK       I    between atoms: N_6  and  C_7 
REMARK    2  A    between atoms: C_7  and  C_8 
REMARK    3  A    between atoms: C_8  and  N_9 
REMARK    4  A    between atoms: N_9  and  C_11 
REMARK    5  A    between atoms: N_9  and  C_17 
REMARK    6  A    between atoms: C_11  and  C_12 
REMARK    7  A    between atoms: C_17  and  C_18 
REMARK    8  A    between atoms: C_19  and  O_20 
ROOT
HETATM    1  N   UNL     1      34.955  52.029  40.476  1.00  0.00    -0.053 N 
HETATM    2  H   UNL     1      34.486  52.611  41.187  1.00  0.00     0.281 HD
ENDROOT
BRANCH   1   3
HETATM    3  C   UNL     1      36.270  52.732  40.180  1.00  0.00     0.338 C 
BRANCH   3   4
HETATM    4  C   UNL     1      37.012  53.131  41.454  1.00  0.00     0.251 C 
HETATM    5  N   UNL     1      38.383  53.008  41.385  1.00  0.00    -0.278 N 
HETATM    6  C   UNL     1      39.280  53.569  42.252  1.00  0.00     0.323 C 
HETATM    7  H   UNL     1      38.807  52.962  40.465  1.00  0.00     0.173 HD
HETATM    8  N   UNL     1      38.880  53.677  43.547  1.00  0.00    -0.338 N 
HETATM    9  O   UNL     1      40.362  53.946  41.816  1.00  0.00    -0.247 OA
HETATM   10  H   UNL     1      37.906  53.480  43.753  1.00  0.00     0.164 HD
HETATM   11  O   UNL     1      36.377  53.531  42.429  1.00  0.00    -0.271 OA
BRANCH   8  12
HETATM   12  C   UNL     1      39.705  54.294  44.583  1.00  0.00     0.089 C 
HETATM   13  C   UNL     1      38.933  55.372  45.381  1.00  0.00     0.004 C 
HETATM   14  C   UNL     1      38.342  56.463  44.484  1.00  0.00     0.012 C 
HETATM   15  C   UNL     1      37.847  54.752  46.274  1.00  0.00     0.006 C 
HETATM   16  C   UNL     1      38.425  53.688  47.204  1.00  0.00     0.001 C 
HETATM   17  C   UNL     1      39.198  52.621  46.438  1.00  0.00     0.002 C 
HETATM   18  C   UNL     1      40.275  53.236  45.545  1.00  0.00     0.026 C 
ENDBRANCH   8  12
ENDBRANCH   3   4
ENDBRANCH   1   3
BRANCH   1  19
HETATM   19  C   UNL     1      33.969  52.014  39.333  1.00  0.00     0.300 C 
BRANCH  19  20
HETATM   20  C   UNL     1      32.574  52.346  39.714  1.00  0.00     0.078 A 
HETATM   21  O   UNL     1      32.417  53.426  40.537  1.00  0.00    -0.325 OA
HETATM   22  C   UNL     1      31.093  53.525  40.817  1.00  0.00     0.142 A 
HETATM   23  C   UNL     1      30.390  52.545  40.158  1.00  0.00     0.027 A 
HETATM   24  C   UNL     1      31.346  51.781  39.442  1.00  0.00     0.036 A 
ENDBRANCH  19  20
ENDBRANCH   1  19
BRANCH   1  25
HETATM   25  C   UNL     1      35.147  50.683  41.124  1.00  0.00     0.277 C 
BRANCH  25  26
HETATM   26  C   UNL     1      33.864  50.172  41.720  1.00  0.00     0.001 A 
HETATM   27  C   UNL     1      33.222  50.898  42.732  1.00  0.00     0.073 A 
HETATM   28  C   UNL     1      32.050  50.438  43.324  1.00  0.00     0.037 A 
HETATM   29  C   UNL     1      31.509  49.221  42.911  1.00  0.00     0.003 A 
HETATM   30  C   UNL     1      32.139  48.478  41.913  1.00  0.00     0.001 A 
HETATM   31  C   UNL     1      33.309  48.951  41.315  1.00  0.00     0.011 A 
BRANCH  27  32
HETATM   32  O   UNL     1      33.796  52.067  43.150  1.00  0.00    -0.360 OA
HETATM   33  H   UNL     1      33.381  52.321  43.999  1.00  0.00     0.217 HD
ENDBRANCH  27  32
ENDBRANCH  25  26
ENDBRANCH   1  25
TORSDOF 8
ENDMDL
MODEL 10
REMARK VINA RESULT:      -7.7     12.054     14.223
REMARK  8 active torsions:
REMARK  status: ('A' for Active; 'I' for Inactive)
REMARK    1  A    between atoms: C_3  and  N_4 
REMARK       I    between atoms: N_4  and  C_5 
REMARK       I    between atoms: C_5  and  N_6 
REMARK       I    between atoms: N_6  and  C_7 
REMARK    2  A    between atoms: C_7  and  C_8 
REMARK    3  A    between atoms: C_8  and  N_9 
REMARK    4  A    between atoms: N_9  and  C_11 
REMARK    5  A    between atoms: N_9  and  C_17 
REMARK    6  A    between atoms: C_11  and  C_12 
REMARK    7  A    between atoms: C_17  and  C_18 
REMARK    8  A    between atoms: C_19  and  O_20 
ROOT
HETATM    1  N   UNL     1      33.037  51.870  39.521  1.00  0.00    -0.053 N 
HETATM    2  H   UNL     1      32.859  51.173  40.261  1.00  0.00     0.281 HD
ENDROOT
BRANCH   1   3
HETATM    3  C   UNL     1      32.393  51.303  38.267  1.00  0.00     0.338 C 
BRANCH   3   4
HETATM    4  C   UNL     1      31.387  50.197  38.581  1.00  0.00     0.251 C 
HETATM    5  N   UNL     1      31.769  49.342  39.591  1.00  0.00    -0.278 N 
HETATM    6  C   UNL     1      30.946  48.476  40.259  1.00  0.00     0.323 C 
HETATM    7  H   UNL     1      32.493  49.656  40.229  1.00  0.00     0.173 HD
HETATM    8  N   UNL     1      29.931  47.931  39.536  1.00  0.00    -0.338 N 
HETATM    9  O   UNL     1      31.159  48.260  41.447  1.00  0.00    -0.247 OA
HETATM   10  H   UNL     1      29.762  48.310  38.610  1.00  0.00     0.164 HD
HETATM   11  O   UNL     1      30.333  50.135  37.949  1.00  0.00    -0.271 OA
BRANCH   8  12
HETATM   12  C   UNL     1      28.943  47.025  40.116  1.00  0.00     0.089 C 
HETATM   13  C   UNL     1      27.500  47.565  39.973  1.00  0.00     0.004 C 
HETATM   14  C   UNL     1      27.327  48.961  40.577  1.00  0.00     0.012 C 
HETATM   15  C   UNL     1      27.024  47.540  38.512  1.00  0.00     0.006 C 
HETATM   16  C   UNL     1      27.152  46.145  37.904  1.00  0.00     0.001 C 
HETATM   17  C   UNL     1      28.565  45.590  38.043  1.00  0.00     0.002 C 
HETATM   18  C   UNL     1      29.042  45.620  39.495  1.00  0.00     0.026 C 
ENDBRANCH   8  12
ENDBRANCH   3   4
ENDBRANCH   1   3
BRANCH   1  19
HETATM   19  C   UNL     1      34.543  51.958  39.481  1.00  0.00     0.300 C 
BRANCH  19  20
HETATM   20  C   UNL     1      35.226  51.451  40.697  1.00  0.00     0.078 A 
HETATM   21  O   UNL     1      34.838  52.010  41.882  1.00  0.00    -0.325 OA
HETATM   22  C   UNL     1      35.614  51.466  42.854  1.00  0.00     0.142 A 
HETATM   23  C   UNL     1      36.473  50.537  42.315  1.00  0.00     0.027 A 
HETATM   24  C   UNL     1      36.222  50.524  40.919  1.00  0.00     0.036 A 
ENDBRANCH  19  20
ENDBRANCH   1  19
BRANCH   1  25
HETATM   25  C   UNL     1      32.372  53.135  39.996  1.00  0.00     0.277 C 
BRANCH  25  26
HETATM   26  C   UNL     1      30.993  52.864  40.531  1.00  0.00     0.001 A 
HETATM   27  C   UNL     1      30.812  51.950  41.577  1.00  0.00     0.073 A 
HETATM   28  C   UNL     1      29.546  51.657  42.074  1.00  0.00     0.037 A 
HETATM   29  C   UNL     1      28.431  52.274  41.509  1.00  0.00     0.003 A 
HETATM   30  C   UNL     1      28.588  53.179  40.460  1.00  0.00     0.001 A 
HETATM   31  C   UNL     1      29.863  53.478  39.973  1.00  0.00     0.011 A 
BRANCH  27  32
HETATM   32  O   UNL     1      31.918  51.325  42.084  1.00  0.00    -0.360 OA
HETATM   33  H   UNL     1      32.691  51.602  41.553  1.00  0.00     0.217 HD
ENDBRANCH  27  32
ENDBRANCH  25  26
ENDBRANCH   1  25
TORSDOF 8
ENDMDL
