MODEL 1
REMARK VINA RESULT:     -11.0      0.000      0.000
REMARK  6 active torsions:
REMARK  status: ('A' for Active; 'I' for Inactive)
REMARK    1  A    between atoms: C_5  and  C_6 
REMARK    2  A    between atoms: C_6  and  N_7 
REMARK       I    between atoms: N_7  and  C_8 
REMARK    3  A    between atoms: C_8  and  C_9 
REMARK    4  A    between atoms: C_10  and  N_11 
REMARK    5  A    between atoms: N_12  and  C_13 
REMARK    6  A    between atoms: C_16  and  N_17 
REMARK       I    between atoms: N_17  and  C_18 
ROOT
HETATM    1  C   UNL     1      25.673  45.894  53.168  1.00  0.00     0.103 C 
HETATM    2  C   UNL     1      25.646  44.513  53.349  1.00  0.00     0.105 C 
HETATM    3  N   UNL     1      25.690  43.974  52.058  1.00  0.00    -0.284 N 
HETATM    4  C   UNL     1      24.952  44.856  51.277  1.00  0.00     0.166 A 
HETATM    5  C   UNL     1      25.047  46.098  51.911  1.00  0.00     0.123 A 
HETATM    6  N   UNL     1      24.599  47.227  51.304  1.00  0.00    -0.242 NA
HETATM    7  C   UNL     1      23.989  47.033  50.125  1.00  0.00     0.086 A 
HETATM    8  C   UNL     1      23.861  45.752  49.527  1.00  0.00     0.088 A 
HETATM    9  N   UNL     1      24.369  44.637  50.077  1.00  0.00    -0.226 NA
HETATM   10  C   UNL     1      23.455  48.134  49.470  1.00  0.00     0.034 A 
HETATM   11  C   UNL     1      22.782  48.008  48.254  1.00  0.00     0.002 A 
HETATM   12  C   UNL     1      22.642  46.753  47.678  1.00  0.00     0.002 A 
HETATM   13  C   UNL     1      23.186  45.639  48.318  1.00  0.00     0.034 A 
ENDROOT
BRANCH   1  14
HETATM   14  C   UNL     1      26.242  46.873  54.086  1.00  0.00     0.257 C 
HETATM   15  N   UNL     1      26.946  46.282  55.119  1.00  0.00    -0.352 N 
HETATM   16  H   UNL     1      26.973  45.270  55.104  1.00  0.00     0.163 HD
HETATM   17  O   UNL     1      26.226  48.083  53.902  1.00  0.00    -0.267 OA
BRANCH  15  18
HETATM   18  C   UNL     1      28.072  46.938  55.739  1.00  0.00     0.161 C 
BRANCH  18  19
HETATM   19  C   UNL     1      29.138  45.930  56.105  1.00  0.00    -0.041 A 
HETATM   20  C   UNL     1      29.504  44.908  55.213  1.00  0.00     0.009 A 
HETATM   21  C   UNL     1      30.448  43.944  55.576  1.00  0.00     0.007 A 
HETATM   22  C   UNL     1      31.064  43.995  56.829  1.00  0.00    -0.062 A 
HETATM   23  C   UNL     1      32.083  42.962  57.210  1.00  0.00     0.048 C 
HETATM   24  C   UNL     1      30.746  45.045  57.698  1.00  0.00     0.007 A 
HETATM   25  C   UNL     1      29.788  46.000  57.342  1.00  0.00     0.009 A 
ENDBRANCH  18  19
ENDBRANCH  15  18
ENDBRANCH   1  14
BRANCH   2  26
HETATM   26  N   UNL     1      25.730  43.769  54.490  1.00  0.00    -0.287 NA
HETATM   27  H   UNL     1      26.171  44.203  55.306  1.00  0.00     0.125 HD
HETATM   28  H   UNL     1      24.893  43.264  54.790  1.00  0.00     0.125 HD
ENDBRANCH   2  26
BRANCH   3  29
HETATM   29  C   UNL     1      26.565  42.927  51.606  1.00  0.00     0.042 A 
HETATM   30  C   UNL     1      26.030  41.750  51.058  1.00  0.00     0.032 A 
HETATM   31  C   UNL     1      26.816  40.606  50.884  1.00  0.00     0.032 A 
HETATM   32  C   UNL     1      28.151  40.601  51.269  1.00  0.00     0.034 A 
HETATM   33  C   UNL     1      28.715  41.795  51.732  1.00  0.00     0.032 A 
HETATM   34  C   UNL     1      27.933  42.948  51.899  1.00  0.00     0.032 A 
BRANCH  32  35
HETATM   35  N   UNL     1      28.947  39.438  51.300  1.00  0.00    -0.328 N 
HETATM   36  C   UNL     1      29.239  38.600  50.238  1.00  0.00     0.218 C 
HETATM   37  C   UNL     1      29.890  37.317  50.686  1.00  0.00     0.117 C 
HETATM   38  O   UNL     1      29.024  38.809  49.048  1.00  0.00    -0.274 OA
HETATM   39  H   UNL     1      29.261  39.141  52.216  1.00  0.00     0.169 HD
ENDBRANCH  32  35
ENDBRANCH   3  29
TORSDOF 6
ENDMDL
MODEL 2
REMARK VINA RESULT:     -10.7      2.425      6.143
REMARK  6 active torsions:
REMARK  status: ('A' for Active; 'I' for Inactive)
REMARK    1  A    between atoms: C_5  and  C_6 
REMARK    2  A    between atoms: C_6  and  N_7 
REMARK       I    between atoms: N_7  and  C_8 
REMARK    3  A    between atoms: C_8  and  C_9 
REMARK    4  A    between atoms: C_10  and  N_11 
REMARK    5  A    between atoms: N_12  and  C_13 
REMARK    6  A    between atoms: C_16  and  N_17 
REMARK       I    between atoms: N_17  and  C_18 
ROOT
HETATM    1  C   UNL     1      26.123  46.107  52.178  1.00  0.00     0.103 C 
HETATM    2  C   UNL     1      25.610  46.675  51.014  1.00  0.00     0.105 C 
HETATM    3  N   UNL     1      25.110  45.599  50.272  1.00  0.00    -0.284 N 
HETATM    4  C   UNL     1      25.988  44.551  50.526  1.00  0.00     0.166 A 
HETATM    5  C   UNL     1      26.533  44.806  51.786  1.00  0.00     0.123 A 
HETATM    6  N   UNL     1      27.286  43.873  52.423  1.00  0.00    -0.242 NA
HETATM    7  C   UNL     1      27.532  42.763  51.712  1.00  0.00     0.086 A 
HETATM    8  C   UNL     1      27.007  42.551  50.410  1.00  0.00     0.088 A 
HETATM    9  N   UNL     1      26.196  43.429  49.799  1.00  0.00    -0.226 NA
HETATM   10  C   UNL     1      28.342  41.785  52.275  1.00  0.00     0.034 A 
HETATM   11  C   UNL     1      28.666  40.615  51.586  1.00  0.00     0.002 A 
HETATM   12  C   UNL     1      28.166  40.416  50.306  1.00  0.00     0.002 A 
HETATM   13  C   UNL     1      27.340  41.383  49.734  1.00  0.00     0.034 A 
ENDROOT
BRANCH   1  14
HETATM   14  C   UNL     1      26.189  46.741  53.489  1.00  0.00     0.257 C 
HETATM   15  N   UNL     1      26.943  46.015  54.392  1.00  0.00    -0.352 N 
HETATM   16  H   UNL     1      27.341  45.156  54.032  1.00  0.00     0.163 HD
HETATM   17  O   UNL     1      25.749  47.857  53.738  1.00  0.00    -0.267 OA
BRANCH  15  18
HETATM   18  C   UNL     1      27.674  46.658  55.456  1.00  0.00     0.161 C 
BRANCH  18  19
HETATM   19  C   UNL     1      28.806  45.776  55.932  1.00  0.00    -0.041 A 
HETATM   20  C   UNL     1      29.409  45.985  57.183  1.00  0.00     0.009 A 
HETATM   21  C   UNL     1      30.493  45.205  57.597  1.00  0.00     0.007 A 
HETATM   22  C   UNL     1      30.982  44.185  56.776  1.00  0.00    -0.062 A 
HETATM   23  C   UNL     1      32.140  43.346  57.229  1.00  0.00     0.048 C 
HETATM   24  C   UNL     1      30.348  43.935  55.555  1.00  0.00     0.007 A 
HETATM   25  C   UNL     1      29.274  44.726  55.133  1.00  0.00     0.009 A 
ENDBRANCH  18  19
ENDBRANCH  15  18
ENDBRANCH   1  14
BRANCH   2  26
HETATM   26  N   UNL     1      25.439  47.984  50.670  1.00  0.00    -0.287 NA
HETATM   27  H   UNL     1      25.067  48.183  49.737  1.00  0.00     0.125 HD
HETATM   28  H   UNL     1      24.987  48.599  51.350  1.00  0.00     0.125 HD
ENDBRANCH   2  26
BRANCH   3  29
HETATM   29  C   UNL     1      23.813  45.524  49.655  1.00  0.00     0.042 A 
HETATM   30  C   UNL     1      23.096  44.317  49.669  1.00  0.00     0.032 A 
HETATM   31  C   UNL     1      21.988  44.121  48.839  1.00  0.00     0.032 A 
HETATM   32  C   UNL     1      21.577  45.117  47.960  1.00  0.00     0.034 A 
HETATM   33  C   UNL     1      22.231  46.353  48.004  1.00  0.00     0.032 A 
HETATM   34  C   UNL     1      23.337  46.559  48.842  1.00  0.00     0.032 A 
BRANCH  32  35
HETATM   35  N   UNL     1      20.596  44.922  46.968  1.00  0.00    -0.328 N 
HETATM   36  C   UNL     1      19.266  44.591  47.165  1.00  0.00     0.218 C 
HETATM   37  C   UNL     1      18.578  44.201  45.882  1.00  0.00     0.117 C 
HETATM   38  O   UNL     1      18.651  44.592  48.227  1.00  0.00    -0.274 OA
HETATM   39  H   UNL     1      20.925  44.939  46.010  1.00  0.00     0.169 HD
ENDBRANCH  32  35
ENDBRANCH   3  29
TORSDOF 6
ENDMDL
MODEL 3
REMARK VINA RESULT:     -10.3      2.506      8.946
REMARK  6 active torsions:
REMARK  status: ('A' for Active; 'I' for Inactive)
REMARK    1  A    between atoms: C_5  and  C_6 
REMARK    2  A    between atoms: C_6  and  N_7 
REMARK       I    between atoms: N_7  and  C_8 
REMARK    3  A    between atoms: C_8  and  C_9 
REMARK    4  A    between atoms: C_10  and  N_11 
REMARK    5  A    between atoms: N_12  and  C_13 
REMARK    6  A    between atoms: C_16  and  N_17 
REMARK       I    between atoms: N_17  and  C_18 
ROOT
HETATM    1  C   UNL     1      27.772  42.209  52.374  1.00  0.00     0.103 C 
HETATM    2  C   UNL     1      26.579  42.909  52.205  1.00  0.00     0.105 C 
HETATM    3  N   UNL     1      26.882  44.234  52.536  1.00  0.00    -0.284 N 
HETATM    4  C   UNL     1      27.803  44.141  53.574  1.00  0.00     0.166 A 
HETATM    5  C   UNL     1      28.455  42.918  53.398  1.00  0.00     0.123 A 
HETATM    6  N   UNL     1      29.553  42.601  54.129  1.00  0.00    -0.242 NA
HETATM    7  C   UNL     1      29.884  43.495  55.072  1.00  0.00     0.086 A 
HETATM    8  C   UNL     1      29.172  44.709  55.264  1.00  0.00     0.088 A 
HETATM    9  N   UNL     1      28.132  45.073  54.496  1.00  0.00    -0.226 NA
HETATM   10  C   UNL     1      30.964  43.214  55.898  1.00  0.00     0.034 A 
HETATM   11  C   UNL     1      31.351  44.084  56.919  1.00  0.00     0.002 A 
HETATM   12  C   UNL     1      30.644  45.262  57.118  1.00  0.00     0.002 A 
HETATM   13  C   UNL     1      29.566  45.563  56.287  1.00  0.00     0.034 A 
ENDROOT
BRANCH   1  14
HETATM   14  C   UNL     1      28.191  41.026  51.633  1.00  0.00     0.257 C 
HETATM   15  N   UNL     1      27.661  40.987  50.356  1.00  0.00    -0.352 N 
HETATM   16  H   UNL     1      27.065  41.767  50.109  1.00  0.00     0.163 HD
HETATM   17  O   UNL     1      29.025  40.222  52.030  1.00  0.00    -0.267 OA
BRANCH  15  18
HETATM   18  C   UNL     1      28.363  40.353  49.266  1.00  0.00     0.161 C 
BRANCH  18  19
HETATM   19  C   UNL     1      27.597  39.146  48.773  1.00  0.00    -0.041 A 
HETATM   20  C   UNL     1      26.775  39.226  47.636  1.00  0.00     0.009 A 
HETATM   21  C   UNL     1      26.024  38.125  47.215  1.00  0.00     0.007 A 
HETATM   22  C   UNL     1      26.097  36.914  47.909  1.00  0.00    -0.062 A 
HETATM   23  C   UNL     1      25.295  35.733  47.447  1.00  0.00     0.048 C 
HETATM   24  C   UNL     1      26.959  36.812  49.006  1.00  0.00     0.007 A 
HETATM   25  C   UNL     1      27.698  37.919  49.438  1.00  0.00     0.009 A 
ENDBRANCH  18  19
ENDBRANCH  15  18
ENDBRANCH   1  14
BRANCH   2  26
HETATM   26  N   UNL     1      25.387  42.507  51.676  1.00  0.00    -0.287 NA
HETATM   27  H   UNL     1      25.400  41.715  51.027  1.00  0.00     0.125 HD
HETATM   28  H   UNL     1      24.595  42.405  52.315  1.00  0.00     0.125 HD
ENDBRANCH   2  26
BRANCH   3  29
HETATM   29  C   UNL     1      26.551  45.399  51.762  1.00  0.00     0.042 A 
HETATM   30  C   UNL     1      25.730  46.397  52.308  1.00  0.00     0.032 A 
HETATM   31  C   UNL     1      25.150  47.383  51.503  1.00  0.00     0.032 A 
HETATM   32  C   UNL     1      25.361  47.388  50.129  1.00  0.00     0.034 A 
HETATM   33  C   UNL     1      26.250  46.451  49.589  1.00  0.00     0.032 A 
HETATM   34  C   UNL     1      26.841  45.467  50.395  1.00  0.00     0.032 A 
BRANCH  32  35
HETATM   35  N   UNL     1      24.664  48.228  49.238  1.00  0.00    -0.328 N 
HETATM   36  C   UNL     1      25.132  49.392  48.652  1.00  0.00     0.218 C 
HETATM   37  C   UNL     1      24.035  50.170  47.973  1.00  0.00     0.117 C 
HETATM   38  O   UNL     1      26.288  49.805  48.644  1.00  0.00    -0.274 OA
HETATM   39  H   UNL     1      23.689  48.000  49.085  1.00  0.00     0.169 HD
ENDBRANCH  32  35
ENDBRANCH   3  29
TORSDOF 6
ENDMDL
MODEL 4
REMARK VINA RESULT:     -10.3      3.174      7.479
REMARK  6 active torsions:
REMARK  status: ('A' for Active; 'I' for Inactive)
REMARK    1  A    between atoms: C_5  and  C_6 
REMARK    2  A    between atoms: C_6  and  N_7 
REMARK       I    between atoms: N_7  and  C_8 
REMARK    3  A    between atoms: C_8  and  C_9 
REMARK    4  A    between atoms: C_10  and  N_11 
REMARK    5  A    between atoms: N_12  and  C_13 
REMARK    6  A    between atoms: C_16  and  N_17 
REMARK       I    between atoms: N_17  and  C_18 
ROOT
HETATM    1  C   UNL     1      25.208  46.725  50.346  1.00  0.00     0.103 C 
HETATM    2  C   UNL     1      25.287  46.407  51.701  1.00  0.00     0.105 C 
HETATM    3  N   UNL     1      25.466  45.020  51.741  1.00  0.00    -0.284 N 
HETATM    4  C   UNL     1      24.711  44.531  50.681  1.00  0.00     0.166 A 
HETATM    5  C   UNL     1      24.655  45.565  49.743  1.00  0.00     0.123 A 
HETATM    6  N   UNL     1      24.155  45.353  48.499  1.00  0.00    -0.242 NA
HETATM    7  C   UNL     1      23.647  44.129  48.294  1.00  0.00     0.086 A 
HETATM    8  C   UNL     1      23.671  43.110  49.283  1.00  0.00     0.088 A 
HETATM    9  N   UNL     1      24.233  43.280  50.490  1.00  0.00    -0.226 NA
HETATM   10  C   UNL     1      23.067  43.853  47.063  1.00  0.00     0.034 A 
HETATM   11  C   UNL     1      22.493  42.611  46.784  1.00  0.00     0.002 A 
HETATM   12  C   UNL     1      22.501  41.622  47.758  1.00  0.00     0.002 A 
HETATM   13  C   UNL     1      23.093  41.880  48.994  1.00  0.00     0.034 A 
ENDROOT
BRANCH   1  14
HETATM   14  C   UNL     1      25.626  47.978  49.729  1.00  0.00     0.257 C 
HETATM   15  N   UNL     1      24.683  48.474  48.848  1.00  0.00    -0.352 N 
HETATM   16  H   UNL     1      23.845  47.915  48.748  1.00  0.00     0.163 HD
HETATM   17  O   UNL     1      26.630  48.601  50.048  1.00  0.00    -0.267 OA
BRANCH  15  18
HETATM   18  C   UNL     1      24.533  49.891  48.623  1.00  0.00     0.161 C 
BRANCH  18  19
HETATM   19  C   UNL     1      23.078  50.293  48.716  1.00  0.00    -0.041 A 
HETATM   20  C   UNL     1      22.248  50.270  47.582  1.00  0.00     0.009 A 
HETATM   21  C   UNL     1      20.919  50.695  47.658  1.00  0.00     0.007 A 
HETATM   22  C   UNL     1      20.386  51.132  48.874  1.00  0.00    -0.062 A 
HETATM   23  C   UNL     1      18.956  51.580  48.951  1.00  0.00     0.048 C 
HETATM   24  C   UNL     1      21.191  51.101  50.017  1.00  0.00     0.007 A 
HETATM   25  C   UNL     1      22.526  50.691  49.939  1.00  0.00     0.009 A 
ENDBRANCH  18  19
ENDBRANCH  15  18
ENDBRANCH   1  14
BRANCH   2  26
HETATM   26  N   UNL     1      25.355  47.217  52.796  1.00  0.00    -0.287 NA
HETATM   27  H   UNL     1      24.919  46.882  53.660  1.00  0.00     0.125 HD
HETATM   28  H   UNL     1      26.259  47.641  53.018  1.00  0.00     0.125 HD
ENDBRANCH   2  26
BRANCH   3  29
HETATM   29  C   UNL     1      26.457  44.314  52.507  1.00  0.00     0.042 A 
HETATM   30  C   UNL     1      26.217  44.007  53.856  1.00  0.00     0.032 A 
HETATM   31  C   UNL     1      27.251  43.596  54.703  1.00  0.00     0.032 A 
HETATM   32  C   UNL     1      28.554  43.498  54.231  1.00  0.00     0.034 A 
HETATM   33  C   UNL     1      28.787  43.715  52.869  1.00  0.00     0.032 A 
HETATM   34  C   UNL     1      27.752  44.118  52.013  1.00  0.00     0.032 A 
BRANCH  32  35
HETATM   35  N   UNL     1      29.669  43.277  55.066  1.00  0.00    -0.328 N 
HETATM   36  C   UNL     1      30.346  44.221  55.819  1.00  0.00     0.218 C 
HETATM   37  C   UNL     1      31.641  43.687  56.373  1.00  0.00     0.117 C 
HETATM   38  O   UNL     1      29.995  45.373  56.053  1.00  0.00    -0.274 OA
HETATM   39  H   UNL     1      30.067  42.346  55.035  1.00  0.00     0.169 HD
ENDBRANCH  32  35
ENDBRANCH   3  29
TORSDOF 6
ENDMDL
MODEL 5
REMARK VINA RESULT:     -10.2      1.381      1.982
REMARK  6 active torsions:
REMARK  status: ('A' for Active; 'I' for Inactive)
REMARK    1  A    between atoms: C_5  and  C_6 
REMARK    2  A    between atoms: C_6  and  N_7 
REMARK       I    between atoms: N_7  and  C_8 
REMARK    3  A    between atoms: C_8  and  C_9 
REMARK    4  A    between atoms: C_10  and  N_11 
REMARK    5  A    between atoms: N_12  and  C_13 
REMARK    6  A    between atoms: C_16  and  N_17 
REMARK       I    between atoms: N_17  and  C_18 
ROOT
HETATM    1  C   UNL     1      24.730  45.412  51.427  1.00  0.00     0.103 C 
HETATM    2  C   UNL     1      24.866  44.112  51.908  1.00  0.00     0.105 C 
HETATM    3  N   UNL     1      24.950  43.307  50.767  1.00  0.00    -0.284 N 
HETATM    4  C   UNL     1      24.102  43.907  49.843  1.00  0.00     0.166 A 
HETATM    5  C   UNL     1      24.063  45.261  50.184  1.00  0.00     0.123 A 
HETATM    6  N   UNL     1      23.477  46.170  49.364  1.00  0.00    -0.242 NA
HETATM    7  C   UNL     1      22.873  45.653  48.283  1.00  0.00     0.086 A 
HETATM    8  C   UNL     1      22.883  44.265  47.987  1.00  0.00     0.088 A 
HETATM    9  N   UNL     1      23.527  43.363  48.746  1.00  0.00    -0.226 NA
HETATM   10  C   UNL     1      22.203  46.516  47.426  1.00  0.00     0.034 A 
HETATM   11  C   UNL     1      21.529  46.049  46.296  1.00  0.00     0.002 A 
HETATM   12  C   UNL     1      21.525  44.689  46.017  1.00  0.00     0.002 A 
HETATM   13  C   UNL     1      22.205  43.813  46.862  1.00  0.00     0.034 A 
ENDROOT
BRANCH   1  14
HETATM   14  C   UNL     1      25.198  46.627  52.083  1.00  0.00     0.257 C 
HETATM   15  N   UNL     1      25.502  46.425  53.417  1.00  0.00    -0.352 N 
HETATM   16  H   UNL     1      25.362  45.481  53.756  1.00  0.00     0.163 HD
HETATM   17  O   UNL     1      25.432  47.679  51.501  1.00  0.00    -0.267 OA
BRANCH  15  18
HETATM   18  C   UNL     1      26.523  47.195  54.084  1.00  0.00     0.161 C 
BRANCH  18  19
HETATM   19  C   UNL     1      27.661  46.302  54.522  1.00  0.00    -0.041 A 
HETATM   20  C   UNL     1      27.903  45.073  53.885  1.00  0.00     0.009 A 
HETATM   21  C   UNL     1      28.919  44.223  54.328  1.00  0.00     0.007 A 
HETATM   22  C   UNL     1      29.730  44.594  55.404  1.00  0.00    -0.062 A 
HETATM   23  C   UNL     1      30.826  43.681  55.870  1.00  0.00     0.048 C 
HETATM   24  C   UNL     1      29.532  45.841  56.004  1.00  0.00     0.007 A 
HETATM   25  C   UNL     1      28.503  46.685  55.572  1.00  0.00     0.009 A 
ENDBRANCH  18  19
ENDBRANCH  15  18
ENDBRANCH   1  14
BRANCH   2  26
HETATM   26  N   UNL     1      25.055  43.655  53.180  1.00  0.00    -0.287 NA
HETATM   27  H   UNL     1      25.385  42.692  53.292  1.00  0.00     0.125 HD
HETATM   28  H   UNL     1      25.559  44.261  53.832  1.00  0.00     0.125 HD
ENDBRANCH   2  26
BRANCH   3  29
HETATM   29  C   UNL     1      25.933  42.287  50.518  1.00  0.00     0.042 A 
HETATM   30  C   UNL     1      25.541  40.942  50.417  1.00  0.00     0.032 A 
HETATM   31  C   UNL     1      26.479  39.906  50.473  1.00  0.00     0.032 A 
HETATM   32  C   UNL     1      27.829  40.184  50.649  1.00  0.00     0.034 A 
HETATM   33  C   UNL     1      28.237  41.522  50.661  1.00  0.00     0.032 A 
HETATM   34  C   UNL     1      27.302  42.565  50.595  1.00  0.00     0.032 A 
BRANCH  32  35
HETATM   35  N   UNL     1      28.800  39.194  50.904  1.00  0.00    -0.328 N 
HETATM   36  C   UNL     1      29.254  38.228  50.023  1.00  0.00     0.218 C 
HETATM   37  C   UNL     1      30.089  37.177  50.709  1.00  0.00     0.117 C 
HETATM   38  O   UNL     1      29.045  38.168  48.815  1.00  0.00    -0.274 OA
HETATM   39  H   UNL     1      29.130  39.132  51.859  1.00  0.00     0.169 HD
ENDBRANCH  32  35
ENDBRANCH   3  29
TORSDOF 6
ENDMDL
MODEL 6
REMARK VINA RESULT:     -10.0      2.240      7.387
REMARK  6 active torsions:
REMARK  status: ('A' for Active; 'I' for Inactive)
REMARK    1  A    between atoms: C_5  and  C_6 
REMARK    2  A    between atoms: C_6  and  N_7 
REMARK       I    between atoms: N_7  and  C_8 
REMARK    3  A    between atoms: C_8  and  C_9 
REMARK    4  A    between atoms: C_10  and  N_11 
REMARK    5  A    between atoms: N_12  and  C_13 
REMARK    6  A    between atoms: C_16  and  N_17 
REMARK       I    between atoms: N_17  and  C_18 
ROOT
HETATM    1  C   UNL     1      26.392  43.916  51.126  1.00  0.00     0.103 C 
HETATM    2  C   UNL     1      26.922  43.109  50.122  1.00  0.00     0.105 C 
HETATM    3  N   UNL     1      27.679  42.142  50.792  1.00  0.00    -0.284 N 
HETATM    4  C   UNL     1      28.230  42.809  51.880  1.00  0.00     0.166 A 
HETATM    5  C   UNL     1      27.350  43.855  52.171  1.00  0.00     0.123 A 
HETATM    6  N   UNL     1      27.490  44.589  53.304  1.00  0.00    -0.242 NA
HETATM    7  C   UNL     1      28.570  44.293  54.042  1.00  0.00     0.086 A 
HETATM    8  C   UNL     1      29.478  43.258  53.695  1.00  0.00     0.088 A 
HETATM    9  N   UNL     1      29.310  42.471  52.620  1.00  0.00    -0.226 NA
HETATM   10  C   UNL     1      28.811  45.039  55.188  1.00  0.00     0.034 A 
HETATM   11  C   UNL     1      29.930  44.808  55.991  1.00  0.00     0.002 A 
HETATM   12  C   UNL     1      30.826  43.808  55.642  1.00  0.00     0.002 A 
HETATM   13  C   UNL     1      30.589  43.041  54.501  1.00  0.00     0.034 A 
ENDROOT
BRANCH   1  14
HETATM   14  C   UNL     1      25.123  44.633  51.076  1.00  0.00     0.257 C 
HETATM   15  N   UNL     1      24.963  45.344  49.901  1.00  0.00    -0.352 N 
HETATM   16  H   UNL     1      25.731  45.276  49.245  1.00  0.00     0.163 HD
HETATM   17  O   UNL     1      24.233  44.517  51.908  1.00  0.00    -0.267 OA
BRANCH  15  18
HETATM   18  C   UNL     1      23.659  45.579  49.332  1.00  0.00     0.161 C 
BRANCH  18  19
HETATM   19  C   UNL     1      23.441  47.056  49.094  1.00  0.00    -0.041 A 
HETATM   20  C   UNL     1      22.190  47.546  48.682  1.00  0.00     0.009 A 
HETATM   21  C   UNL     1      22.006  48.903  48.407  1.00  0.00     0.007 A 
HETATM   22  C   UNL     1      23.064  49.804  48.560  1.00  0.00    -0.062 A 
HETATM   23  C   UNL     1      22.859  51.262  48.272  1.00  0.00     0.048 C 
HETATM   24  C   UNL     1      24.295  49.331  49.026  1.00  0.00     0.007 A 
HETATM   25  C   UNL     1      24.485  47.969  49.285  1.00  0.00     0.009 A 
ENDBRANCH  18  19
ENDBRANCH  15  18
ENDBRANCH   1  14
BRANCH   2  26
HETATM   26  N   UNL     1      26.674  43.090  48.780  1.00  0.00    -0.287 NA
HETATM   27  H   UNL     1      26.515  42.178  48.341  1.00  0.00     0.125 HD
HETATM   28  H   UNL     1      25.996  43.761  48.413  1.00  0.00     0.125 HD
ENDBRANCH   2  26
BRANCH   3  29
HETATM   29  C   UNL     1      27.628  40.722  50.571  1.00  0.00     0.042 A 
HETATM   30  C   UNL     1      28.794  40.022  50.223  1.00  0.00     0.032 A 
HETATM   31  C   UNL     1      28.736  38.719  49.718  1.00  0.00     0.032 A 
HETATM   32  C   UNL     1      27.513  38.088  49.529  1.00  0.00     0.034 A 
HETATM   33  C   UNL     1      26.353  38.744  49.957  1.00  0.00     0.032 A 
HETATM   34  C   UNL     1      26.407  40.046  50.474  1.00  0.00     0.032 A 
BRANCH  32  35
HETATM   35  N   UNL     1      27.366  36.860  48.853  1.00  0.00    -0.328 N 
HETATM   36  C   UNL     1      26.936  36.673  47.550  1.00  0.00     0.218 C 
HETATM   37  C   UNL     1      26.644  35.226  47.247  1.00  0.00     0.117 C 
HETATM   38  O   UNL     1      26.787  37.534  46.688  1.00  0.00    -0.274 OA
HETATM   39  H   UNL     1      27.505  36.027  49.412  1.00  0.00     0.169 HD
ENDBRANCH  32  35
ENDBRANCH   3  29
TORSDOF 6
ENDMDL
MODEL 7
REMARK VINA RESULT:      -9.8      3.278      6.128
REMARK  6 active torsions:
REMARK  status: ('A' for Active; 'I' for Inactive)
REMARK    1  A    between atoms: C_5  and  C_6 
REMARK    2  A    between atoms: C_6  and  N_7 
REMARK       I    between atoms: N_7  and  C_8 
REMARK    3  A    between atoms: C_8  and  C_9 
REMARK    4  A    between atoms: C_10  and  N_11 
REMARK    5  A    between atoms: N_12  and  C_13 
REMARK    6  A    between atoms: C_16  and  N_17 
REMARK       I    between atoms: N_17  and  C_18 
ROOT
HETATM    1  C   UNL     1      25.898  44.143  50.457  1.00  0.00     0.103 C 
HETATM    2  C   UNL     1      24.544  43.888  50.665  1.00  0.00     0.105 C 
HETATM    3  N   UNL     1      23.874  44.689  49.734  1.00  0.00    -0.284 N 
HETATM    4  C   UNL     1      24.632  45.851  49.651  1.00  0.00     0.166 A 
HETATM    5  C   UNL     1      25.937  45.481  49.985  1.00  0.00     0.123 A 
HETATM    6  N   UNL     1      26.972  46.343  49.814  1.00  0.00    -0.242 NA
HETATM    7  C   UNL     1      26.625  47.571  49.404  1.00  0.00     0.086 A 
HETATM    8  C   UNL     1      25.282  47.937  49.120  1.00  0.00     0.088 A 
HETATM    9  N   UNL     1      24.258  47.073  49.208  1.00  0.00    -0.226 NA
HETATM   10  C   UNL     1      27.623  48.526  49.260  1.00  0.00     0.034 A 
HETATM   11  C   UNL     1      27.336  49.833  48.864  1.00  0.00     0.002 A 
HETATM   12  C   UNL     1      26.021  50.194  48.603  1.00  0.00     0.002 A 
HETATM   13  C   UNL     1      25.010  49.243  48.730  1.00  0.00     0.034 A 
ENDROOT
BRANCH   1  14
HETATM   14  C   UNL     1      26.995  43.208  50.676  1.00  0.00     0.257 C 
HETATM   15  N   UNL     1      27.971  43.722  51.510  1.00  0.00    -0.352 N 
HETATM   16  H   UNL     1      27.800  44.660  51.851  1.00  0.00     0.163 HD
HETATM   17  O   UNL     1      26.999  42.048  50.286  1.00  0.00    -0.267 OA
BRANCH  15  18
HETATM   18  C   UNL     1      28.761  42.869  52.363  1.00  0.00     0.161 C 
BRANCH  18  19
HETATM   19  C   UNL     1      29.135  43.592  53.638  1.00  0.00    -0.041 A 
HETATM   20  C   UNL     1      28.379  44.683  54.099  1.00  0.00     0.009 A 
HETATM   21  C   UNL     1      28.758  45.385  55.245  1.00  0.00     0.007 A 
HETATM   22  C   UNL     1      29.891  44.998  55.968  1.00  0.00    -0.062 A 
HETATM   23  C   UNL     1      30.289  45.751  57.203  1.00  0.00     0.048 C 
HETATM   24  C   UNL     1      30.614  43.877  55.546  1.00  0.00     0.007 A 
HETATM   25  C   UNL     1      30.244  43.184  54.388  1.00  0.00     0.009 A 
ENDBRANCH  18  19
ENDBRANCH  15  18
ENDBRANCH   1  14
BRANCH   2  26
HETATM   26  N   UNL     1      23.931  42.960  51.455  1.00  0.00    -0.287 NA
HETATM   27  H   UNL     1      22.921  43.052  51.596  1.00  0.00     0.125 HD
HETATM   28  H   UNL     1      24.160  41.976  51.297  1.00  0.00     0.125 HD
ENDBRANCH   2  26
BRANCH   3  29
HETATM   29  C   UNL     1      22.828  44.261  48.844  1.00  0.00     0.042 A 
HETATM   30  C   UNL     1      23.121  43.403  47.773  1.00  0.00     0.032 A 
HETATM   31  C   UNL     1      22.212  43.205  46.730  1.00  0.00     0.032 A 
HETATM   32  C   UNL     1      20.993  43.873  46.719  1.00  0.00     0.034 A 
HETATM   33  C   UNL     1      20.655  44.660  47.825  1.00  0.00     0.032 A 
HETATM   34  C   UNL     1      21.560  44.853  48.880  1.00  0.00     0.032 A 
BRANCH  32  35
HETATM   35  N   UNL     1      20.114  43.871  45.617  1.00  0.00    -0.328 N 
HETATM   36  C   UNL     1      19.899  44.905  44.722  1.00  0.00     0.218 C 
HETATM   37  C   UNL     1      18.704  44.655  43.838  1.00  0.00     0.117 C 
HETATM   38  O   UNL     1      20.560  45.932  44.602  1.00  0.00    -0.274 OA
HETATM   39  H   UNL     1      19.515  43.059  45.530  1.00  0.00     0.169 HD
ENDBRANCH  32  35
ENDBRANCH   3  29
TORSDOF 6
ENDMDL
MODEL 8
REMARK VINA RESULT:      -9.7      4.512      9.554
REMARK  6 active torsions:
REMARK  status: ('A' for Active; 'I' for Inactive)
REMARK    1  A    between atoms: C_5  and  C_6 
REMARK    2  A    between atoms: C_6  and  N_7 
REMARK       I    between atoms: N_7  and  C_8 
REMARK    3  A    between atoms: C_8  and  C_9 
REMARK    4  A    between atoms: C_10  and  N_11 
REMARK    5  A    between atoms: N_12  and  C_13 
REMARK    6  A    between atoms: C_16  and  N_17 
REMARK       I    between atoms: N_17  and  C_18 
ROOT
HETATM    1  C   UNL     1      23.385  47.952  48.750  1.00  0.00     0.103 C 
HETATM    2  C   UNL     1      23.038  49.264  48.434  1.00  0.00     0.105 C 
HETATM    3  N   UNL     1      21.646  49.250  48.293  1.00  0.00    -0.284 N 
HETATM    4  C   UNL     1      21.357  48.016  47.724  1.00  0.00     0.166 A 
HETATM    5  C   UNL     1      22.390  47.162  48.117  1.00  0.00     0.123 A 
HETATM    6  N   UNL     1      22.315  45.825  47.892  1.00  0.00    -0.242 NA
HETATM    7  C   UNL     1      21.241  45.427  47.194  1.00  0.00     0.086 A 
HETATM    8  C   UNL     1      20.230  46.325  46.761  1.00  0.00     0.088 A 
HETATM    9  N   UNL     1      20.250  47.637  47.044  1.00  0.00    -0.226 NA
HETATM   10  C   UNL     1      21.123  44.081  46.876  1.00  0.00     0.034 A 
HETATM   11  C   UNL     1      20.048  43.596  46.129  1.00  0.00     0.002 A 
HETATM   12  C   UNL     1      19.069  44.476  45.691  1.00  0.00     0.002 A 
HETATM   13  C   UNL     1      19.167  45.829  46.015  1.00  0.00     0.034 A 
ENDROOT
BRANCH   1  14
HETATM   14  C   UNL     1      24.519  47.533  49.564  1.00  0.00     0.257 C 
HETATM   15  N   UNL     1      24.218  46.456  50.377  1.00  0.00    -0.352 N 
HETATM   16  H   UNL     1      23.270  46.108  50.303  1.00  0.00     0.163 HD
HETATM   17  O   UNL     1      25.652  47.983  49.451  1.00  0.00    -0.267 OA
BRANCH  15  18
HETATM   18  C   UNL     1      25.221  45.492  50.757  1.00  0.00     0.161 C 
BRANCH  18  19
HETATM   19  C   UNL     1      25.841  45.865  52.085  1.00  0.00    -0.041 A 
HETATM   20  C   UNL     1      25.485  47.057  52.740  1.00  0.00     0.009 A 
HETATM   21  C   UNL     1      26.100  47.427  53.938  1.00  0.00     0.007 A 
HETATM   22  C   UNL     1      27.069  46.604  54.519  1.00  0.00    -0.062 A 
HETATM   23  C   UNL     1      27.720  47.003  55.810  1.00  0.00     0.048 C 
HETATM   24  C   UNL     1      27.384  45.389  53.901  1.00  0.00     0.007 A 
HETATM   25  C   UNL     1      26.781  45.025  52.693  1.00  0.00     0.009 A 
ENDBRANCH  18  19
ENDBRANCH  15  18
ENDBRANCH   1  14
BRANCH   2  26
HETATM   26  N   UNL     1      23.795  50.399  48.415  1.00  0.00    -0.287 NA
HETATM   27  H   UNL     1      23.357  51.266  48.739  1.00  0.00     0.125 HD
HETATM   28  H   UNL     1      24.745  50.342  48.791  1.00  0.00     0.125 HD
ENDBRANCH   2  26
BRANCH   3  29
HETATM   29  C   UNL     1      20.722  50.173  48.897  1.00  0.00     0.042 A 
HETATM   30  C   UNL     1      19.886  49.749  49.942  1.00  0.00     0.032 A 
HETATM   31  C   UNL     1      18.787  50.512  50.348  1.00  0.00     0.032 A 
HETATM   32  C   UNL     1      18.483  51.709  49.710  1.00  0.00     0.034 A 
HETATM   33  C   UNL     1      19.361  52.182  48.728  1.00  0.00     0.032 A 
HETATM   34  C   UNL     1      20.471  51.425  48.325  1.00  0.00     0.032 A 
BRANCH  32  35
HETATM   35  N   UNL     1      17.293  52.431  49.935  1.00  0.00    -0.328 N 
HETATM   36  C   UNL     1      16.039  52.151  49.418  1.00  0.00     0.218 C 
HETATM   37  C   UNL     1      15.064  53.277  49.647  1.00  0.00     0.117 C 
HETATM   38  O   UNL     1      15.689  51.131  48.832  1.00  0.00    -0.274 OA
HETATM   39  H   UNL     1      17.390  53.293  50.456  1.00  0.00     0.169 HD
ENDBRANCH  32  35
ENDBRANCH   3  29
TORSDOF 6
ENDMDL
MODEL 9
REMARK VINA RESULT:      -9.6      3.252      7.688
REMARK  6 active torsions:
REMARK  status: ('A' for Active; 'I' for Inactive)
REMARK    1  A    between atoms: C_5  and  C_6 
REMARK    2  A    between atoms: C_6  and  N_7 
REMARK       I    between atoms: N_7  and  C_8 
REMARK    3  A    between atoms: C_8  and  C_9 
REMARK    4  A    between atoms: C_10  and  N_11 
REMARK    5  A    between atoms: N_12  and  C_13 
REMARK    6  A    between atoms: C_16  and  N_17 
REMARK       I    between atoms: N_17  and  C_18 
ROOT
HETATM    1  C   UNL     1      24.630  45.574  50.721  1.00  0.00     0.103 C 
HETATM    2  C   UNL     1      24.654  46.801  50.062  1.00  0.00     0.105 C 
HETATM    3  N   UNL     1      23.569  46.764  49.179  1.00  0.00    -0.284 N 
HETATM    4  C   UNL     1      23.503  45.443  48.750  1.00  0.00     0.166 A 
HETATM    5  C   UNL     1      24.058  44.679  49.779  1.00  0.00     0.123 A 
HETATM    6  N   UNL     1      23.973  43.324  49.767  1.00  0.00    -0.242 NA
HETATM    7  C   UNL     1      23.413  42.802  48.665  1.00  0.00     0.086 A 
HETATM    8  C   UNL     1      22.903  43.601  47.609  1.00  0.00     0.088 A 
HETATM    9  N   UNL     1      22.909  44.944  47.642  1.00  0.00    -0.226 NA
HETATM   10  C   UNL     1      23.341  41.419  48.554  1.00  0.00     0.034 A 
HETATM   11  C   UNL     1      22.798  40.802  47.426  1.00  0.00     0.002 A 
HETATM   12  C   UNL     1      22.315  41.584  46.386  1.00  0.00     0.002 A 
HETATM   13  C   UNL     1      22.369  42.974  46.490  1.00  0.00     0.034 A 
ENDROOT
BRANCH   1  14
HETATM   14  C   UNL     1      25.087  45.317  52.081  1.00  0.00     0.257 C 
HETATM   15  N   UNL     1      26.183  46.086  52.425  1.00  0.00    -0.352 N 
HETATM   16  H   UNL     1      26.517  46.713  51.703  1.00  0.00     0.163 HD
HETATM   17  O   UNL     1      24.496  44.607  52.884  1.00  0.00    -0.267 OA
BRANCH  15  18
HETATM   18  C   UNL     1      26.416  46.502  53.786  1.00  0.00     0.161 C 
BRANCH  18  19
HETATM   19  C   UNL     1      27.636  45.809  54.352  1.00  0.00    -0.041 A 
HETATM   20  C   UNL     1      28.014  44.532  53.905  1.00  0.00     0.009 A 
HETATM   21  C   UNL     1      29.107  43.869  54.469  1.00  0.00     0.007 A 
HETATM   22  C   UNL     1      29.858  44.479  55.477  1.00  0.00    -0.062 A 
HETATM   23  C   UNL     1      31.036  43.766  56.074  1.00  0.00     0.048 C 
HETATM   24  C   UNL     1      29.521  45.774  55.885  1.00  0.00     0.007 A 
HETATM   25  C   UNL     1      28.417  46.431  55.333  1.00  0.00     0.009 A 
ENDBRANCH  18  19
ENDBRANCH  15  18
ENDBRANCH   1  14
BRANCH   2  26
HETATM   26  N   UNL     1      25.418  47.909  50.285  1.00  0.00    -0.287 NA
HETATM   27  H   UNL     1      25.257  48.429  51.153  1.00  0.00     0.125 HD
HETATM   28  H   UNL     1      26.425  47.832  50.121  1.00  0.00     0.125 HD
ENDBRANCH   2  26
BRANCH   3  29
HETATM   29  C   UNL     1      22.572  47.787  49.015  1.00  0.00     0.042 A 
HETATM   30  C   UNL     1      22.821  49.091  49.471  1.00  0.00     0.032 A 
HETATM   31  C   UNL     1      21.789  50.026  49.600  1.00  0.00     0.032 A 
HETATM   32  C   UNL     1      20.478  49.678  49.294  1.00  0.00     0.034 A 
HETATM   33  C   UNL     1      20.235  48.410  48.755  1.00  0.00     0.032 A 
HETATM   34  C   UNL     1      21.269  47.473  48.614  1.00  0.00     0.032 A 
BRANCH  32  35
HETATM   35  N   UNL     1      19.369  50.499  49.578  1.00  0.00    -0.328 N 
HETATM   36  C   UNL     1      19.156  51.793  49.133  1.00  0.00     0.218 C 
HETATM   37  C   UNL     1      18.006  52.459  49.845  1.00  0.00     0.117 C 
HETATM   38  O   UNL     1      19.785  52.393  48.267  1.00  0.00    -0.274 OA
HETATM   39  H   UNL     1      18.707  50.133  50.250  1.00  0.00     0.169 HD
ENDBRANCH  32  35
ENDBRANCH   3  29
TORSDOF 6
ENDMDL
MODEL 10
REMARK VINA RESULT:      -9.6      2.623      8.633
REMARK  6 active torsions:
REMARK  status: ('A' for Active; 'I' for Inactive)
REMARK    1  A    between atoms: C_5  and  C_6 
REMARK    2  A    between atoms: C_6  and  N_7 
REMARK       I    between atoms: N_7  and  C_8 
REMARK    3  A    between atoms: C_8  and  C_9 
REMARK    4  A    between atoms: C_10  and  N_11 
REMARK    5  A    between atoms: N_12  and  C_13 
REMARK    6  A    between atoms: C_16  and  N_17 
REMARK       I    between atoms: N_17  and  C_18 
ROOT
HETATM    1  C   UNL     1      25.777  41.826  49.413  1.00  0.00     0.103 C 
HETATM    2  C   UNL     1      24.612  42.569  49.595  1.00  0.00     0.105 C 
HETATM    3  N   UNL     1      25.030  43.768  50.181  1.00  0.00    -0.284 N 
HETATM    4  C   UNL     1      26.082  43.410  51.016  1.00  0.00     0.166 A 
HETATM    5  C   UNL     1      26.634  42.253  50.460  1.00  0.00     0.123 A 
HETATM    6  N   UNL     1      27.806  41.747  50.923  1.00  0.00    -0.242 NA
HETATM    7  C   UNL     1      28.315  42.381  51.989  1.00  0.00     0.086 A 
HETATM    8  C   UNL     1      27.705  43.526  52.567  1.00  0.00     0.088 A 
HETATM    9  N   UNL     1      26.589  44.085  52.073  1.00  0.00    -0.226 NA
HETATM   10  C   UNL     1      29.484  41.888  52.554  1.00  0.00     0.034 A 
HETATM   11  C   UNL     1      30.059  42.477  53.681  1.00  0.00     0.002 A 
HETATM   12  C   UNL     1      29.453  43.585  54.256  1.00  0.00     0.002 A 
HETATM   13  C   UNL     1      28.286  44.100  53.692  1.00  0.00     0.034 A 
ENDROOT
BRANCH   1  14
HETATM   14  C   UNL     1      26.020  40.850  48.359  1.00  0.00     0.257 C 
HETATM   15  N   UNL     1      27.348  40.802  47.978  1.00  0.00    -0.352 N 
HETATM   16  H   UNL     1      27.964  41.438  48.470  1.00  0.00     0.163 HD
HETATM   17  O   UNL     1      25.182  40.058  47.945  1.00  0.00    -0.267 OA
BRANCH  15  18
HETATM   18  C   UNL     1      27.950  39.586  47.487  1.00  0.00     0.161 C 
BRANCH  18  19
HETATM   19  C   UNL     1      28.437  38.732  48.637  1.00  0.00    -0.041 A 
HETATM   20  C   UNL     1      29.695  38.954  49.221  1.00  0.00     0.009 A 
HETATM   21  C   UNL     1      30.167  38.128  50.244  1.00  0.00     0.007 A 
HETATM   22  C   UNL     1      29.380  37.076  50.721  1.00  0.00    -0.062 A 
HETATM   23  C   UNL     1      29.888  36.197  51.826  1.00  0.00     0.048 C 
HETATM   24  C   UNL     1      28.103  36.887  50.183  1.00  0.00     0.007 A 
HETATM   25  C   UNL     1      27.637  37.703  49.147  1.00  0.00     0.009 A 
ENDBRANCH  18  19
ENDBRANCH  15  18
ENDBRANCH   1  14
BRANCH   2  26
HETATM   26  N   UNL     1      23.337  42.331  49.172  1.00  0.00    -0.287 NA
HETATM   27  H   UNL     1      23.208  41.652  48.415  1.00  0.00     0.125 HD
HETATM   28  H   UNL     1      22.620  42.177  49.885  1.00  0.00     0.125 HD
ENDBRANCH   2  26
BRANCH   3  29
HETATM   29  C   UNL     1      24.658  45.093  49.762  1.00  0.00     0.042 A 
HETATM   30  C   UNL     1      25.263  46.214  50.353  1.00  0.00     0.032 A 
HETATM   31  C   UNL     1      24.729  47.496  50.193  1.00  0.00     0.032 A 
HETATM   32  C   UNL     1      23.568  47.691  49.455  1.00  0.00     0.034 A 
HETATM   33  C   UNL     1      23.010  46.594  48.789  1.00  0.00     0.032 A 
HETATM   34  C   UNL     1      23.548  45.307  48.938  1.00  0.00     0.032 A 
BRANCH  32  35
HETATM   35  N   UNL     1      22.871  48.916  49.409  1.00  0.00    -0.328 N 
HETATM   36  C   UNL     1      22.974  49.896  48.436  1.00  0.00     0.218 C 
HETATM   37  C   UNL     1      22.294  51.178  48.844  1.00  0.00     0.117 C 
HETATM   38  O   UNL     1      23.534  49.805  47.348  1.00  0.00    -0.274 OA
HETATM   39  H   UNL     1      22.308  49.136  50.221  1.00  0.00     0.169 HD
ENDBRANCH  32  35
ENDBRANCH   3  29
TORSDOF 6
ENDMDL
