MODEL 1
REMARK VINA RESULT:      -9.5      0.000      0.000
REMARK  4 active torsions:
REMARK  status: ('A' for Active; 'I' for Inactive)
REMARK    1  A    between atoms: C_5  and  C_6 
REMARK    2  A    between atoms: C_16  and  C_17 
REMARK       I    between atoms: C_17  and  N_18 
REMARK    3  A    between atoms: N_18  and  C_19 
REMARK    4  A    between atoms: C_20  and  O_21 
ROOT
HETATM    1  C   UNL     1      25.835  43.350  51.632  1.00  0.00     0.202 C 
HETATM    2  N   UNL     1      25.251  42.531  50.565  1.00  0.00    -0.083 N 
HETATM    3  C   UNL     1      25.908  41.497  49.955  1.00  0.00     0.726 A 
HETATM    4  N   UNL     1      25.124  40.948  49.063  1.00  0.00    -0.046 NA
HETATM    5  C   UNL     1      23.955  41.663  49.201  1.00  0.00     0.162 A 
HETATM    6  C   UNL     1      22.743  41.352  48.418  1.00  0.00     0.096 C 
HETATM    7  N   UNL     1      23.981  42.637  50.123  1.00  0.00    -0.141 NA
HETATM    8  N   UNL     1      27.151  41.168  50.368  1.00  0.00    -0.192 N 
HETATM    9  C   UNL     1      27.679  41.637  51.571  1.00  0.00     0.037 C 
HETATM   10  C   UNL     1      28.844  40.854  52.123  1.00  0.00     0.070 C 
HETATM   11  C   UNL     1      27.074  42.674  52.206  1.00  0.00     0.062 C 
HETATM   12  H   UNL     1      27.549  40.308  49.996  1.00  0.00     0.184 HD
ENDROOT
BRANCH  11  13
HETATM   13  C   UNL     1      27.424  43.103  53.582  1.00  0.00     0.256 C 
HETATM   14  N   UNL     1      28.486  43.968  53.648  1.00  0.00    -0.321 N 
HETATM   15  H   UNL     1      28.842  44.372  52.786  1.00  0.00     0.169 HD
HETATM   16  O   UNL     1      26.750  42.684  54.515  1.00  0.00    -0.267 OA
BRANCH  14  17
HETATM   17  C   UNL     1      29.203  44.361  54.804  1.00  0.00     0.068 A 
HETATM   18  C   UNL     1      28.791  45.547  55.447  1.00  0.00     0.095 A 
HETATM   19  C   UNL     1      29.504  46.017  56.557  1.00  0.00     0.039 A 
HETATM   20  C   UNL     1      30.613  45.312  57.030  1.00  0.00     0.003 A 
HETATM   21  C   UNL     1      31.012  44.138  56.401  1.00  0.00     0.002 A 
HETATM   22  C   UNL     1      30.311  43.662  55.292  1.00  0.00     0.032 A 
BRANCH  18  23
HETATM   23  O   UNL     1      27.700  46.177  54.895  1.00  0.00    -0.354 OA
HETATM   24  C   UNL     1      27.758  47.597  54.822  1.00  0.00     0.210 C 
ENDBRANCH  18  23
ENDBRANCH  14  17
ENDBRANCH  11  13
BRANCH   1  25
HETATM   25  C   UNL     1      26.142  44.752  51.106  1.00  0.00    -0.028 A 
HETATM   26  C   UNL     1      25.512  45.867  51.676  1.00  0.00     0.010 A 
HETATM   27  C   UNL     1      25.756  47.154  51.187  1.00  0.00     0.007 A 
HETATM   28  C   UNL     1      26.635  47.354  50.118  1.00  0.00    -0.062 A 
HETATM   29  C   UNL     1      26.894  48.729  49.576  1.00  0.00     0.048 C 
HETATM   30  C   UNL     1      27.292  46.251  49.565  1.00  0.00     0.007 A 
HETATM   31  C   UNL     1      27.051  44.964  50.054  1.00  0.00     0.010 A 
ENDBRANCH   1  25
TORSDOF 4
ENDMDL
MODEL 2
REMARK VINA RESULT:      -8.9      2.200      5.925
REMARK  4 active torsions:
REMARK  status: ('A' for Active; 'I' for Inactive)
REMARK    1  A    between atoms: C_5  and  C_6 
REMARK    2  A    between atoms: C_16  and  C_17 
REMARK       I    between atoms: C_17  and  N_18 
REMARK    3  A    between atoms: N_18  and  C_19 
REMARK    4  A    between atoms: C_20  and  O_21 
ROOT
HETATM    1  C   UNL     1      27.567  43.501  51.168  1.00  0.00     0.202 C 
HETATM    2  N   UNL     1      27.387  42.114  50.727  1.00  0.00    -0.083 N 
HETATM    3  C   UNL     1      26.195  41.444  50.793  1.00  0.00     0.726 A 
HETATM    4  N   UNL     1      26.344  40.238  50.309  1.00  0.00    -0.046 NA
HETATM    5  C   UNL     1      27.662  40.232  49.905  1.00  0.00     0.162 A 
HETATM    6  C   UNL     1      28.276  39.069  49.234  1.00  0.00     0.096 C 
HETATM    7  N   UNL     1      28.338  41.368  50.128  1.00  0.00    -0.141 NA
HETATM    8  N   UNL     1      25.099  42.088  51.250  1.00  0.00    -0.192 N 
HETATM    9  C   UNL     1      25.059  43.476  51.381  1.00  0.00     0.037 C 
HETATM   10  C   UNL     1      23.681  44.086  51.451  1.00  0.00     0.070 C 
HETATM   11  C   UNL     1      26.217  44.184  51.341  1.00  0.00     0.062 C 
HETATM   12  H   UNL     1      24.206  41.610  51.148  1.00  0.00     0.184 HD
ENDROOT
BRANCH  11  13
HETATM   13  C   UNL     1      26.264  45.665  51.257  1.00  0.00     0.256 C 
HETATM   14  N   UNL     1      26.151  46.158  49.982  1.00  0.00    -0.321 N 
HETATM   15  H   UNL     1      25.889  45.524  49.234  1.00  0.00     0.169 HD
HETATM   16  O   UNL     1      26.372  46.307  52.294  1.00  0.00    -0.267 OA
BRANCH  14  17
HETATM   17  C   UNL     1      26.397  47.484  49.550  1.00  0.00     0.068 A 
HETATM   18  C   UNL     1      25.278  48.270  49.206  1.00  0.00     0.095 A 
HETATM   19  C   UNL     1      25.466  49.566  48.712  1.00  0.00     0.039 A 
HETATM   20  C   UNL     1      26.755  50.083  48.566  1.00  0.00     0.003 A 
HETATM   21  C   UNL     1      27.858  49.311  48.916  1.00  0.00     0.002 A 
HETATM   22  C   UNL     1      27.682  48.017  49.406  1.00  0.00     0.032 A 
BRANCH  18  23
HETATM   23  O   UNL     1      24.052  47.665  49.367  1.00  0.00    -0.354 OA
HETATM   24  C   UNL     1      22.909  48.486  49.161  1.00  0.00     0.210 C 
ENDBRANCH  18  23
ENDBRANCH  14  17
ENDBRANCH  11  13
BRANCH   1  25
HETATM   25  C   UNL     1      28.395  43.538  52.452  1.00  0.00    -0.028 A 
HETATM   26  C   UNL     1      29.703  43.032  52.456  1.00  0.00     0.010 A 
HETATM   27  C   UNL     1      30.464  43.029  53.629  1.00  0.00     0.007 A 
HETATM   28  C   UNL     1      29.935  43.529  54.822  1.00  0.00    -0.062 A 
HETATM   29  C   UNL     1      30.737  43.517  56.090  1.00  0.00     0.048 C 
HETATM   30  C   UNL     1      28.643  44.064  54.820  1.00  0.00     0.007 A 
HETATM   31  C   UNL     1      27.881  44.071  53.648  1.00  0.00     0.010 A 
ENDBRANCH   1  25
TORSDOF 4
ENDMDL
MODEL 3
REMARK VINA RESULT:      -8.5      1.346      1.672
REMARK  4 active torsions:
REMARK  status: ('A' for Active; 'I' for Inactive)
REMARK    1  A    between atoms: C_5  and  C_6 
REMARK    2  A    between atoms: C_16  and  C_17 
REMARK       I    between atoms: C_17  and  N_18 
REMARK    3  A    between atoms: N_18  and  C_19 
REMARK    4  A    between atoms: C_20  and  O_21 
ROOT
HETATM    1  C   UNL     1      25.110  44.541  50.667  1.00  0.00     0.202 C 
HETATM    2  N   UNL     1      24.302  44.002  49.569  1.00  0.00    -0.083 N 
HETATM    3  C   UNL     1      24.634  42.879  48.860  1.00  0.00     0.726 A 
HETATM    4  N   UNL     1      23.712  42.639  47.964  1.00  0.00    -0.046 NA
HETATM    5  C   UNL     1      22.790  43.635  48.200  1.00  0.00     0.162 A 
HETATM    6  C   UNL     1      21.524  43.733  47.447  1.00  0.00     0.096 C 
HETATM    7  N   UNL     1      23.103  44.487  49.187  1.00  0.00    -0.141 NA
HETATM    8  N   UNL     1      25.745  42.188  49.198  1.00  0.00    -0.192 N 
HETATM    9  C   UNL     1      26.405  42.397  50.410  1.00  0.00     0.037 C 
HETATM   10  C   UNL     1      27.318  41.283  50.857  1.00  0.00     0.070 C 
HETATM   11  C   UNL     1      26.123  43.506  51.140  1.00  0.00     0.062 C 
HETATM   12  H   UNL     1      25.881  41.285  48.751  1.00  0.00     0.184 HD
ENDROOT
BRANCH  11  13
HETATM   13  C   UNL     1      26.605  43.711  52.528  1.00  0.00     0.256 C 
HETATM   14  N   UNL     1      27.904  44.144  52.614  1.00  0.00    -0.321 N 
HETATM   15  H   UNL     1      28.376  44.443  51.766  1.00  0.00     0.169 HD
HETATM   16  O   UNL     1      25.829  43.507  53.453  1.00  0.00    -0.267 OA
BRANCH  14  17
HETATM   17  C   UNL     1      28.716  44.199  53.772  1.00  0.00     0.068 A 
HETATM   18  C   UNL     1      28.585  45.334  54.600  1.00  0.00     0.095 A 
HETATM   19  C   UNL     1      29.408  45.471  55.724  1.00  0.00     0.039 A 
HETATM   20  C   UNL     1      30.350  44.486  56.030  1.00  0.00     0.003 A 
HETATM   21  C   UNL     1      30.472  43.363  55.219  1.00  0.00     0.002 A 
HETATM   22  C   UNL     1      29.658  43.218  54.094  1.00  0.00     0.032 A 
BRANCH  18  23
HETATM   23  O   UNL     1      27.643  46.255  54.204  1.00  0.00    -0.354 OA
HETATM   24  C   UNL     1      27.724  47.543  54.805  1.00  0.00     0.210 C 
ENDBRANCH  18  23
ENDBRANCH  14  17
ENDBRANCH  11  13
BRANCH   1  25
HETATM   25  C   UNL     1      25.784  45.841  50.229  1.00  0.00    -0.028 A 
HETATM   26  C   UNL     1      25.093  47.057  50.334  1.00  0.00     0.010 A 
HETATM   27  C   UNL     1      25.681  48.253  49.910  1.00  0.00     0.007 A 
HETATM   28  C   UNL     1      26.972  48.259  49.371  1.00  0.00    -0.062 A 
HETATM   29  C   UNL     1      27.608  49.533  48.900  1.00  0.00     0.048 C 
HETATM   30  C   UNL     1      27.679  47.056  49.293  1.00  0.00     0.007 A 
HETATM   31  C   UNL     1      27.094  45.860  49.718  1.00  0.00     0.010 A 
ENDBRANCH   1  25
TORSDOF 4
ENDMDL
MODEL 4
REMARK VINA RESULT:      -8.3      1.250      2.228
REMARK  4 active torsions:
REMARK  status: ('A' for Active; 'I' for Inactive)
REMARK    1  A    between atoms: C_5  and  C_6 
REMARK    2  A    between atoms: C_16  and  C_17 
REMARK       I    between atoms: C_17  and  N_18 
REMARK    3  A    between atoms: N_18  and  C_19 
REMARK    4  A    between atoms: C_20  and  O_21 
ROOT
HETATM    1  C   UNL     1      26.458  43.376  51.803  1.00  0.00     0.202 C 
HETATM    2  N   UNL     1      26.407  42.356  50.752  1.00  0.00    -0.083 N 
HETATM    3  C   UNL     1      27.469  41.563  50.410  1.00  0.00     0.726 A 
HETATM    4  N   UNL     1      27.112  40.740  49.458  1.00  0.00    -0.046 NA
HETATM    5  C   UNL     1      25.779  41.039  49.280  1.00  0.00     0.162 A 
HETATM    6  C   UNL     1      24.927  40.306  48.322  1.00  0.00     0.096 C 
HETATM    7  N   UNL     1      25.298  42.015  50.064  1.00  0.00    -0.141 NA
HETATM    8  N   UNL     1      28.629  41.682  51.091  1.00  0.00    -0.192 N 
HETATM    9  C   UNL     1      28.705  42.362  52.307  1.00  0.00     0.037 C 
HETATM   10  C   UNL     1      29.903  42.036  53.164  1.00  0.00     0.070 C 
HETATM   11  C   UNL     1      27.685  43.175  52.682  1.00  0.00     0.062 C 
HETATM   12  H   UNL     1      29.345  40.982  50.911  1.00  0.00     0.184 HD
ENDROOT
BRANCH  11  13
HETATM   13  C   UNL     1      27.571  43.768  54.038  1.00  0.00     0.256 C 
HETATM   14  N   UNL     1      28.474  44.769  54.290  1.00  0.00    -0.321 N 
HETATM   15  H   UNL     1      29.023  45.138  53.520  1.00  0.00     0.169 HD
HETATM   16  O   UNL     1      26.700  43.349  54.788  1.00  0.00    -0.267 OA
BRANCH  14  17
HETATM   17  C   UNL     1      28.777  45.356  55.543  1.00  0.00     0.068 A 
HETATM   18  C   UNL     1      29.971  44.950  56.175  1.00  0.00     0.095 A 
HETATM   19  C   UNL     1      30.289  45.449  57.443  1.00  0.00     0.039 A 
HETATM   20  C   UNL     1      29.432  46.351  58.079  1.00  0.00     0.003 A 
HETATM   21  C   UNL     1      28.260  46.758  57.451  1.00  0.00     0.002 A 
HETATM   22  C   UNL     1      27.932  46.264  56.188  1.00  0.00     0.032 A 
BRANCH  18  23
HETATM   23  O   UNL     1      30.738  44.046  55.476  1.00  0.00    -0.354 OA
HETATM   24  C   UNL     1      31.529  43.153  56.251  1.00  0.00     0.210 C 
ENDBRANCH  18  23
ENDBRANCH  14  17
ENDBRANCH  11  13
BRANCH   1  25
HETATM   25  C   UNL     1      26.425  44.771  51.179  1.00  0.00    -0.028 A 
HETATM   26  C   UNL     1      27.197  45.047  50.041  1.00  0.00     0.010 A 
HETATM   27  C   UNL     1      27.204  46.325  49.474  1.00  0.00     0.007 A 
HETATM   28  C   UNL     1      26.441  47.355  50.033  1.00  0.00    -0.062 A 
HETATM   29  C   UNL     1      26.451  48.734  49.442  1.00  0.00     0.048 C 
HETATM   30  C   UNL     1      25.643  47.080  51.147  1.00  0.00     0.007 A 
HETATM   31  C   UNL     1      25.633  45.803  51.714  1.00  0.00     0.010 A 
ENDBRANCH   1  25
TORSDOF 4
ENDMDL
MODEL 5
REMARK VINA RESULT:      -8.1      1.904      3.162
REMARK  4 active torsions:
REMARK  status: ('A' for Active; 'I' for Inactive)
REMARK    1  A    between atoms: C_5  and  C_6 
REMARK    2  A    between atoms: C_16  and  C_17 
REMARK       I    between atoms: C_17  and  N_18 
REMARK    3  A    between atoms: N_18  and  C_19 
REMARK    4  A    between atoms: C_20  and  O_21 
ROOT
HETATM    1  C   UNL     1      24.325  45.079  50.487  1.00  0.00     0.202 C 
HETATM    2  N   UNL     1      23.398  44.639  49.439  1.00  0.00    -0.083 N 
HETATM    3  C   UNL     1      23.562  43.491  48.711  1.00  0.00     0.726 A 
HETATM    4  N   UNL     1      22.568  43.360  47.871  1.00  0.00    -0.046 NA
HETATM    5  C   UNL     1      21.777  44.450  48.162  1.00  0.00     0.162 A 
HETATM    6  C   UNL     1      20.487  44.691  47.486  1.00  0.00     0.096 C 
HETATM    7  N   UNL     1      22.239  45.256  49.129  1.00  0.00    -0.141 NA
HETATM    8  N   UNL     1      24.609  42.682  48.982  1.00  0.00    -0.192 N 
HETATM    9  C   UNL     1      25.358  42.808  50.152  1.00  0.00     0.037 C 
HETATM   10  C   UNL     1      26.169  41.597  50.543  1.00  0.00     0.070 C 
HETATM   11  C   UNL     1      25.244  43.936  50.898  1.00  0.00     0.062 C 
HETATM   12  H   UNL     1      24.618  41.771  48.527  1.00  0.00     0.184 HD
ENDROOT
BRANCH  11  13
HETATM   13  C   UNL     1      25.827  44.078  52.256  1.00  0.00     0.256 C 
HETATM   14  N   UNL     1      27.151  44.438  52.264  1.00  0.00    -0.321 N 
HETATM   15  H   UNL     1      27.582  44.733  51.393  1.00  0.00     0.169 HD
HETATM   16  O   UNL     1      25.103  43.891  53.225  1.00  0.00    -0.267 OA
BRANCH  14  17
HETATM   17  C   UNL     1      28.039  44.418  53.366  1.00  0.00     0.068 A 
HETATM   18  C   UNL     1      28.981  43.369  53.418  1.00  0.00     0.095 A 
HETATM   19  C   UNL     1      29.841  43.264  54.517  1.00  0.00     0.039 A 
HETATM   20  C   UNL     1      29.773  44.195  55.555  1.00  0.00     0.003 A 
HETATM   21  C   UNL     1      28.851  45.235  55.499  1.00  0.00     0.002 A 
HETATM   22  C   UNL     1      27.986  45.347  54.409  1.00  0.00     0.032 A 
BRANCH  18  23
HETATM   23  O   UNL     1      28.957  42.493  52.357  1.00  0.00    -0.354 OA
HETATM   24  C   UNL     1      28.978  41.107  52.679  1.00  0.00     0.210 C 
ENDBRANCH  18  23
ENDBRANCH  14  17
ENDBRANCH  11  13
BRANCH   1  25
HETATM   25  C   UNL     1      25.110  46.301  50.010  1.00  0.00    -0.028 A 
HETATM   26  C   UNL     1      26.480  46.188  49.733  1.00  0.00     0.010 A 
HETATM   27  C   UNL     1      27.221  47.302  49.327  1.00  0.00     0.007 A 
HETATM   28  C   UNL     1      26.610  48.552  49.189  1.00  0.00    -0.062 A 
HETATM   29  C   UNL     1      27.397  49.757  48.768  1.00  0.00     0.048 C 
HETATM   30  C   UNL     1      25.238  48.666  49.432  1.00  0.00     0.007 A 
HETATM   31  C   UNL     1      24.494  47.554  49.837  1.00  0.00     0.010 A 
ENDBRANCH   1  25
TORSDOF 4
ENDMDL
MODEL 6
REMARK VINA RESULT:      -7.7     10.249     13.763
REMARK  4 active torsions:
REMARK  status: ('A' for Active; 'I' for Inactive)
REMARK    1  A    between atoms: C_5  and  C_6 
REMARK    2  A    between atoms: C_16  and  C_17 
REMARK       I    between atoms: C_17  and  N_18 
REMARK    3  A    between atoms: N_18  and  C_19 
REMARK    4  A    between atoms: C_20  and  O_21 
ROOT
HETATM    1  C   UNL     1      16.384  50.986  49.072  1.00  0.00     0.202 C 
HETATM    2  N   UNL     1      15.834  52.331  49.268  1.00  0.00    -0.083 N 
HETATM    3  C   UNL     1      15.283  53.081  48.264  1.00  0.00     0.726 A 
HETATM    4  N   UNL     1      14.864  54.221  48.749  1.00  0.00    -0.046 NA
HETATM    5  C   UNL     1      15.141  54.101  50.094  1.00  0.00     0.162 A 
HETATM    6  C   UNL     1      14.782  55.149  51.070  1.00  0.00     0.096 C 
HETATM    7  N   UNL     1      15.723  52.950  50.461  1.00  0.00    -0.141 NA
HETATM    8  N   UNL     1      15.195  52.558  47.021  1.00  0.00    -0.192 N 
HETATM    9  C   UNL     1      15.368  51.195  46.779  1.00  0.00     0.037 C 
HETATM   10  C   UNL     1      14.803  50.687  45.476  1.00  0.00     0.070 C 
HETATM   11  C   UNL     1      15.927  50.413  47.737  1.00  0.00     0.062 C 
HETATM   12  H   UNL     1      14.651  53.081  46.338  1.00  0.00     0.184 HD
ENDROOT
BRANCH  11  13
HETATM   13  C   UNL     1      15.959  48.931  47.663  1.00  0.00     0.256 C 
HETATM   14  N   UNL     1      17.065  48.423  47.032  1.00  0.00    -0.321 N 
HETATM   15  H   UNL     1      17.835  49.050  46.815  1.00  0.00     0.169 HD
HETATM   16  O   UNL     1      15.040  48.301  48.171  1.00  0.00    -0.267 OA
BRANCH  14  17
HETATM   17  C   UNL     1      17.269  47.092  46.595  1.00  0.00     0.068 A 
HETATM   18  C   UNL     1      18.101  46.273  47.386  1.00  0.00     0.095 A 
HETATM   19  C   UNL     1      18.388  44.968  46.969  1.00  0.00     0.039 A 
HETATM   20  C   UNL     1      17.849  44.476  45.779  1.00  0.00     0.003 A 
HETATM   21  C   UNL     1      17.021  45.281  45.004  1.00  0.00     0.002 A 
HETATM   22  C   UNL     1      16.731  46.584  45.409  1.00  0.00     0.032 A 
BRANCH  18  23
HETATM   23  O   UNL     1      18.597  46.854  48.531  1.00  0.00    -0.354 OA
HETATM   24  C   UNL     1      20.013  46.965  48.623  1.00  0.00     0.210 C 
ENDBRANCH  18  23
ENDBRANCH  14  17
ENDBRANCH  11  13
BRANCH   1  25
HETATM   25  C   UNL     1      17.908  51.023  49.187  1.00  0.00    -0.028 A 
HETATM   26  C   UNL     1      18.656  51.829  48.316  1.00  0.00     0.010 A 
HETATM   27  C   UNL     1      20.052  51.851  48.386  1.00  0.00     0.007 A 
HETATM   28  C   UNL     1      20.731  51.069  49.326  1.00  0.00    -0.062 A 
HETATM   29  C   UNL     1      22.229  51.074  49.401  1.00  0.00     0.048 C 
HETATM   30  C   UNL     1      19.991  50.288  50.219  1.00  0.00     0.007 A 
HETATM   31  C   UNL     1      18.595  50.266  50.153  1.00  0.00     0.010 A 
ENDBRANCH   1  25
TORSDOF 4
ENDMDL
MODEL 7
REMARK VINA RESULT:      -7.5      4.317      8.106
REMARK  4 active torsions:
REMARK  status: ('A' for Active; 'I' for Inactive)
REMARK    1  A    between atoms: C_5  and  C_6 
REMARK    2  A    between atoms: C_16  and  C_17 
REMARK       I    between atoms: C_17  and  N_18 
REMARK    3  A    between atoms: N_18  and  C_19 
REMARK    4  A    between atoms: C_20  and  O_21 
ROOT
HETATM    1  C   UNL     1      23.998  45.201  50.665  1.00  0.00     0.202 C 
HETATM    2  N   UNL     1      24.885  45.007  51.816  1.00  0.00    -0.083 N 
HETATM    3  C   UNL     1      26.083  45.651  51.970  1.00  0.00     0.726 A 
HETATM    4  N   UNL     1      26.632  45.289  53.101  1.00  0.00    -0.046 NA
HETATM    5  C   UNL     1      25.689  44.440  53.640  1.00  0.00     0.162 A 
HETATM    6  C   UNL     1      25.856  43.818  54.968  1.00  0.00     0.096 C 
HETATM    7  N   UNL     1      24.592  44.249  52.892  1.00  0.00    -0.141 NA
HETATM    8  N   UNL     1      26.474  46.551  51.041  1.00  0.00    -0.192 N 
HETATM    9  C   UNL     1      25.589  47.066  50.093  1.00  0.00     0.037 C 
HETATM   10  C   UNL     1      26.012  48.358  49.440  1.00  0.00     0.070 C 
HETATM   11  C   UNL     1      24.396  46.451  49.891  1.00  0.00     0.062 C 
HETATM   12  H   UNL     1      27.292  47.115  51.260  1.00  0.00     0.184 HD
ENDROOT
BRANCH  11  13
HETATM   13  C   UNL     1      23.307  47.036  49.070  1.00  0.00     0.256 C 
HETATM   14  N   UNL     1      22.717  48.143  49.626  1.00  0.00    -0.321 N 
HETATM   15  H   UNL     1      23.149  48.570  50.439  1.00  0.00     0.169 HD
HETATM   16  O   UNL     1      23.045  46.519  47.991  1.00  0.00    -0.267 OA
BRANCH  14  17
HETATM   17  C   UNL     1      21.517  48.772  49.217  1.00  0.00     0.068 A 
HETATM   18  C   UNL     1      21.578  50.149  48.919  1.00  0.00     0.095 A 
HETATM   19  C   UNL     1      20.409  50.836  48.572  1.00  0.00     0.039 A 
HETATM   20  C   UNL     1      19.188  50.161  48.513  1.00  0.00     0.003 A 
HETATM   21  C   UNL     1      19.129  48.801  48.797  1.00  0.00     0.002 A 
HETATM   22  C   UNL     1      20.289  48.107  49.148  1.00  0.00     0.032 A 
BRANCH  18  23
HETATM   23  O   UNL     1      22.822  50.727  49.023  1.00  0.00    -0.354 OA
HETATM   24  C   UNL     1      23.596  50.784  47.830  1.00  0.00     0.210 C 
ENDBRANCH  18  23
ENDBRANCH  14  17
ENDBRANCH  11  13
BRANCH   1  25
HETATM   25  C   UNL     1      24.009  43.954  49.781  1.00  0.00    -0.028 A 
HETATM   26  C   UNL     1      22.805  43.304  49.473  1.00  0.00     0.010 A 
HETATM   27  C   UNL     1      22.798  42.144  48.692  1.00  0.00     0.007 A 
HETATM   28  C   UNL     1      23.993  41.609  48.203  1.00  0.00    -0.062 A 
HETATM   29  C   UNL     1      24.000  40.357  47.376  1.00  0.00     0.048 C 
HETATM   30  C   UNL     1      25.194  42.269  48.478  1.00  0.00     0.007 A 
HETATM   31  C   UNL     1      25.204  43.430  49.256  1.00  0.00     0.010 A 
ENDBRANCH   1  25
TORSDOF 4
ENDMDL
MODEL 8
REMARK VINA RESULT:      -7.5      5.359      8.790
REMARK  4 active torsions:
REMARK  status: ('A' for Active; 'I' for Inactive)
REMARK    1  A    between atoms: C_5  and  C_6 
REMARK    2  A    between atoms: C_16  and  C_17 
REMARK       I    between atoms: C_17  and  N_18 
REMARK    3  A    between atoms: N_18  and  C_19 
REMARK    4  A    between atoms: C_20  and  O_21 
ROOT
HETATM    1  C   UNL     1      21.320  47.948  48.939  1.00  0.00     0.202 C 
HETATM    2  N   UNL     1      20.421  49.098  48.801  1.00  0.00    -0.083 N 
HETATM    3  C   UNL     1      19.642  49.326  47.699  1.00  0.00     0.726 A 
HETATM    4  N   UNL     1      18.938  50.413  47.879  1.00  0.00    -0.046 NA
HETATM    5  C   UNL     1      19.291  50.798  49.154  1.00  0.00     0.162 A 
HETATM    6  C   UNL     1      18.690  51.972  49.818  1.00  0.00     0.096 C 
HETATM    7  N   UNL     1      20.188  50.012  49.765  1.00  0.00    -0.141 NA
HETATM    8  N   UNL     1      19.654  48.434  46.685  1.00  0.00    -0.192 N 
HETATM    9  C   UNL     1      20.195  47.156  46.831  1.00  0.00     0.037 C 
HETATM   10  C   UNL     1      19.745  46.136  45.815  1.00  0.00     0.070 C 
HETATM   11  C   UNL     1      20.990  46.886  47.898  1.00  0.00     0.062 C 
HETATM   12  H   UNL     1      18.958  48.557  45.953  1.00  0.00     0.184 HD
ENDROOT
BRANCH  11  13
HETATM   13  C   UNL     1      21.435  45.517  48.257  1.00  0.00     0.256 C 
HETATM   14  N   UNL     1      22.576  45.110  47.614  1.00  0.00    -0.321 N 
HETATM   15  H   UNL     1      23.112  45.795  47.088  1.00  0.00     0.169 HD
HETATM   16  O   UNL     1      20.786  44.889  49.084  1.00  0.00    -0.267 OA
BRANCH  14  17
HETATM   17  C   UNL     1      23.109  43.800  47.557  1.00  0.00     0.068 A 
HETATM   18  C   UNL     1      24.234  43.524  48.362  1.00  0.00     0.095 A 
HETATM   19  C   UNL     1      24.840  42.264  48.297  1.00  0.00     0.039 A 
HETATM   20  C   UNL     1      24.331  41.281  47.446  1.00  0.00     0.003 A 
HETATM   21  C   UNL     1      23.216  41.551  46.659  1.00  0.00     0.002 A 
HETATM   22  C   UNL     1      22.606  42.805  46.713  1.00  0.00     0.032 A 
BRANCH  18  23
HETATM   23  O   UNL     1      24.670  44.561  49.153  1.00  0.00    -0.354 OA
HETATM   24  C   UNL     1      26.034  44.520  49.557  1.00  0.00     0.210 C 
ENDBRANCH  18  23
ENDBRANCH  14  17
ENDBRANCH  11  13
BRANCH   1  25
HETATM   25  C   UNL     1      22.775  48.407  48.846  1.00  0.00    -0.028 A 
HETATM   26  C   UNL     1      23.758  47.779  49.624  1.00  0.00     0.010 A 
HETATM   27  C   UNL     1      25.089  48.206  49.575  1.00  0.00     0.007 A 
HETATM   28  C   UNL     1      25.465  49.271  48.750  1.00  0.00    -0.062 A 
HETATM   29  C   UNL     1      26.886  49.748  48.700  1.00  0.00     0.048 C 
HETATM   30  C   UNL     1      24.496  49.881  47.947  1.00  0.00     0.007 A 
HETATM   31  C   UNL     1      23.166  49.454  47.992  1.00  0.00     0.010 A 
ENDBRANCH   1  25
TORSDOF 4
ENDMDL
MODEL 9
REMARK VINA RESULT:      -7.2     15.889     19.057
REMARK  4 active torsions:
REMARK  status: ('A' for Active; 'I' for Inactive)
REMARK    1  A    between atoms: C_5  and  C_6 
REMARK    2  A    between atoms: C_16  and  C_17 
REMARK       I    between atoms: C_17  and  N_18 
REMARK    3  A    between atoms: N_18  and  C_19 
REMARK    4  A    between atoms: C_20  and  O_21 
ROOT
HETATM    1  C   UNL     1      39.393  46.130  66.023  1.00  0.00     0.202 C 
HETATM    2  N   UNL     1      38.736  47.394  65.676  1.00  0.00    -0.083 N 
HETATM    3  C   UNL     1      37.827  47.524  64.661  1.00  0.00     0.726 A 
HETATM    4  N   UNL     1      37.404  48.760  64.609  1.00  0.00    -0.046 NA
HETATM    5  C   UNL     1      38.060  49.352  65.667  1.00  0.00     0.162 A 
HETATM    6  C   UNL     1      37.844  50.765  66.038  1.00  0.00     0.096 C 
HETATM    7  N   UNL     1      38.878  48.547  66.360  1.00  0.00    -0.141 NA
HETATM    8  N   UNL     1      37.469  46.432  63.950  1.00  0.00    -0.192 N 
HETATM    9  C   UNL     1      37.758  45.139  64.387  1.00  0.00     0.037 C 
HETATM   10  C   UNL     1      36.928  44.041  63.769  1.00  0.00     0.070 C 
HETATM   11  C   UNL     1      38.667  44.957  65.378  1.00  0.00     0.062 C 
HETATM   12  H   UNL     1      36.688  46.536  63.306  1.00  0.00     0.184 HD
ENDROOT
BRANCH  11  13
HETATM   13  C   UNL     1      38.885  43.654  66.055  1.00  0.00     0.256 C 
HETATM   14  N   UNL     1      39.784  42.835  65.421  1.00  0.00    -0.321 N 
HETATM   15  H   UNL     1      40.341  43.216  64.662  1.00  0.00     0.169 HD
HETATM   16  O   UNL     1      38.284  43.430  67.098  1.00  0.00    -0.267 OA
BRANCH  14  17
HETATM   17  C   UNL     1      40.022  41.463  65.674  1.00  0.00     0.068 A 
HETATM   18  C   UNL     1      39.363  40.529  64.847  1.00  0.00     0.095 A 
HETATM   19  C   UNL     1      39.512  39.159  65.093  1.00  0.00     0.039 A 
HETATM   20  C   UNL     1      40.313  38.717  66.148  1.00  0.00     0.003 A 
HETATM   21  C   UNL     1      40.970  39.638  66.957  1.00  0.00     0.002 A 
HETATM   22  C   UNL     1      40.826  41.006  66.723  1.00  0.00     0.032 A 
BRANCH  18  23
HETATM   23  O   UNL     1      38.583  41.063  63.848  1.00  0.00    -0.354 OA
HETATM   24  C   UNL     1      39.025  40.845  62.513  1.00  0.00     0.210 C 
ENDBRANCH  18  23
ENDBRANCH  14  17
ENDBRANCH  11  13
BRANCH   1  25
HETATM   25  C   UNL     1      40.867  46.180  65.622  1.00  0.00    -0.028 A 
HETATM   26  C   UNL     1      41.833  46.587  66.554  1.00  0.00     0.010 A 
HETATM   27  C   UNL     1      43.182  46.669  66.196  1.00  0.00     0.007 A 
HETATM   28  C   UNL     1      43.595  46.346  64.899  1.00  0.00    -0.062 A 
HETATM   29  C   UNL     1      45.037  46.444  64.499  1.00  0.00     0.048 C 
HETATM   30  C   UNL     1      42.643  45.908  63.974  1.00  0.00     0.007 A 
HETATM   31  C   UNL     1      41.295  45.823  64.330  1.00  0.00     0.010 A 
ENDBRANCH   1  25
TORSDOF 4
ENDMDL
MODEL 10
REMARK VINA RESULT:      -7.2     11.986     13.870
REMARK  4 active torsions:
REMARK  status: ('A' for Active; 'I' for Inactive)
REMARK    1  A    between atoms: C_5  and  C_6 
REMARK    2  A    between atoms: C_16  and  C_17 
REMARK       I    between atoms: C_17  and  N_18 
REMARK    3  A    between atoms: N_18  and  C_19 
REMARK    4  A    between atoms: C_20  and  O_21 
ROOT
HETATM    1  C   UNL     1      27.301  48.227  38.700  1.00  0.00     0.202 C 
HETATM    2  N   UNL     1      25.937  48.535  38.259  1.00  0.00    -0.083 N 
HETATM    3  C   UNL     1      25.179  49.549  38.782  1.00  0.00     0.726 A 
HETATM    4  N   UNL     1      24.022  49.587  38.174  1.00  0.00    -0.046 NA
HETATM    5  C   UNL     1      24.137  48.587  37.233  1.00  0.00     0.162 A 
HETATM    6  C   UNL     1      23.069  48.295  36.257  1.00  0.00     0.096 C 
HETATM    7  N   UNL     1      25.303  47.924  37.238  1.00  0.00    -0.141 NA
HETATM    8  N   UNL     1      25.711  50.349  39.731  1.00  0.00    -0.192 N 
HETATM    9  C   UNL     1      27.081  50.376  39.993  1.00  0.00     0.037 C 
HETATM   10  C   UNL     1      27.584  51.600  40.717  1.00  0.00     0.070 C 
HETATM   11  C   UNL     1      27.872  49.383  39.512  1.00  0.00     0.062 C 
HETATM   12  H   UNL     1      25.178  51.176  39.989  1.00  0.00     0.184 HD
ENDROOT
BRANCH  11  13
HETATM   13  C   UNL     1      29.354  49.431  39.551  1.00  0.00     0.256 C 
HETATM   14  N   UNL     1      29.893  49.177  40.786  1.00  0.00    -0.321 N 
HETATM   15  H   UNL     1      29.286  48.826  41.521  1.00  0.00     0.169 HD
HETATM   16  O   UNL     1      29.959  49.662  38.511  1.00  0.00    -0.267 OA
BRANCH  14  17
HETATM   17  C   UNL     1      31.232  49.382  41.197  1.00  0.00     0.068 A 
HETATM   18  C   UNL     1      31.519  50.576  41.892  1.00  0.00     0.095 A 
HETATM   19  C   UNL     1      32.837  50.860  42.267  1.00  0.00     0.039 A 
HETATM   20  C   UNL     1      33.864  49.964  41.961  1.00  0.00     0.003 A 
HETATM   21  C   UNL     1      33.579  48.783  41.284  1.00  0.00     0.002 A 
HETATM   22  C   UNL     1      32.268  48.492  40.903  1.00  0.00     0.032 A 
BRANCH  18  23
HETATM   23  O   UNL     1      30.444  51.401  42.131  1.00  0.00    -0.354 OA
HETATM   24  C   UNL     1      30.695  52.800  42.082  1.00  0.00     0.210 C 
ENDBRANCH  18  23
ENDBRANCH  14  17
ENDBRANCH  11  13
BRANCH   1  25
HETATM   25  C   UNL     1      27.312  46.916  39.486  1.00  0.00    -0.028 A 
HETATM   26  C   UNL     1      28.096  45.841  39.043  1.00  0.00     0.010 A 
HETATM   27  C   UNL     1      28.095  44.624  39.731  1.00  0.00     0.007 A 
HETATM   28  C   UNL     1      27.311  44.455  40.876  1.00  0.00    -0.062 A 
HETATM   29  C   UNL     1      27.290  43.150  41.615  1.00  0.00     0.048 C 
HETATM   30  C   UNL     1      26.552  45.532  41.344  1.00  0.00     0.007 A 
HETATM   31  C   UNL     1      26.553  46.750  40.659  1.00  0.00     0.010 A 
ENDBRANCH   1  25
TORSDOF 4
ENDMDL
