MODEL 1
REMARK VINA RESULT:      -9.8      0.000      0.000
REMARK  7 active torsions:
REMARK  status: ('A' for Active; 'I' for Inactive)
REMARK       I    between atoms: N_2  and  C_3 
REMARK    1  A    between atoms: C_3  and  C_4 
REMARK    2  A    between atoms: C_4  and  O_5 
REMARK    3  A    between atoms: O_5  and  C_6 
REMARK    4  A    between atoms: C_9  and  N_10 
REMARK    5  A    between atoms: N_10  and  C_11 
REMARK    6  A    between atoms: C_14  and  C_15 
REMARK    7  A    between atoms: C_18  and  O_19 
ROOT
HETATM    1  C   UNL     1      26.565  44.812  52.351  1.00  0.00     0.161 A 
HETATM    2  N   UNL     1      26.707  45.834  53.218  1.00  0.00    -0.131 NA
HETATM    3  N   UNL     1      27.619  45.787  54.235  1.00  0.00    -0.147 NA
HETATM    4  C   UNL     1      28.429  44.717  54.376  1.00  0.00     0.100 A 
HETATM    5  C   UNL     1      28.387  43.641  53.470  1.00  0.00     0.009 A 
HETATM    6  C   UNL     1      27.433  43.692  52.423  1.00  0.00     0.024 A 
HETATM    7  C   UNL     1      29.262  42.525  53.541  1.00  0.00     0.015 A 
HETATM    8  C   UNL     1      29.197  41.479  52.621  1.00  0.00     0.001 A 
HETATM    9  C   UNL     1      28.268  41.526  51.596  1.00  0.00     0.001 A 
HETATM   10  C   UNL     1      27.405  42.618  51.494  1.00  0.00     0.016 A 
ENDROOT
BRANCH   1  11
HETATM   11  N   UNL     1      25.602  44.888  51.304  1.00  0.00    -0.339 N 
HETATM   12  H   UNL     1      24.738  44.465  51.629  1.00  0.00     0.167 HD
BRANCH  11  13
HETATM   13  C   UNL     1      25.258  45.989  50.485  1.00  0.00     0.033 A 
HETATM   14  C   UNL     1      23.970  46.014  49.933  1.00  0.00     0.032 A 
HETATM   15  C   UNL     1      23.538  47.092  49.154  1.00  0.00     0.039 A 
HETATM   16  C   UNL     1      24.379  48.179  48.921  1.00  0.00     0.069 A 
HETATM   17  C   UNL     1      25.661  48.169  49.466  1.00  0.00     0.039 A 
HETATM   18  C   UNL     1      26.092  47.085  50.246  1.00  0.00     0.032 A 
BRANCH  16  19
HETATM   19  O   UNL     1      23.835  49.176  48.160  1.00  0.00    -0.342 OA
BRANCH  19  20
HETATM   20  C   UNL     1      23.926  50.502  48.681  1.00  0.00     0.278 C 
BRANCH  20  21
HETATM   21  C   UNL     1      22.612  50.933  49.333  1.00  0.00     0.241 C 
HETATM   22  N   UNL     1      21.569  51.122  48.453  1.00  0.00    -0.364 N 
HETATM   23  C   UNL     1      20.237  51.425  48.905  1.00  0.00     0.149 C 
HETATM   24  H   UNL     1      21.721  50.810  47.498  1.00  0.00     0.161 HD
HETATM   25  O   UNL     1      22.512  51.105  50.546  1.00  0.00    -0.271 OA
ENDBRANCH  20  21
ENDBRANCH  19  20
ENDBRANCH  16  19
ENDBRANCH  11  13
ENDBRANCH   1  11
BRANCH   4  26
HETATM   26  C   UNL     1      29.323  44.807  55.541  1.00  0.00    -0.005 A 
HETATM   27  C   UNL     1      30.420  43.937  55.694  1.00  0.00     0.016 A 
HETATM   28  C   UNL     1      31.254  44.018  56.813  1.00  0.00     0.037 A 
HETATM   29  C   UNL     1      30.989  44.965  57.796  1.00  0.00     0.065 A 
HETATM   30  C   UNL     1      29.907  45.827  57.678  1.00  0.00     0.037 A 
HETATM   31  C   UNL     1      29.076  45.745  56.559  1.00  0.00     0.016 A 
BRANCH  29  32
HETATM   32  O   UNL     1      31.772  45.076  58.905  1.00  0.00    -0.361 OA
HETATM   33  H   UNL     1      32.677  44.812  58.677  1.00  0.00     0.217 HD
ENDBRANCH  29  32
ENDBRANCH   4  26
TORSDOF 7
ENDMDL
MODEL 2
REMARK VINA RESULT:      -9.6      3.389      6.520
REMARK  7 active torsions:
REMARK  status: ('A' for Active; 'I' for Inactive)
REMARK       I    between atoms: N_2  and  C_3 
REMARK    1  A    between atoms: C_3  and  C_4 
REMARK    2  A    between atoms: C_4  and  O_5 
REMARK    3  A    between atoms: O_5  and  C_6 
REMARK    4  A    between atoms: C_9  and  N_10 
REMARK    5  A    between atoms: N_10  and  C_11 
REMARK    6  A    between atoms: C_14  and  C_15 
REMARK    7  A    between atoms: C_18  and  O_19 
ROOT
HETATM    1  C   UNL     1      23.562  48.152  48.880  1.00  0.00     0.161 A 
HETATM    2  N   UNL     1      23.189  47.053  49.565  1.00  0.00    -0.131 NA
HETATM    3  N   UNL     1      24.097  46.296  50.251  1.00  0.00    -0.147 NA
HETATM    4  C   UNL     1      25.398  46.655  50.285  1.00  0.00     0.100 A 
HETATM    5  C   UNL     1      25.852  47.827  49.652  1.00  0.00     0.009 A 
HETATM    6  C   UNL     1      24.906  48.602  48.934  1.00  0.00     0.024 A 
HETATM    7  C   UNL     1      27.197  48.278  49.714  1.00  0.00     0.015 A 
HETATM    8  C   UNL     1      27.611  49.449  49.079  1.00  0.00     0.001 A 
HETATM    9  C   UNL     1      26.690  50.210  48.379  1.00  0.00     0.001 A 
HETATM   10  C   UNL     1      25.358  49.798  48.313  1.00  0.00     0.016 A 
ENDROOT
BRANCH   1  11
HETATM   11  N   UNL     1      22.594  48.918  48.171  1.00  0.00    -0.339 N 
HETATM   12  H   UNL     1      22.327  48.407  47.334  1.00  0.00     0.167 HD
BRANCH  11  13
HETATM   13  C   UNL     1      21.437  49.570  48.660  1.00  0.00     0.033 A 
HETATM   14  C   UNL     1      20.203  48.932  48.477  1.00  0.00     0.032 A 
HETATM   15  C   UNL     1      19.020  49.488  48.976  1.00  0.00     0.039 A 
HETATM   16  C   UNL     1      19.046  50.689  49.684  1.00  0.00     0.069 A 
HETATM   17  C   UNL     1      20.267  51.331  49.877  1.00  0.00     0.039 A 
HETATM   18  C   UNL     1      21.450  50.772  49.373  1.00  0.00     0.032 A 
BRANCH  16  19
HETATM   19  O   UNL     1      17.829  51.119  50.134  1.00  0.00    -0.342 OA
BRANCH  19  20
HETATM   20  C   UNL     1      17.471  52.465  49.825  1.00  0.00     0.278 C 
BRANCH  20  21
HETATM   21  C   UNL     1      15.979  52.710  50.055  1.00  0.00     0.241 C 
HETATM   22  N   UNL     1      15.695  53.729  50.938  1.00  0.00    -0.364 N 
HETATM   23  C   UNL     1      14.347  54.164  51.190  1.00  0.00     0.149 C 
HETATM   24  H   UNL     1      16.476  54.312  51.223  1.00  0.00     0.161 HD
HETATM   25  O   UNL     1      15.114  52.037  49.499  1.00  0.00    -0.271 OA
ENDBRANCH  20  21
ENDBRANCH  19  20
ENDBRANCH  16  19
ENDBRANCH  11  13
ENDBRANCH   1  11
BRANCH   4  26
HETATM   26  C   UNL     1      26.247  45.715  51.032  1.00  0.00    -0.005 A 
HETATM   27  C   UNL     1      26.368  45.787  52.433  1.00  0.00     0.016 A 
HETATM   28  C   UNL     1      27.192  44.901  53.133  1.00  0.00     0.037 A 
HETATM   29  C   UNL     1      27.913  43.941  52.433  1.00  0.00     0.065 A 
HETATM   30  C   UNL     1      27.825  43.855  51.050  1.00  0.00     0.037 A 
HETATM   31  C   UNL     1      27.001  44.741  50.353  1.00  0.00     0.016 A 
BRANCH  29  32
HETATM   32  O   UNL     1      28.732  43.060  53.073  1.00  0.00    -0.361 OA
HETATM   33  H   UNL     1      28.393  42.161  52.935  1.00  0.00     0.217 HD
ENDBRANCH  29  32
ENDBRANCH   4  26
TORSDOF 7
ENDMDL
MODEL 3
REMARK VINA RESULT:      -9.5      2.766     10.449
REMARK  7 active torsions:
REMARK  status: ('A' for Active; 'I' for Inactive)
REMARK       I    between atoms: N_2  and  C_3 
REMARK    1  A    between atoms: C_3  and  C_4 
REMARK    2  A    between atoms: C_4  and  O_5 
REMARK    3  A    between atoms: O_5  and  C_6 
REMARK    4  A    between atoms: C_9  and  N_10 
REMARK    5  A    between atoms: N_10  and  C_11 
REMARK    6  A    between atoms: C_14  and  C_15 
REMARK    7  A    between atoms: C_18  and  O_19 
ROOT
HETATM    1  C   UNL     1      23.974  48.404  49.231  1.00  0.00     0.161 A 
HETATM    2  N   UNL     1      23.902  49.704  49.579  1.00  0.00    -0.131 NA
HETATM    3  N   UNL     1      22.717  50.385  49.562  1.00  0.00    -0.147 NA
HETATM    4  C   UNL     1      21.573  49.753  49.223  1.00  0.00     0.100 A 
HETATM    5  C   UNL     1      21.557  48.380  48.913  1.00  0.00     0.009 A 
HETATM    6  C   UNL     1      22.792  47.684  48.923  1.00  0.00     0.024 A 
HETATM    7  C   UNL     1      20.371  47.661  48.612  1.00  0.00     0.015 A 
HETATM    8  C   UNL     1      20.391  46.298  48.316  1.00  0.00     0.001 A 
HETATM    9  C   UNL     1      21.594  45.613  48.327  1.00  0.00     0.001 A 
HETATM   10  C   UNL     1      22.775  46.293  48.633  1.00  0.00     0.016 A 
ENDROOT
BRANCH   1  11
HETATM   11  N   UNL     1      25.225  47.724  49.254  1.00  0.00    -0.339 N 
HETATM   12  H   UNL     1      25.960  48.391  49.036  1.00  0.00     0.167 HD
BRANCH  11  13
HETATM   13  C   UNL     1      25.736  46.825  50.220  1.00  0.00     0.033 A 
HETATM   14  C   UNL     1      25.412  47.059  51.563  1.00  0.00     0.032 A 
HETATM   15  C   UNL     1      25.837  46.187  52.571  1.00  0.00     0.039 A 
HETATM   16  C   UNL     1      26.583  45.052  52.258  1.00  0.00     0.069 A 
HETATM   17  C   UNL     1      26.908  44.805  50.926  1.00  0.00     0.039 A 
HETATM   18  C   UNL     1      26.482  45.682  49.918  1.00  0.00     0.032 A 
BRANCH  16  19
HETATM   19  O   UNL     1      26.922  44.272  53.328  1.00  0.00    -0.342 OA
BRANCH  19  20
HETATM   20  C   UNL     1      28.242  43.730  53.333  1.00  0.00     0.278 C 
BRANCH  20  21
HETATM   21  C   UNL     1      29.034  44.206  54.551  1.00  0.00     0.241 C 
HETATM   22  N   UNL     1      30.056  43.365  54.936  1.00  0.00    -0.364 N 
HETATM   23  C   UNL     1      30.967  43.710  55.994  1.00  0.00     0.149 C 
HETATM   24  H   UNL     1      30.286  42.610  54.297  1.00  0.00     0.161 HD
HETATM   25  O   UNL     1      28.763  45.252  55.137  1.00  0.00    -0.271 OA
ENDBRANCH  20  21
ENDBRANCH  19  20
ENDBRANCH  16  19
ENDBRANCH  11  13
ENDBRANCH   1  11
BRANCH   4  26
HETATM   26  C   UNL     1      20.395  50.635  49.217  1.00  0.00    -0.005 A 
HETATM   27  C   UNL     1      20.275  51.695  48.298  1.00  0.00     0.016 A 
HETATM   28  C   UNL     1      19.161  52.538  48.312  1.00  0.00     0.037 A 
HETATM   29  C   UNL     1      18.161  52.334  49.256  1.00  0.00     0.065 A 
HETATM   30  C   UNL     1      18.259  51.306  50.184  1.00  0.00     0.037 A 
HETATM   31  C   UNL     1      19.373  50.464  50.167  1.00  0.00     0.016 A 
BRANCH  29  32
HETATM   32  O   UNL     1      17.060  53.135  49.310  1.00  0.00    -0.361 OA
HETATM   33  H   UNL     1      16.729  53.151  50.223  1.00  0.00     0.217 HD
ENDBRANCH  29  32
ENDBRANCH   4  26
TORSDOF 7
ENDMDL
MODEL 4
REMARK VINA RESULT:      -9.4      2.194     10.106
REMARK  7 active torsions:
REMARK  status: ('A' for Active; 'I' for Inactive)
REMARK       I    between atoms: N_2  and  C_3 
REMARK    1  A    between atoms: C_3  and  C_4 
REMARK    2  A    between atoms: C_4  and  O_5 
REMARK    3  A    between atoms: O_5  and  C_6 
REMARK    4  A    between atoms: C_9  and  N_10 
REMARK    5  A    between atoms: N_10  and  C_11 
REMARK    6  A    between atoms: C_14  and  C_15 
REMARK    7  A    between atoms: C_18  and  O_19 
ROOT
HETATM    1  C   UNL     1      25.132  46.473  49.996  1.00  0.00     0.161 A 
HETATM    2  N   UNL     1      23.816  46.186  49.966  1.00  0.00    -0.131 NA
HETATM    3  N   UNL     1      22.895  47.099  49.532  1.00  0.00    -0.147 NA
HETATM    4  C   UNL     1      23.293  48.310  49.089  1.00  0.00     0.100 A 
HETATM    5  C   UNL     1      24.655  48.658  49.026  1.00  0.00     0.009 A 
HETATM    6  C   UNL     1      25.603  47.710  49.487  1.00  0.00     0.024 A 
HETATM    7  C   UNL     1      25.123  49.894  48.509  1.00  0.00     0.015 A 
HETATM    8  C   UNL     1      26.482  50.203  48.456  1.00  0.00     0.001 A 
HETATM    9  C   UNL     1      27.412  49.279  48.903  1.00  0.00     0.001 A 
HETATM   10  C   UNL     1      26.980  48.050  49.403  1.00  0.00     0.016 A 
ENDROOT
BRANCH   1  11
HETATM   11  N   UNL     1      26.067  45.503  50.459  1.00  0.00    -0.339 N 
HETATM   12  H   UNL     1      26.794  45.395  49.758  1.00  0.00     0.167 HD
BRANCH  11  13
HETATM   13  C   UNL     1      26.678  45.385  51.730  1.00  0.00     0.033 A 
HETATM   14  C   UNL     1      26.346  46.338  52.703  1.00  0.00     0.032 A 
HETATM   15  C   UNL     1      26.869  46.261  53.997  1.00  0.00     0.039 A 
HETATM   16  C   UNL     1      27.725  45.220  54.355  1.00  0.00     0.069 A 
HETATM   17  C   UNL     1      28.060  44.264  53.399  1.00  0.00     0.039 A 
HETATM   18  C   UNL     1      27.535  44.345  52.100  1.00  0.00     0.032 A 
BRANCH  16  19
HETATM   19  O   UNL     1      28.155  45.246  55.653  1.00  0.00    -0.342 OA
BRANCH  19  20
HETATM   20  C   UNL     1      29.336  46.001  55.922  1.00  0.00     0.278 C 
BRANCH  20  21
HETATM   21  C   UNL     1      30.253  45.267  56.901  1.00  0.00     0.241 C 
HETATM   22  N   UNL     1      30.876  44.154  56.380  1.00  0.00    -0.364 N 
HETATM   23  C   UNL     1      31.852  43.409  57.128  1.00  0.00     0.149 C 
HETATM   24  H   UNL     1      30.797  44.020  55.376  1.00  0.00     0.161 HD
HETATM   25  O   UNL     1      30.403  45.645  58.061  1.00  0.00    -0.271 OA
ENDBRANCH  20  21
ENDBRANCH  19  20
ENDBRANCH  16  19
ENDBRANCH  11  13
ENDBRANCH   1  11
BRANCH   4  26
HETATM   26  C   UNL     1      22.178  49.186  48.695  1.00  0.00    -0.005 A 
HETATM   27  C   UNL     1      21.326  48.855  47.624  1.00  0.00     0.016 A 
HETATM   28  C   UNL     1      20.281  49.702  47.246  1.00  0.00     0.037 A 
HETATM   29  C   UNL     1      20.087  50.897  47.930  1.00  0.00     0.065 A 
HETATM   30  C   UNL     1      20.920  51.256  48.981  1.00  0.00     0.037 A 
HETATM   31  C   UNL     1      21.963  50.407  49.358  1.00  0.00     0.016 A 
BRANCH  29  32
HETATM   32  O   UNL     1      19.084  51.755  47.592  1.00  0.00    -0.361 OA
HETATM   33  H   UNL     1      19.115  52.521  48.188  1.00  0.00     0.217 HD
ENDBRANCH  29  32
ENDBRANCH   4  26
TORSDOF 7
ENDMDL
MODEL 5
REMARK VINA RESULT:      -9.3      3.252      4.130
REMARK  7 active torsions:
REMARK  status: ('A' for Active; 'I' for Inactive)
REMARK       I    between atoms: N_2  and  C_3 
REMARK    1  A    between atoms: C_3  and  C_4 
REMARK    2  A    between atoms: C_4  and  O_5 
REMARK    3  A    between atoms: O_5  and  C_6 
REMARK    4  A    between atoms: C_9  and  N_10 
REMARK    5  A    between atoms: N_10  and  C_11 
REMARK    6  A    between atoms: C_14  and  C_15 
REMARK    7  A    between atoms: C_18  and  O_19 
ROOT
HETATM    1  C   UNL     1      27.464  44.021  51.631  1.00  0.00     0.161 A 
HETATM    2  N   UNL     1      28.411  43.178  52.088  1.00  0.00    -0.131 NA
HETATM    3  N   UNL     1      29.031  43.383  53.289  1.00  0.00    -0.147 NA
HETATM    4  C   UNL     1      28.681  44.429  54.067  1.00  0.00     0.100 A 
HETATM    5  C   UNL     1      27.653  45.313  53.689  1.00  0.00     0.009 A 
HETATM    6  C   UNL     1      27.021  45.099  52.438  1.00  0.00     0.024 A 
HETATM    7  C   UNL     1      27.208  46.387  54.503  1.00  0.00     0.015 A 
HETATM    8  C   UNL     1      26.181  47.241  54.100  1.00  0.00     0.001 A 
HETATM    9  C   UNL     1      25.559  47.034  52.880  1.00  0.00     0.001 A 
HETATM   10  C   UNL     1      25.967  45.977  52.065  1.00  0.00     0.016 A 
ENDROOT
BRANCH   1  11
HETATM   11  N   UNL     1      26.839  43.783  50.373  1.00  0.00    -0.339 N 
HETATM   12  H   UNL     1      27.258  42.958  49.955  1.00  0.00     0.167 HD
BRANCH  11  13
HETATM   13  C   UNL     1      25.462  43.776  50.046  1.00  0.00     0.033 A 
HETATM   14  C   UNL     1      25.030  44.635  49.027  1.00  0.00     0.032 A 
HETATM   15  C   UNL     1      23.694  44.650  48.612  1.00  0.00     0.039 A 
HETATM   16  C   UNL     1      22.762  43.794  49.196  1.00  0.00     0.069 A 
HETATM   17  C   UNL     1      23.179  42.931  50.207  1.00  0.00     0.039 A 
HETATM   18  C   UNL     1      24.519  42.920  50.622  1.00  0.00     0.032 A 
BRANCH  16  19
HETATM   19  O   UNL     1      21.494  43.891  48.693  1.00  0.00    -0.342 OA
BRANCH  19  20
HETATM   20  C   UNL     1      20.910  45.193  48.676  1.00  0.00     0.278 C 
BRANCH  20  21
HETATM   21  C   UNL     1      19.610  45.208  47.871  1.00  0.00     0.241 C 
HETATM   22  N   UNL     1      19.465  46.295  47.037  1.00  0.00    -0.364 N 
HETATM   23  C   UNL     1      18.354  46.415  46.131  1.00  0.00     0.149 C 
HETATM   24  H   UNL     1      20.281  46.886  46.916  1.00  0.00     0.161 HD
HETATM   25  O   UNL     1      18.767  44.320  47.978  1.00  0.00    -0.271 OA
ENDBRANCH  20  21
ENDBRANCH  19  20
ENDBRANCH  16  19
ENDBRANCH  11  13
ENDBRANCH   1  11
BRANCH   4  26
HETATM   26  C   UNL     1      29.468  44.529  55.306  1.00  0.00    -0.005 A 
HETATM   27  C   UNL     1      29.209  45.529  56.263  1.00  0.00     0.016 A 
HETATM   28  C   UNL     1      29.975  45.628  57.428  1.00  0.00     0.037 A 
HETATM   29  C   UNL     1      31.016  44.730  57.640  1.00  0.00     0.065 A 
HETATM   30  C   UNL     1      31.303  43.743  56.707  1.00  0.00     0.037 A 
HETATM   31  C   UNL     1      30.537  43.646  55.544  1.00  0.00     0.016 A 
BRANCH  29  32
HETATM   32  O   UNL     1      31.791  44.792  58.758  1.00  0.00    -0.361 OA
HETATM   33  H   UNL     1      31.343  44.316  59.476  1.00  0.00     0.217 HD
ENDBRANCH  29  32
ENDBRANCH   4  26
TORSDOF 7
ENDMDL
MODEL 6
REMARK VINA RESULT:      -9.3      3.688     10.467
REMARK  7 active torsions:
REMARK  status: ('A' for Active; 'I' for Inactive)
REMARK       I    between atoms: N_2  and  C_3 
REMARK    1  A    between atoms: C_3  and  C_4 
REMARK    2  A    between atoms: C_4  and  O_5 
REMARK    3  A    between atoms: O_5  and  C_6 
REMARK    4  A    between atoms: C_9  and  N_10 
REMARK    5  A    between atoms: N_10  and  C_11 
REMARK    6  A    between atoms: C_14  and  C_15 
REMARK    7  A    between atoms: C_18  and  O_19 
ROOT
HETATM    1  C   UNL     1      23.940  48.092  49.224  1.00  0.00     0.161 A 
HETATM    2  N   UNL     1      23.896  49.360  49.678  1.00  0.00    -0.131 NA
HETATM    3  N   UNL     1      22.738  50.087  49.658  1.00  0.00    -0.147 NA
HETATM    4  C   UNL     1      21.593  49.533  49.207  1.00  0.00     0.100 A 
HETATM    5  C   UNL     1      21.545  48.192  48.779  1.00  0.00     0.009 A 
HETATM    6  C   UNL     1      22.752  47.448  48.794  1.00  0.00     0.024 A 
HETATM    7  C   UNL     1      20.352  47.549  48.357  1.00  0.00     0.015 A 
HETATM    8  C   UNL     1      20.341  46.216  47.946  1.00  0.00     0.001 A 
HETATM    9  C   UNL     1      21.516  45.485  47.961  1.00  0.00     0.001 A 
HETATM   10  C   UNL     1      22.701  46.088  48.385  1.00  0.00     0.016 A 
ENDROOT
BRANCH   1  11
HETATM   11  N   UNL     1      25.163  47.363  49.253  1.00  0.00    -0.339 N 
HETATM   12  H   UNL     1      25.925  48.001  49.047  1.00  0.00     0.167 HD
BRANCH  11  13
HETATM   13  C   UNL     1      25.629  46.438  50.218  1.00  0.00     0.033 A 
HETATM   14  C   UNL     1      26.688  45.595  49.854  1.00  0.00     0.032 A 
HETATM   15  C   UNL     1      27.237  44.690  50.768  1.00  0.00     0.039 A 
HETATM   16  C   UNL     1      26.750  44.616  52.072  1.00  0.00     0.069 A 
HETATM   17  C   UNL     1      25.700  45.451  52.448  1.00  0.00     0.039 A 
HETATM   18  C   UNL     1      25.151  46.357  51.528  1.00  0.00     0.032 A 
BRANCH  16  19
HETATM   19  O   UNL     1      27.381  43.705  52.873  1.00  0.00    -0.342 OA
BRANCH  19  20
HETATM   20  C   UNL     1      28.598  43.150  52.376  1.00  0.00     0.278 C 
BRANCH  20  21
HETATM   21  C   UNL     1      28.497  41.632  52.228  1.00  0.00     0.241 C 
HETATM   22  N   UNL     1      28.484  41.182  50.926  1.00  0.00    -0.364 N 
HETATM   23  C   UNL     1      28.500  39.779  50.606  1.00  0.00     0.149 C 
HETATM   24  H   UNL     1      28.699  41.867  50.208  1.00  0.00     0.161 HD
HETATM   25  O   UNL     1      28.422  40.885  53.202  1.00  0.00    -0.271 OA
ENDBRANCH  20  21
ENDBRANCH  19  20
ENDBRANCH  16  19
ENDBRANCH  11  13
ENDBRANCH   1  11
BRANCH   4  26
HETATM   26  C   UNL     1      20.449  50.458  49.216  1.00  0.00    -0.005 A 
HETATM   27  C   UNL     1      20.400  51.574  48.358  1.00  0.00     0.016 A 
HETATM   28  C   UNL     1      19.318  52.458  48.386  1.00  0.00     0.037 A 
HETATM   29  C   UNL     1      18.279  52.238  49.284  1.00  0.00     0.065 A 
HETATM   30  C   UNL     1      18.307  51.154  50.151  1.00  0.00     0.037 A 
HETATM   31  C   UNL     1      19.389  50.272  50.120  1.00  0.00     0.016 A 
BRANCH  29  32
HETATM   32  O   UNL     1      17.207  53.076  49.349  1.00  0.00    -0.361 OA
HETATM   33  H   UNL     1      17.137  53.423  50.254  1.00  0.00     0.217 HD
ENDBRANCH  29  32
ENDBRANCH   4  26
TORSDOF 7
ENDMDL
MODEL 7
REMARK VINA RESULT:      -9.3      3.147      5.671
REMARK  7 active torsions:
REMARK  status: ('A' for Active; 'I' for Inactive)
REMARK       I    between atoms: N_2  and  C_3 
REMARK    1  A    between atoms: C_3  and  C_4 
REMARK    2  A    between atoms: C_4  and  O_5 
REMARK    3  A    between atoms: O_5  and  C_6 
REMARK    4  A    between atoms: C_9  and  N_10 
REMARK    5  A    between atoms: N_10  and  C_11 
REMARK    6  A    between atoms: C_14  and  C_15 
REMARK    7  A    between atoms: C_18  and  O_19 
ROOT
HETATM    1  C   UNL     1      23.665  47.623  49.549  1.00  0.00     0.161 A 
HETATM    2  N   UNL     1      24.663  48.190  50.256  1.00  0.00    -0.131 NA
HETATM    3  N   UNL     1      25.488  47.445  51.051  1.00  0.00    -0.147 NA
HETATM    4  C   UNL     1      25.340  46.105  51.121  1.00  0.00     0.100 A 
HETATM    5  C   UNL     1      24.365  45.433  50.361  1.00  0.00     0.009 A 
HETATM    6  C   UNL     1      23.507  46.214  49.545  1.00  0.00     0.024 A 
HETATM    7  C   UNL     1      24.215  44.022  50.354  1.00  0.00     0.015 A 
HETATM    8  C   UNL     1      23.241  43.389  49.582  1.00  0.00     0.001 A 
HETATM    9  C   UNL     1      22.402  44.147  48.782  1.00  0.00     0.001 A 
HETATM   10  C   UNL     1      22.537  45.536  48.759  1.00  0.00     0.016 A 
ENDROOT
BRANCH   1  11
HETATM   11  N   UNL     1      22.818  48.427  48.733  1.00  0.00    -0.339 N 
HETATM   12  H   UNL     1      22.591  47.906  47.891  1.00  0.00     0.167 HD
BRANCH  11  13
HETATM   13  C   UNL     1      21.670  49.171  49.097  1.00  0.00     0.033 A 
HETATM   14  C   UNL     1      20.458  48.479  49.222  1.00  0.00     0.032 A 
HETATM   15  C   UNL     1      19.290  49.134  49.627  1.00  0.00     0.039 A 
HETATM   16  C   UNL     1      19.311  50.494  49.931  1.00  0.00     0.069 A 
HETATM   17  C   UNL     1      20.510  51.193  49.815  1.00  0.00     0.039 A 
HETATM   18  C   UNL     1      21.679  50.533  49.407  1.00  0.00     0.032 A 
BRANCH  16  19
HETATM   19  O   UNL     1      18.111  51.014  50.331  1.00  0.00    -0.342 OA
BRANCH  19  20
HETATM   20  C   UNL     1      17.686  52.214  49.686  1.00  0.00     0.278 C 
BRANCH  20  21
HETATM   21  C   UNL     1      16.190  52.454  49.889  1.00  0.00     0.241 C 
HETATM   22  N   UNL     1      15.886  53.507  50.724  1.00  0.00    -0.364 N 
HETATM   23  C   UNL     1      14.531  53.939  50.942  1.00  0.00     0.149 C 
HETATM   24  H   UNL     1      16.658  54.111  50.991  1.00  0.00     0.161 HD
HETATM   25  O   UNL     1      15.338  51.749  49.353  1.00  0.00    -0.271 OA
ENDBRANCH  20  21
ENDBRANCH  19  20
ENDBRANCH  16  19
ENDBRANCH  11  13
ENDBRANCH   1  11
BRANCH   4  26
HETATM   26  C   UNL     1      26.281  45.459  52.049  1.00  0.00    -0.005 A 
HETATM   27  C   UNL     1      26.319  45.801  53.415  1.00  0.00     0.016 A 
HETATM   28  C   UNL     1      27.229  45.195  54.285  1.00  0.00     0.037 A 
HETATM   29  C   UNL     1      28.119  44.246  53.792  1.00  0.00     0.065 A 
HETATM   30  C   UNL     1      28.114  43.900  52.448  1.00  0.00     0.037 A 
HETATM   31  C   UNL     1      27.203  44.507  51.580  1.00  0.00     0.016 A 
BRANCH  29  32
HETATM   32  O   UNL     1      29.026  43.634  54.603  1.00  0.00    -0.361 OA
HETATM   33  H   UNL     1      29.916  43.783  54.245  1.00  0.00     0.217 HD
ENDBRANCH  29  32
ENDBRANCH   4  26
TORSDOF 7
ENDMDL
MODEL 8
REMARK VINA RESULT:      -9.1      2.620      4.332
REMARK  7 active torsions:
REMARK  status: ('A' for Active; 'I' for Inactive)
REMARK       I    between atoms: N_2  and  C_3 
REMARK    1  A    between atoms: C_3  and  C_4 
REMARK    2  A    between atoms: C_4  and  O_5 
REMARK    3  A    between atoms: O_5  and  C_6 
REMARK    4  A    between atoms: C_9  and  N_10 
REMARK    5  A    between atoms: N_10  and  C_11 
REMARK    6  A    between atoms: C_14  and  C_15 
REMARK    7  A    between atoms: C_18  and  O_19 
ROOT
HETATM    1  C   UNL     1      24.168  47.021  50.002  1.00  0.00     0.161 A 
HETATM    2  N   UNL     1      24.935  47.927  50.639  1.00  0.00    -0.131 NA
HETATM    3  N   UNL     1      25.751  47.571  51.676  1.00  0.00    -0.147 NA
HETATM    4  C   UNL     1      25.831  46.282  52.069  1.00  0.00     0.100 A 
HETATM    5  C   UNL     1      25.112  45.268  51.409  1.00  0.00     0.009 A 
HETATM    6  C   UNL     1      24.261  45.647  50.340  1.00  0.00     0.024 A 
HETATM    7  C   UNL     1      25.214  43.892  51.745  1.00  0.00     0.015 A 
HETATM    8  C   UNL     1      24.490  42.913  51.065  1.00  0.00     0.001 A 
HETATM    9  C   UNL     1      23.660  43.278  50.019  1.00  0.00     0.001 A 
HETATM   10  C   UNL     1      23.552  44.622  49.658  1.00  0.00     0.016 A 
ENDROOT
BRANCH   1  11
HETATM   11  N   UNL     1      23.324  47.424  48.928  1.00  0.00    -0.339 N 
HETATM   12  H   UNL     1      22.753  46.631  48.651  1.00  0.00     0.167 HD
BRANCH  11  13
HETATM   13  C   UNL     1      22.527  48.588  48.806  1.00  0.00     0.033 A 
HETATM   14  C   UNL     1      21.164  48.480  49.113  1.00  0.00     0.032 A 
HETATM   15  C   UNL     1      20.322  49.595  49.065  1.00  0.00     0.039 A 
HETATM   16  C   UNL     1      20.826  50.849  48.723  1.00  0.00     0.069 A 
HETATM   17  C   UNL     1      22.181  50.971  48.419  1.00  0.00     0.039 A 
HETATM   18  C   UNL     1      23.022  49.850  48.467  1.00  0.00     0.032 A 
BRANCH  16  19
HETATM   19  O   UNL     1      19.908  51.862  48.728  1.00  0.00    -0.342 OA
BRANCH  19  20
HETATM   20  C   UNL     1      19.010  51.906  49.837  1.00  0.00     0.278 C 
BRANCH  20  21
HETATM   21  C   UNL     1      17.589  52.248  49.387  1.00  0.00     0.241 C 
HETATM   22  N   UNL     1      17.231  51.720  48.166  1.00  0.00    -0.364 N 
HETATM   23  C   UNL     1      15.898  51.853  47.641  1.00  0.00     0.149 C 
HETATM   24  H   UNL     1      17.867  51.038  47.763  1.00  0.00     0.161 HD
HETATM   25  O   UNL     1      16.841  52.949  50.066  1.00  0.00    -0.271 OA
ENDBRANCH  20  21
ENDBRANCH  19  20
ENDBRANCH  16  19
ENDBRANCH  11  13
ENDBRANCH   1  11
BRANCH   4  26
HETATM   26  C   UNL     1      26.723  46.073  53.220  1.00  0.00    -0.005 A 
HETATM   27  C   UNL     1      27.520  44.918  53.332  1.00  0.00     0.016 A 
HETATM   28  C   UNL     1      28.351  44.719  54.439  1.00  0.00     0.037 A 
HETATM   29  C   UNL     1      28.381  45.673  55.450  1.00  0.00     0.065 A 
HETATM   30  C   UNL     1      27.595  46.814  55.374  1.00  0.00     0.037 A 
HETATM   31  C   UNL     1      26.767  47.011  54.267  1.00  0.00     0.016 A 
BRANCH  29  32
HETATM   32  O   UNL     1      29.171  45.518  56.550  1.00  0.00    -0.361 OA
HETATM   33  H   UNL     1      28.607  45.324  57.315  1.00  0.00     0.217 HD
ENDBRANCH  29  32
ENDBRANCH   4  26
TORSDOF 7
ENDMDL
MODEL 9
REMARK VINA RESULT:      -9.0      3.690     11.117
REMARK  7 active torsions:
REMARK  status: ('A' for Active; 'I' for Inactive)
REMARK       I    between atoms: N_2  and  C_3 
REMARK    1  A    between atoms: C_3  and  C_4 
REMARK    2  A    between atoms: C_4  and  O_5 
REMARK    3  A    between atoms: O_5  and  C_6 
REMARK    4  A    between atoms: C_9  and  N_10 
REMARK    5  A    between atoms: N_10  and  C_11 
REMARK    6  A    between atoms: C_14  and  C_15 
REMARK    7  A    between atoms: C_18  and  O_19 
ROOT
HETATM    1  C   UNL     1      22.937  47.149  49.019  1.00  0.00     0.161 A 
HETATM    2  N   UNL     1      22.099  46.134  48.731  1.00  0.00    -0.131 NA
HETATM    3  N   UNL     1      20.791  46.358  48.402  1.00  0.00    -0.147 NA
HETATM    4  C   UNL     1      20.313  47.618  48.327  1.00  0.00     0.100 A 
HETATM    5  C   UNL     1      21.144  48.732  48.548  1.00  0.00     0.009 A 
HETATM    6  C   UNL     1      22.498  48.492  48.898  1.00  0.00     0.024 A 
HETATM    7  C   UNL     1      20.702  50.075  48.419  1.00  0.00     0.015 A 
HETATM    8  C   UNL     1      21.556  51.156  48.639  1.00  0.00     0.001 A 
HETATM    9  C   UNL     1      22.879  50.925  48.978  1.00  0.00     0.001 A 
HETATM   10  C   UNL     1      23.344  49.615  49.099  1.00  0.00     0.016 A 
ENDROOT
BRANCH   1  11
HETATM   11  N   UNL     1      24.294  46.883  49.364  1.00  0.00    -0.339 N 
HETATM   12  H   UNL     1      24.872  47.635  49.002  1.00  0.00     0.167 HD
BRANCH  11  13
HETATM   13  C   UNL     1      24.839  46.485  50.608  1.00  0.00     0.033 A 
HETATM   14  C   UNL     1      24.641  45.158  51.011  1.00  0.00     0.032 A 
HETATM   15  C   UNL     1      25.190  44.675  52.203  1.00  0.00     0.039 A 
HETATM   16  C   UNL     1      25.964  45.505  53.013  1.00  0.00     0.069 A 
HETATM   17  C   UNL     1      26.172  46.826  52.622  1.00  0.00     0.039 A 
HETATM   18  C   UNL     1      25.618  47.307  51.426  1.00  0.00     0.032 A 
BRANCH  16  19
HETATM   19  O   UNL     1      26.459  44.912  54.142  1.00  0.00    -0.342 OA
BRANCH  19  20
HETATM   20  C   UNL     1      27.629  44.111  53.983  1.00  0.00     0.278 C 
BRANCH  20  21
HETATM   21  C   UNL     1      28.802  44.676  54.785  1.00  0.00     0.241 C 
HETATM   22  N   UNL     1      29.732  43.739  55.179  1.00  0.00    -0.364 N 
HETATM   23  C   UNL     1      30.950  44.111  55.849  1.00  0.00     0.149 C 
HETATM   24  H   UNL     1      29.640  42.812  54.775  1.00  0.00     0.161 HD
HETATM   25  O   UNL     1      28.889  45.871  55.059  1.00  0.00    -0.271 OA
ENDBRANCH  20  21
ENDBRANCH  19  20
ENDBRANCH  16  19
ENDBRANCH  11  13
ENDBRANCH   1  11
BRANCH   4  26
HETATM   26  C   UNL     1      18.881  47.684  48.000  1.00  0.00    -0.005 A 
HETATM   27  C   UNL     1      17.893  47.583  49.000  1.00  0.00     0.016 A 
HETATM   28  C   UNL     1      16.534  47.629  48.678  1.00  0.00     0.037 A 
HETATM   29  C   UNL     1      16.151  47.765  47.348  1.00  0.00     0.065 A 
HETATM   30  C   UNL     1      17.102  47.853  46.340  1.00  0.00     0.037 A 
HETATM   31  C   UNL     1      18.460  47.808  46.665  1.00  0.00     0.016 A 
BRANCH  29  32
HETATM   32  O   UNL     1      14.838  47.809  46.987  1.00  0.00    -0.361 OA
HETATM   33  H   UNL     1      14.689  48.601  46.446  1.00  0.00     0.217 HD
ENDBRANCH  29  32
ENDBRANCH   4  26
TORSDOF 7
ENDMDL
MODEL 10
REMARK VINA RESULT:      -8.9      4.749      7.887
REMARK  7 active torsions:
REMARK  status: ('A' for Active; 'I' for Inactive)
REMARK       I    between atoms: N_2  and  C_3 
REMARK    1  A    between atoms: C_3  and  C_4 
REMARK    2  A    between atoms: C_4  and  O_5 
REMARK    3  A    between atoms: O_5  and  C_6 
REMARK    4  A    between atoms: C_9  and  N_10 
REMARK    5  A    between atoms: N_10  and  C_11 
REMARK    6  A    between atoms: C_14  and  C_15 
REMARK    7  A    between atoms: C_18  and  O_19 
ROOT
HETATM    1  C   UNL     1      27.662  43.550  51.709  1.00  0.00     0.161 A 
HETATM    2  N   UNL     1      28.661  42.798  52.212  1.00  0.00    -0.131 NA
HETATM    3  N   UNL     1      29.262  43.109  53.399  1.00  0.00    -0.147 NA
HETATM    4  C   UNL     1      28.842  44.172  54.118  1.00  0.00     0.100 A 
HETATM    5  C   UNL     1      27.760  44.965  53.692  1.00  0.00     0.009 A 
HETATM    6  C   UNL     1      27.147  44.641  52.455  1.00  0.00     0.024 A 
HETATM    7  C   UNL     1      27.243  46.051  54.445  1.00  0.00     0.015 A 
HETATM    8  C   UNL     1      26.165  46.812  53.994  1.00  0.00     0.001 A 
HETATM    9  C   UNL     1      25.561  46.498  52.788  1.00  0.00     0.001 A 
HETATM   10  C   UNL     1      26.040  45.425  52.034  1.00  0.00     0.016 A 
ENDROOT
BRANCH   1  11
HETATM   11  N   UNL     1      27.058  43.202  50.466  1.00  0.00    -0.339 N 
HETATM   12  H   UNL     1      27.429  43.813  49.745  1.00  0.00     0.167 HD
BRANCH  11  13
HETATM   13  C   UNL     1      26.872  41.923  49.890  1.00  0.00     0.033 A 
HETATM   14  C   UNL     1      27.296  41.737  48.567  1.00  0.00     0.032 A 
HETATM   15  C   UNL     1      27.192  40.489  47.944  1.00  0.00     0.039 A 
HETATM   16  C   UNL     1      26.677  39.393  48.635  1.00  0.00     0.069 A 
HETATM   17  C   UNL     1      26.256  39.564  49.952  1.00  0.00     0.039 A 
HETATM   18  C   UNL     1      26.360  40.817  50.573  1.00  0.00     0.032 A 
BRANCH  16  19
HETATM   19  O   UNL     1      26.644  38.226  47.923  1.00  0.00    -0.342 OA
BRANCH  19  20
HETATM   20  C   UNL     1      27.813  37.409  47.979  1.00  0.00     0.278 C 
BRANCH  20  21
HETATM   21  C   UNL     1      28.305  37.049  46.577  1.00  0.00     0.241 C 
HETATM   22  N   UNL     1      28.382  35.696  46.326  1.00  0.00    -0.364 N 
HETATM   23  C   UNL     1      28.724  35.182  45.027  1.00  0.00     0.149 C 
HETATM   24  H   UNL     1      27.964  35.083  47.018  1.00  0.00     0.161 HD
HETATM   25  O   UNL     1      28.616  37.908  45.754  1.00  0.00    -0.271 OA
ENDBRANCH  20  21
ENDBRANCH  19  20
ENDBRANCH  16  19
ENDBRANCH  11  13
ENDBRANCH   1  11
BRANCH   4  26
HETATM   26  C   UNL     1      29.618  44.392  55.348  1.00  0.00    -0.005 A 
HETATM   27  C   UNL     1      30.630  43.498  55.749  1.00  0.00     0.016 A 
HETATM   28  C   UNL     1      31.349  43.705  56.929  1.00  0.00     0.037 A 
HETATM   29  C   UNL     1      31.053  44.805  57.726  1.00  0.00     0.065 A 
HETATM   30  C   UNL     1      30.050  45.695  57.364  1.00  0.00     0.037 A 
HETATM   31  C   UNL     1      29.334  45.486  56.183  1.00  0.00     0.016 A 
BRANCH  29  32
HETATM   32  O   UNL     1      31.724  45.044  58.888  1.00  0.00    -0.361 OA
HETATM   33  H   UNL     1      32.675  45.090  58.695  1.00  0.00     0.217 HD
ENDBRANCH  29  32
ENDBRANCH   4  26
TORSDOF 7
ENDMDL
