MODEL 1
REMARK VINA RESULT:      -8.1      0.000      0.000
REMARK  5 active torsions:
REMARK  status: ('A' for Active; 'I' for Inactive)
REMARK    1  A    between atoms: C_4  and  N_5 
REMARK    2  A    between atoms: C_6  and  O_7 
REMARK    3  A    between atoms: C_6  and  C_8 
REMARK       I    between atoms: C_8  and  N_9 
REMARK    4  A    between atoms: N_9  and  C_10 
REMARK    5  A    between atoms: C_10  and  C_11 
ROOT
HETATM    1  N   UNL     1      26.214  45.901  49.717  1.00  0.00    -0.254 N 
HETATM    2  C   UNL     1      25.013  46.478  50.344  1.00  0.00     0.256 C 
HETATM    3  C   UNL     1      24.599  47.784  49.701  1.00  0.00     0.035 A 
HETATM    4  C   UNL     1      25.604  48.572  49.150  1.00  0.00     0.048 A 
HETATM    5  N   UNL     1      26.903  48.076  49.143  1.00  0.00    -0.308 N 
HETATM    6  C   UNL     1      27.245  46.765  49.360  1.00  0.00     0.330 C 
HETATM    7  O   UNL     1      28.416  46.454  49.147  1.00  0.00    -0.246 OA
HETATM    8  C   UNL     1      23.285  48.280  49.727  1.00  0.00     0.034 A 
HETATM    9  C   UNL     1      23.006  49.538  49.196  1.00  0.00     0.011 A 
HETATM   10 BR   UNL     1      21.234  50.196  49.226  1.00  0.00    -0.051 Br
HETATM   11  C   UNL     1      24.024  50.321  48.653  1.00  0.00     0.021 A 
HETATM   12  C   UNL     1      25.332  49.839  48.635  1.00  0.00     0.031 A 
HETATM   13  H   UNL     1      27.656  48.633  48.756  1.00  0.00     0.170 HD
ENDROOT
BRANCH   2  14
HETATM   14  O   UNL     1      23.891  45.594  50.238  1.00  0.00    -0.359 OA
HETATM   15  H   UNL     1      23.352  45.975  49.515  1.00  0.00     0.213 HD
ENDBRANCH   2  14
BRANCH   2  16
HETATM   16  C   UNL     1      25.294  46.680  51.894  1.00  0.00     0.279 C 
HETATM   17  N   UNL     1      25.054  45.614  52.734  1.00  0.00    -0.352 N 
HETATM   18  H   UNL     1      24.718  44.736  52.358  1.00  0.00     0.162 HD
HETATM   19  O   UNL     1      25.699  47.765  52.326  1.00  0.00    -0.268 OA
BRANCH  17  20
HETATM   20  C   UNL     1      25.432  45.656  54.125  1.00  0.00     0.168 C 
BRANCH  20  21
HETATM   21  C   UNL     1      26.715  44.905  54.296  1.00  0.00     0.000 A 
HETATM   22  S   UNL     1      28.177  45.753  54.603  1.00  0.00    -0.105 SA
HETATM   23  C   UNL     1      29.080  44.302  54.670  1.00  0.00     0.050 A 
HETATM   24  C   UNL     1      28.291  43.193  54.466  1.00  0.00     0.008 A 
HETATM   25  C   UNL     1      26.926  43.540  54.249  1.00  0.00     0.017 A 
ENDBRANCH  20  21
ENDBRANCH  17  20
ENDBRANCH   2  16
BRANCH   1  26
HETATM   26  C   UNL     1      26.455  44.490  49.799  1.00  0.00     0.042 A 
HETATM   27  C   UNL     1      25.738  43.574  49.018  1.00  0.00     0.030 A 
HETATM   28  C   UNL     1      25.959  42.197  49.141  1.00  0.00     0.002 A 
HETATM   29  C   UNL     1      26.892  41.716  50.057  1.00  0.00     0.000 A 
HETATM   30  C   UNL     1      27.598  42.610  50.855  1.00  0.00     0.002 A 
HETATM   31  C   UNL     1      27.374  43.984  50.731  1.00  0.00     0.030 A 
ENDBRANCH   1  26
TORSDOF 5
ENDMDL
MODEL 2
REMARK VINA RESULT:      -8.0     10.850     13.352
REMARK  5 active torsions:
REMARK  status: ('A' for Active; 'I' for Inactive)
REMARK    1  A    between atoms: C_4  and  N_5 
REMARK    2  A    between atoms: C_6  and  O_7 
REMARK    3  A    between atoms: C_6  and  C_8 
REMARK       I    between atoms: C_8  and  N_9 
REMARK    4  A    between atoms: N_9  and  C_10 
REMARK    5  A    between atoms: C_10  and  C_11 
ROOT
HETATM    1  N   UNL     1      28.942  49.671  40.381  1.00  0.00    -0.254 N 
HETATM    2  C   UNL     1      29.853  48.604  39.932  1.00  0.00     0.256 C 
HETATM    3  C   UNL     1      29.159  47.264  39.823  1.00  0.00     0.035 A 
HETATM    4  C   UNL     1      28.096  47.022  40.685  1.00  0.00     0.048 A 
HETATM    5  N   UNL     1      27.681  48.049  41.527  1.00  0.00    -0.308 N 
HETATM    6  C   UNL     1      28.025  49.370  41.384  1.00  0.00     0.330 C 
HETATM    7  O   UNL     1      27.437  50.178  42.101  1.00  0.00    -0.246 OA
HETATM    8  C   UNL     1      29.597  46.231  38.978  1.00  0.00     0.034 A 
HETATM    9  C   UNL     1      28.960  44.991  39.008  1.00  0.00     0.011 A 
HETATM   10 BR   UNL     1      29.548  43.607  37.864  1.00  0.00    -0.051 Br
HETATM   11  C   UNL     1      27.900  44.759  39.884  1.00  0.00     0.021 A 
HETATM   12  C   UNL     1      27.468  45.778  40.733  1.00  0.00     0.031 A 
HETATM   13  H   UNL     1      26.914  47.897  42.172  1.00  0.00     0.170 HD
ENDROOT
BRANCH   2  14
HETATM   14  O   UNL     1      30.398  48.892  38.639  1.00  0.00    -0.359 OA
HETATM   15  H   UNL     1      30.188  48.097  38.107  1.00  0.00     0.213 HD
ENDBRANCH   2  14
BRANCH   2  16
HETATM   16  C   UNL     1      31.078  48.522  40.939  1.00  0.00     0.279 C 
HETATM   17  N   UNL     1      32.342  48.724  40.430  1.00  0.00    -0.352 N 
HETATM   18  H   UNL     1      32.468  48.926  39.446  1.00  0.00     0.162 HD
HETATM   19  O   UNL     1      30.895  48.269  42.135  1.00  0.00    -0.268 OA
BRANCH  17  20
HETATM   20  C   UNL     1      33.491  48.827  41.295  1.00  0.00     0.168 C 
BRANCH  20  21
HETATM   21  C   UNL     1      34.184  50.126  41.022  1.00  0.00     0.000 A 
HETATM   22  S   UNL     1      35.638  50.518  41.847  1.00  0.00    -0.105 SA
HETATM   23  C   UNL     1      35.769  52.018  41.035  1.00  0.00     0.050 A 
HETATM   24  C   UNL     1      34.732  52.220  40.154  1.00  0.00     0.008 A 
HETATM   25  C   UNL     1      33.815  51.129  40.146  1.00  0.00     0.017 A 
ENDBRANCH  20  21
ENDBRANCH  17  20
ENDBRANCH   2  16
BRANCH   1  26
HETATM   26  C   UNL     1      29.228  51.039  40.056  1.00  0.00     0.042 A 
HETATM   27  C   UNL     1      30.146  51.796  40.795  1.00  0.00     0.030 A 
HETATM   28  C   UNL     1      30.380  53.141  40.488  1.00  0.00     0.002 A 
HETATM   29  C   UNL     1      29.690  53.752  39.444  1.00  0.00     0.000 A 
HETATM   30  C   UNL     1      28.760  53.021  38.713  1.00  0.00     0.002 A 
HETATM   31  C   UNL     1      28.526  51.678  39.023  1.00  0.00     0.030 A 
ENDBRANCH   1  26
TORSDOF 5
ENDMDL
MODEL 3
REMARK VINA RESULT:      -8.0     11.390     14.135
REMARK  5 active torsions:
REMARK  status: ('A' for Active; 'I' for Inactive)
REMARK    1  A    between atoms: C_4  and  N_5 
REMARK    2  A    between atoms: C_6  and  O_7 
REMARK    3  A    between atoms: C_6  and  C_8 
REMARK       I    between atoms: C_8  and  N_9 
REMARK    4  A    between atoms: N_9  and  C_10 
REMARK    5  A    between atoms: C_10  and  C_11 
ROOT
HETATM    1  N   UNL     1      32.910  51.833  40.289  1.00  0.00    -0.254 N 
HETATM    2  C   UNL     1      33.497  51.347  41.550  1.00  0.00     0.256 C 
HETATM    3  C   UNL     1      35.009  51.368  41.525  1.00  0.00     0.035 A 
HETATM    4  C   UNL     1      35.632  51.186  40.295  1.00  0.00     0.048 A 
HETATM    5  N   UNL     1      34.834  51.087  39.160  1.00  0.00    -0.308 N 
HETATM    6  C   UNL     1      33.511  51.445  39.095  1.00  0.00     0.330 C 
HETATM    7  O   UNL     1      32.994  51.464  37.979  1.00  0.00    -0.246 OA
HETATM    8  C   UNL     1      35.803  51.454  42.680  1.00  0.00     0.034 A 
HETATM    9  C   UNL     1      37.191  51.367  42.580  1.00  0.00     0.011 A 
HETATM   10 BR   UNL     1      38.254  51.493  44.137  1.00  0.00    -0.051 Br
HETATM   11  C   UNL     1      37.802  51.178  41.341  1.00  0.00     0.021 A 
HETATM   12  C   UNL     1      37.018  51.079  40.191  1.00  0.00     0.031 A 
HETATM   13  H   UNL     1      35.260  50.945  38.251  1.00  0.00     0.170 HD
ENDROOT
BRANCH   2  14
HETATM   14  O   UNL     1      33.093  52.156  42.661  1.00  0.00    -0.359 OA
HETATM   15  H   UNL     1      33.824  52.063  43.305  1.00  0.00     0.213 HD
ENDBRANCH   2  14
BRANCH   2  16
HETATM   16  C   UNL     1      32.960  49.880  41.831  1.00  0.00     0.279 C 
HETATM   17  N   UNL     1      31.845  49.747  42.632  1.00  0.00    -0.352 N 
HETATM   18  H   UNL     1      31.392  50.568  43.013  1.00  0.00     0.162 HD
HETATM   19  O   UNL     1      33.536  48.895  41.356  1.00  0.00    -0.268 OA
BRANCH  17  20
HETATM   20  C   UNL     1      31.196  48.471  42.807  1.00  0.00     0.168 C 
BRANCH  20  21
HETATM   21  C   UNL     1      30.027  48.395  41.876  1.00  0.00     0.000 A 
HETATM   22  S   UNL     1      30.196  47.650  40.338  1.00  0.00    -0.105 SA
HETATM   23  C   UNL     1      28.558  47.946  39.943  1.00  0.00     0.050 A 
HETATM   24  C   UNL     1      27.892  48.596  40.957  1.00  0.00     0.008 A 
HETATM   25  C   UNL     1      28.740  48.857  42.073  1.00  0.00     0.017 A 
ENDBRANCH  20  21
ENDBRANCH  17  20
ENDBRANCH   2  16
BRANCH   1  26
HETATM   26  C   UNL     1      31.583  52.379  40.282  1.00  0.00     0.042 A 
HETATM   27  C   UNL     1      30.459  51.580  40.039  1.00  0.00     0.030 A 
HETATM   28  C   UNL     1      29.176  52.139  39.995  1.00  0.00     0.002 A 
HETATM   29  C   UNL     1      29.002  53.508  40.182  1.00  0.00     0.000 A 
HETATM   30  C   UNL     1      30.109  54.320  40.404  1.00  0.00     0.002 A 
HETATM   31  C   UNL     1      31.389  53.759  40.445  1.00  0.00     0.030 A 
ENDBRANCH   1  26
TORSDOF 5
ENDMDL
MODEL 4
REMARK VINA RESULT:      -7.8      2.712      5.420
REMARK  5 active torsions:
REMARK  status: ('A' for Active; 'I' for Inactive)
REMARK    1  A    between atoms: C_4  and  N_5 
REMARK    2  A    between atoms: C_6  and  O_7 
REMARK    3  A    between atoms: C_6  and  C_8 
REMARK       I    between atoms: C_8  and  N_9 
REMARK    4  A    between atoms: N_9  and  C_10 
REMARK    5  A    between atoms: C_10  and  C_11 
ROOT
HETATM    1  N   UNL     1      26.536  42.964  50.497  1.00  0.00    -0.254 N 
HETATM    2  C   UNL     1      25.580  44.084  50.480  1.00  0.00     0.256 C 
HETATM    3  C   UNL     1      24.413  43.830  49.552  1.00  0.00     0.035 A 
HETATM    4  C   UNL     1      24.643  43.030  48.438  1.00  0.00     0.048 A 
HETATM    5  N   UNL     1      25.897  42.445  48.294  1.00  0.00    -0.308 N 
HETATM    6  C   UNL     1      26.835  42.339  49.290  1.00  0.00     0.330 C 
HETATM    7  O   UNL     1      27.820  41.641  49.054  1.00  0.00    -0.246 OA
HETATM    8  C   UNL     1      23.156  44.438  49.701  1.00  0.00     0.034 A 
HETATM    9  C   UNL     1      22.162  44.227  48.746  1.00  0.00     0.011 A 
HETATM   10 BR   UNL     1      20.470  45.042  48.957  1.00  0.00    -0.051 Br
HETATM   11  C   UNL     1      22.409  43.429  47.630  1.00  0.00     0.021 A 
HETATM   12  C   UNL     1      23.660  42.831  47.470  1.00  0.00     0.031 A 
HETATM   13  H   UNL     1      26.096  41.864  47.486  1.00  0.00     0.170 HD
ENDROOT
BRANCH   2  14
HETATM   14  O   UNL     1      25.027  44.321  51.780  1.00  0.00    -0.359 OA
HETATM   15  H   UNL     1      25.566  45.055  52.141  1.00  0.00     0.213 HD
ENDBRANCH   2  14
BRANCH   2  16
HETATM   16  C   UNL     1      26.352  45.407  50.061  1.00  0.00     0.279 C 
HETATM   17  N   UNL     1      25.895  46.605  50.567  1.00  0.00    -0.352 N 
HETATM   18  H   UNL     1      25.097  46.622  51.191  1.00  0.00     0.162 HD
HETATM   19  O   UNL     1      27.321  45.356  49.295  1.00  0.00    -0.268 OA
BRANCH  17  20
HETATM   20  C   UNL     1      26.629  47.830  50.371  1.00  0.00     0.168 C 
BRANCH  20  21
HETATM   21  C   UNL     1      25.890  48.681  49.386  1.00  0.00     0.000 A 
HETATM   22  S   UNL     1      24.196  48.491  49.181  1.00  0.00    -0.105 SA
HETATM   23  C   UNL     1      24.136  49.721  47.995  1.00  0.00     0.050 A 
HETATM   24  C   UNL     1      25.376  50.269  47.757  1.00  0.00     0.008 A 
HETATM   25  C   UNL     1      26.390  49.669  48.558  1.00  0.00     0.017 A 
ENDBRANCH  20  21
ENDBRANCH  17  20
ENDBRANCH   2  16
BRANCH   1  26
HETATM   26  C   UNL     1      27.381  42.763  51.639  1.00  0.00     0.042 A 
HETATM   27  C   UNL     1      28.345  43.705  52.017  1.00  0.00     0.030 A 
HETATM   28  C   UNL     1      29.188  43.472  53.110  1.00  0.00     0.002 A 
HETATM   29  C   UNL     1      29.086  42.286  53.833  1.00  0.00     0.000 A 
HETATM   30  C   UNL     1      28.149  41.330  53.459  1.00  0.00     0.002 A 
HETATM   31  C   UNL     1      27.309  41.565  52.366  1.00  0.00     0.030 A 
ENDBRANCH   1  26
TORSDOF 5
ENDMDL
MODEL 5
REMARK VINA RESULT:      -7.7      3.665      6.328
REMARK  5 active torsions:
REMARK  status: ('A' for Active; 'I' for Inactive)
REMARK    1  A    between atoms: C_4  and  N_5 
REMARK    2  A    between atoms: C_6  and  O_7 
REMARK    3  A    between atoms: C_6  and  C_8 
REMARK       I    between atoms: C_8  and  N_9 
REMARK    4  A    between atoms: N_9  and  C_10 
REMARK    5  A    between atoms: C_10  and  C_11 
ROOT
HETATM    1  N   UNL     1      24.875  43.186  49.767  1.00  0.00    -0.254 N 
HETATM    2  C   UNL     1      26.017  42.379  49.305  1.00  0.00     0.256 C 
HETATM    3  C   UNL     1      25.669  41.524  48.105  1.00  0.00     0.035 A 
HETATM    4  C   UNL     1      24.353  41.089  47.991  1.00  0.00     0.048 A 
HETATM    5  N   UNL     1      23.427  41.534  48.927  1.00  0.00    -0.308 N 
HETATM    6  C   UNL     1      23.616  42.592  49.780  1.00  0.00     0.330 C 
HETATM    7  O   UNL     1      22.638  42.970  50.422  1.00  0.00    -0.246 OA
HETATM    8  C   UNL     1      26.618  41.070  47.175  1.00  0.00     0.034 A 
HETATM    9  C   UNL     1      26.231  40.205  46.152  1.00  0.00     0.011 A 
HETATM   10 BR   UNL     1      27.510  39.605  44.898  1.00  0.00    -0.051 Br
HETATM   11  C   UNL     1      24.910  39.770  46.053  1.00  0.00     0.021 A 
HETATM   12  C   UNL     1      23.966  40.208  46.981  1.00  0.00     0.031 A 
HETATM   13  H   UNL     1      22.463  41.225  48.873  1.00  0.00     0.170 HD
ENDROOT
BRANCH   2  14
HETATM   14  O   UNL     1      27.119  43.207  48.914  1.00  0.00    -0.359 OA
HETATM   15  H   UNL     1      26.886  44.094  49.257  1.00  0.00     0.213 HD
ENDBRANCH   2  14
BRANCH   2  16
HETATM   16  C   UNL     1      26.525  41.477  50.508  1.00  0.00     0.279 C 
HETATM   17  N   UNL     1      27.731  41.803  51.091  1.00  0.00    -0.352 N 
HETATM   18  H   UNL     1      28.259  42.600  50.756  1.00  0.00     0.162 HD
HETATM   19  O   UNL     1      25.863  40.507  50.893  1.00  0.00    -0.268 OA
BRANCH  17  20
HETATM   20  C   UNL     1      28.189  41.141  52.288  1.00  0.00     0.168 C 
BRANCH  20  21
HETATM   21  C   UNL     1      28.837  42.154  53.179  1.00  0.00     0.000 A 
HETATM   22  S   UNL     1      27.881  43.103  54.244  1.00  0.00    -0.105 SA
HETATM   23  C   UNL     1      29.254  43.922  54.850  1.00  0.00     0.050 A 
HETATM   24  C   UNL     1      30.418  43.486  54.260  1.00  0.00     0.008 A 
HETATM   25  C   UNL     1      30.178  42.465  53.294  1.00  0.00     0.017 A 
ENDBRANCH  20  21
ENDBRANCH  17  20
ENDBRANCH   2  16
BRANCH   1  26
HETATM   26  C   UNL     1      25.106  44.396  50.502  1.00  0.00     0.042 A 
HETATM   27  C   UNL     1      25.278  44.394  51.892  1.00  0.00     0.030 A 
HETATM   28  C   UNL     1      25.461  45.589  52.595  1.00  0.00     0.002 A 
HETATM   29  C   UNL     1      25.463  46.807  51.920  1.00  0.00     0.000 A 
HETATM   30  C   UNL     1      25.273  46.830  50.542  1.00  0.00     0.002 A 
HETATM   31  C   UNL     1      25.089  45.635  49.842  1.00  0.00     0.030 A 
ENDBRANCH   1  26
TORSDOF 5
ENDMDL
MODEL 6
REMARK VINA RESULT:      -7.6      4.754      6.740
REMARK  5 active torsions:
REMARK  status: ('A' for Active; 'I' for Inactive)
REMARK    1  A    between atoms: C_4  and  N_5 
REMARK    2  A    between atoms: C_6  and  O_7 
REMARK    3  A    between atoms: C_6  and  C_8 
REMARK       I    between atoms: C_8  and  N_9 
REMARK    4  A    between atoms: N_9  and  C_10 
REMARK    5  A    between atoms: C_10  and  C_11 
ROOT
HETATM    1  N   UNL     1      22.142  49.934  49.003  1.00  0.00    -0.254 N 
HETATM    2  C   UNL     1      21.156  49.358  48.074  1.00  0.00     0.256 C 
HETATM    3  C   UNL     1      20.083  50.351  47.686  1.00  0.00     0.035 A 
HETATM    4  C   UNL     1      19.747  51.327  48.618  1.00  0.00     0.048 A 
HETATM    5  N   UNL     1      20.473  51.386  49.803  1.00  0.00    -0.308 N 
HETATM    6  C   UNL     1      21.678  50.766  50.018  1.00  0.00     0.330 C 
HETATM    7  O   UNL     1      22.277  51.058  51.053  1.00  0.00    -0.246 OA
HETATM    8  C   UNL     1      19.348  50.272  46.492  1.00  0.00     0.034 A 
HETATM    9  C   UNL     1      18.308  51.169  46.254  1.00  0.00     0.011 A 
HETATM   10 BR   UNL     1      17.328  51.063  44.642  1.00  0.00    -0.051 Br
HETATM   11  C   UNL     1      17.977  52.139  47.200  1.00  0.00     0.021 A 
HETATM   12  C   UNL     1      18.696  52.215  48.393  1.00  0.00     0.031 A 
HETATM   13  H   UNL     1      20.244  52.082  50.504  1.00  0.00     0.170 HD
ENDROOT
BRANCH   2  14
HETATM   14  O   UNL     1      21.774  48.924  46.857  1.00  0.00    -0.359 OA
HETATM   15  H   UNL     1      21.393  49.510  46.172  1.00  0.00     0.213 HD
ENDBRANCH   2  14
BRANCH   2  16
HETATM   16  C   UNL     1      20.513  48.071  48.747  1.00  0.00     0.279 C 
HETATM   17  N   UNL     1      20.799  46.844  48.187  1.00  0.00    -0.352 N 
HETATM   18  H   UNL     1      21.406  46.782  47.380  1.00  0.00     0.162 HD
HETATM   19  O   UNL     1      19.771  48.177  49.729  1.00  0.00    -0.268 OA
BRANCH  17  20
HETATM   20  C   UNL     1      20.392  45.617  48.826  1.00  0.00     0.168 C 
BRANCH  20  21
HETATM   21  C   UNL     1      21.485  44.607  48.667  1.00  0.00     0.000 A 
HETATM   22  S   UNL     1      21.809  43.921  47.127  1.00  0.00    -0.105 SA
HETATM   23  C   UNL     1      23.082  42.964  47.749  1.00  0.00     0.050 A 
HETATM   24  C   UNL     1      23.262  43.159  49.099  1.00  0.00     0.008 A 
HETATM   25  C   UNL     1      22.340  44.107  49.631  1.00  0.00     0.017 A 
ENDBRANCH  20  21
ENDBRANCH  17  20
ENDBRANCH   2  16
BRANCH   1  26
HETATM   26  C   UNL     1      23.465  49.382  49.075  1.00  0.00     0.042 A 
HETATM   27  C   UNL     1      23.732  48.197  49.773  1.00  0.00     0.030 A 
HETATM   28  C   UNL     1      25.035  47.697  49.866  1.00  0.00     0.002 A 
HETATM   29  C   UNL     1      26.093  48.381  49.273  1.00  0.00     0.000 A 
HETATM   30  C   UNL     1      25.850  49.570  48.594  1.00  0.00     0.002 A 
HETATM   31  C   UNL     1      24.547  50.069  48.503  1.00  0.00     0.030 A 
ENDBRANCH   1  26
TORSDOF 5
ENDMDL
MODEL 7
REMARK VINA RESULT:      -7.5     11.237     13.188
REMARK  5 active torsions:
REMARK  status: ('A' for Active; 'I' for Inactive)
REMARK    1  A    between atoms: C_4  and  N_5 
REMARK    2  A    between atoms: C_6  and  O_7 
REMARK    3  A    between atoms: C_6  and  C_8 
REMARK       I    between atoms: C_8  and  N_9 
REMARK    4  A    between atoms: N_9  and  C_10 
REMARK    5  A    between atoms: C_10  and  C_11 
ROOT
HETATM    1  N   UNL     1      27.924  49.682  39.210  1.00  0.00    -0.254 N 
HETATM    2  C   UNL     1      28.915  48.593  39.171  1.00  0.00     0.256 C 
HETATM    3  C   UNL     1      28.369  47.342  38.520  1.00  0.00     0.035 A 
HETATM    4  C   UNL     1      27.003  47.103  38.636  1.00  0.00     0.048 A 
HETATM    5  N   UNL     1      26.217  48.065  39.261  1.00  0.00    -0.308 N 
HETATM    6  C   UNL     1      26.605  49.357  39.513  1.00  0.00     0.330 C 
HETATM    7  O   UNL     1      25.736  50.131  39.911  1.00  0.00    -0.246 OA
HETATM    8  C   UNL     1      29.176  46.372  37.904  1.00  0.00     0.034 A 
HETATM    9  C   UNL     1      28.604  45.199  37.413  1.00  0.00     0.011 A 
HETATM   10 BR   UNL     1      29.694  43.901  36.578  1.00  0.00    -0.051 Br
HETATM   11  C   UNL     1      27.235  44.969  37.544  1.00  0.00     0.021 A 
HETATM   12  C   UNL     1      26.429  45.923  38.165  1.00  0.00     0.031 A 
HETATM   13  H   UNL     1      25.220  47.913  39.369  1.00  0.00     0.170 HD
ENDROOT
BRANCH   2  14
HETATM   14  O   UNL     1      30.078  48.970  38.425  1.00  0.00    -0.359 OA
HETATM   15  H   UNL     1      30.823  48.793  39.035  1.00  0.00     0.213 HD
ENDBRANCH   2  14
BRANCH   2  16
HETATM   16  C   UNL     1      29.397  48.290  40.653  1.00  0.00     0.279 C 
HETATM   17  N   UNL     1      30.610  48.809  41.052  1.00  0.00    -0.352 N 
HETATM   18  H   UNL     1      31.159  49.371  40.412  1.00  0.00     0.162 HD
HETATM   19  O   UNL     1      28.710  47.598  41.411  1.00  0.00    -0.268 OA
BRANCH  17  20
HETATM   20  C   UNL     1      31.049  48.721  42.423  1.00  0.00     0.168 C 
BRANCH  20  21
HETATM   21  C   UNL     1      32.105  49.754  42.658  1.00  0.00     0.000 A 
HETATM   22  S   UNL     1      33.525  49.772  41.692  1.00  0.00    -0.105 SA
HETATM   23  C   UNL     1      34.149  51.132  42.520  1.00  0.00     0.050 A 
HETATM   24  C   UNL     1      33.299  51.569  43.510  1.00  0.00     0.008 A 
HETATM   25  C   UNL     1      32.119  50.773  43.591  1.00  0.00     0.017 A 
ENDBRANCH  20  21
ENDBRANCH  17  20
ENDBRANCH   2  16
BRANCH   1  26
HETATM   26  C   UNL     1      28.363  51.046  39.285  1.00  0.00     0.042 A 
HETATM   27  C   UNL     1      28.663  51.657  40.509  1.00  0.00     0.030 A 
HETATM   28  C   UNL     1      29.050  53.001  40.564  1.00  0.00     0.002 A 
HETATM   29  C   UNL     1      29.132  53.756  39.397  1.00  0.00     0.000 A 
HETATM   30  C   UNL     1      28.818  53.171  38.175  1.00  0.00     0.002 A 
HETATM   31  C   UNL     1      28.429  51.829  38.122  1.00  0.00     0.030 A 
ENDBRANCH   1  26
TORSDOF 5
ENDMDL
MODEL 8
REMARK VINA RESULT:      -7.3     10.453     12.898
REMARK  5 active torsions:
REMARK  status: ('A' for Active; 'I' for Inactive)
REMARK    1  A    between atoms: C_4  and  N_5 
REMARK    2  A    between atoms: C_6  and  O_7 
REMARK    3  A    between atoms: C_6  and  C_8 
REMARK       I    between atoms: C_8  and  N_9 
REMARK    4  A    between atoms: N_9  and  C_10 
REMARK    5  A    between atoms: C_10  and  C_11 
ROOT
HETATM    1  N   UNL     1      28.594  49.099  39.923  1.00  0.00    -0.254 N 
HETATM    2  C   UNL     1      27.310  48.504  40.330  1.00  0.00     0.256 C 
HETATM    3  C   UNL     1      27.403  47.005  40.515  1.00  0.00     0.035 A 
HETATM    4  C   UNL     1      28.328  46.320  39.734  1.00  0.00     0.048 A 
HETATM    5  N   UNL     1      29.164  47.057  38.903  1.00  0.00    -0.308 N 
HETATM    6  C   UNL     1      29.370  48.411  38.994  1.00  0.00     0.330 C 
HETATM    7  O   UNL     1      30.271  48.884  38.303  1.00  0.00    -0.246 OA
HETATM    8  C   UNL     1      26.542  46.272  41.348  1.00  0.00     0.034 A 
HETATM    9  C   UNL     1      26.631  44.881  41.388  1.00  0.00     0.011 A 
HETATM   10 BR   UNL     1      25.476  43.900  42.517  1.00  0.00    -0.051 Br
HETATM   11  C   UNL     1      27.558  44.206  40.594  1.00  0.00     0.021 A 
HETATM   12  C   UNL     1      28.407  44.928  39.757  1.00  0.00     0.031 A 
HETATM   13  H   UNL     1      29.841  46.583  38.316  1.00  0.00     0.170 HD
ENDROOT
BRANCH   2  14
HETATM   14  O   UNL     1      26.853  49.045  41.575  1.00  0.00    -0.359 OA
HETATM   15  H   UNL     1      27.671  49.348  42.019  1.00  0.00     0.213 HD
ENDBRANCH   2  14
BRANCH   2  16
HETATM   16  C   UNL     1      26.213  48.867  39.241  1.00  0.00     0.279 C 
HETATM   17  N   UNL     1      25.003  49.354  39.687  1.00  0.00    -0.352 N 
HETATM   18  H   UNL     1      24.838  49.478  40.678  1.00  0.00     0.162 HD
HETATM   19  O   UNL     1      26.439  48.702  38.037  1.00  0.00    -0.268 OA
BRANCH  17  20
HETATM   20  C   UNL     1      24.013  49.860  38.767  1.00  0.00     0.168 C 
BRANCH  20  21
HETATM   21  C   UNL     1      22.710  49.994  39.490  1.00  0.00     0.000 A 
HETATM   22  S   UNL     1      21.930  48.605  40.130  1.00  0.00    -0.105 SA
HETATM   23  C   UNL     1      20.634  49.535  40.744  1.00  0.00     0.050 A 
HETATM   24  C   UNL     1      20.786  50.876  40.472  1.00  0.00     0.008 A 
HETATM   25  C   UNL     1      21.984  51.142  39.747  1.00  0.00     0.017 A 
ENDBRANCH  20  21
ENDBRANCH  17  20
ENDBRANCH   2  16
BRANCH   1  26
HETATM   26  C   UNL     1      28.862  50.481  40.199  1.00  0.00     0.042 A 
HETATM   27  C   UNL     1      28.439  51.500  39.336  1.00  0.00     0.030 A 
HETATM   28  C   UNL     1      28.745  52.839  39.601  1.00  0.00     0.002 A 
HETATM   29  C   UNL     1      29.489  53.178  40.729  1.00  0.00     0.000 A 
HETATM   30  C   UNL     1      29.935  52.178  41.586  1.00  0.00     0.002 A 
HETATM   31  C   UNL     1      29.629  50.840  41.318  1.00  0.00     0.030 A 
ENDBRANCH   1  26
TORSDOF 5
ENDMDL
MODEL 9
REMARK VINA RESULT:      -7.3      8.866     12.829
REMARK  5 active torsions:
REMARK  status: ('A' for Active; 'I' for Inactive)
REMARK    1  A    between atoms: C_4  and  N_5 
REMARK    2  A    between atoms: C_6  and  O_7 
REMARK    3  A    between atoms: C_6  and  C_8 
REMARK       I    between atoms: C_8  and  N_9 
REMARK    4  A    between atoms: N_9  and  C_10 
REMARK    5  A    between atoms: C_10  and  C_11 
ROOT
HETATM    1  N   UNL     1      16.964  51.460  46.884  1.00  0.00    -0.254 N 
HETATM    2  C   UNL     1      17.992  51.918  47.834  1.00  0.00     0.256 C 
HETATM    3  C   UNL     1      19.129  50.930  47.971  1.00  0.00     0.035 A 
HETATM    4  C   UNL     1      18.833  49.584  47.785  1.00  0.00     0.048 A 
HETATM    5  N   UNL     1      17.542  49.239  47.400  1.00  0.00    -0.308 N 
HETATM    6  C   UNL     1      16.610  50.114  46.900  1.00  0.00     0.330 C 
HETATM    7  O   UNL     1      15.578  49.625  46.442  1.00  0.00    -0.246 OA
HETATM    8  C   UNL     1      20.425  51.290  48.374  1.00  0.00     0.034 A 
HETATM    9  C   UNL     1      21.392  50.305  48.571  1.00  0.00     0.011 A 
HETATM   10 BR   UNL     1      23.137  50.796  49.105  1.00  0.00    -0.051 Br
HETATM   11  C   UNL     1      21.079  48.958  48.388  1.00  0.00     0.021 A 
HETATM   12  C   UNL     1      19.790  48.593  47.999  1.00  0.00     0.031 A 
HETATM   13  H   UNL     1      17.296  48.265  47.266  1.00  0.00     0.170 HD
ENDROOT
BRANCH   2  14
HETATM   14  O   UNL     1      18.573  53.159  47.417  1.00  0.00    -0.359 OA
HETATM   15  H   UNL     1      17.916  53.537  46.798  1.00  0.00     0.213 HD
ENDBRANCH   2  14
BRANCH   2  16
HETATM   16  C   UNL     1      17.305  52.182  49.241  1.00  0.00     0.279 C 
HETATM   17  N   UNL     1      16.753  53.426  49.462  1.00  0.00    -0.352 N 
HETATM   18  H   UNL     1      16.785  54.133  48.739  1.00  0.00     0.162 HD
HETATM   19  O   UNL     1      17.283  51.301  50.107  1.00  0.00    -0.268 OA
BRANCH  17  20
HETATM   20  C   UNL     1      15.971  53.699  50.643  1.00  0.00     0.168 C 
BRANCH  20  21
HETATM   21  C   UNL     1      14.634  54.224  50.223  1.00  0.00     0.000 A 
HETATM   22  S   UNL     1      14.498  55.797  49.548  1.00  0.00    -0.105 SA
HETATM   23  C   UNL     1      12.807  55.638  49.352  1.00  0.00     0.050 A 
HETATM   24  C   UNL     1      12.350  54.415  49.788  1.00  0.00     0.008 A 
HETATM   25  C   UNL     1      13.404  53.598  50.292  1.00  0.00     0.017 A 
ENDBRANCH  20  21
ENDBRANCH  17  20
ENDBRANCH   2  16
BRANCH   1  26
HETATM   26  C   UNL     1      16.120  52.417  46.228  1.00  0.00     0.042 A 
HETATM   27  C   UNL     1      14.922  52.860  46.803  1.00  0.00     0.030 A 
HETATM   28  C   UNL     1      14.091  53.762  46.129  1.00  0.00     0.002 A 
HETATM   29  C   UNL     1      14.442  54.226  44.863  1.00  0.00     0.000 A 
HETATM   30  C   UNL     1      15.617  53.781  44.268  1.00  0.00     0.002 A 
HETATM   31  C   UNL     1      16.444  52.878  44.943  1.00  0.00     0.030 A 
ENDBRANCH   1  26
TORSDOF 5
ENDMDL
MODEL 10
REMARK VINA RESULT:      -7.2      4.652      6.848
REMARK  5 active torsions:
REMARK  status: ('A' for Active; 'I' for Inactive)
REMARK    1  A    between atoms: C_4  and  N_5 
REMARK    2  A    between atoms: C_6  and  O_7 
REMARK    3  A    between atoms: C_6  and  C_8 
REMARK       I    between atoms: C_8  and  N_9 
REMARK    4  A    between atoms: N_9  and  C_10 
REMARK    5  A    between atoms: C_10  and  C_11 
ROOT
HETATM    1  N   UNL     1      21.045  47.339  48.114  1.00  0.00    -0.254 N 
HETATM    2  C   UNL     1      21.207  46.090  47.350  1.00  0.00     0.256 C 
HETATM    3  C   UNL     1      19.896  45.587  46.785  1.00  0.00     0.035 A 
HETATM    4  C   UNL     1      18.738  45.881  47.497  1.00  0.00     0.048 A 
HETATM    5  N   UNL     1      18.844  46.687  48.626  1.00  0.00    -0.308 N 
HETATM    6  C   UNL     1      19.932  47.462  48.940  1.00  0.00     0.330 C 
HETATM    7  O   UNL     1      19.801  48.250  49.876  1.00  0.00    -0.246 OA
HETATM    8  C   UNL     1      19.805  44.763  45.652  1.00  0.00     0.034 A 
HETATM    9  C   UNL     1      18.567  44.262  45.253  1.00  0.00     0.011 A 
HETATM   10 BR   UNL     1      18.449  43.160  43.723  1.00  0.00    -0.051 Br
HETATM   11  C   UNL     1      17.414  44.559  45.981  1.00  0.00     0.021 A 
HETATM   12  C   UNL     1      17.500  45.367  47.114  1.00  0.00     0.031 A 
HETATM   13  H   UNL     1      18.017  46.909  49.169  1.00  0.00     0.170 HD
ENDROOT
BRANCH   2  14
HETATM   14  O   UNL     1      22.093  46.267  46.239  1.00  0.00    -0.359 OA
HETATM   15  H   UNL     1      22.481  47.155  46.380  1.00  0.00     0.213 HD
ENDBRANCH   2  14
BRANCH   2  16
HETATM   16  C   UNL     1      21.867  44.997  48.294  1.00  0.00     0.279 C 
HETATM   17  N   UNL     1      23.169  44.627  48.035  1.00  0.00    -0.352 N 
HETATM   18  H   UNL     1      23.677  45.054  47.270  1.00  0.00     0.162 HD
HETATM   19  O   UNL     1      21.222  44.489  49.219  1.00  0.00    -0.268 OA
BRANCH  17  20
HETATM   20  C   UNL     1      23.897  43.766  48.935  1.00  0.00     0.168 C 
BRANCH  20  21
HETATM   21  C   UNL     1      24.600  44.613  49.948  1.00  0.00     0.000 A 
HETATM   22  S   UNL     1      26.120  45.321  49.575  1.00  0.00    -0.105 SA
HETATM   23  C   UNL     1      26.223  46.063  51.112  1.00  0.00     0.050 A 
HETATM   24  C   UNL     1      25.127  45.783  51.896  1.00  0.00     0.008 A 
HETATM   25  C   UNL     1      24.190  44.945  51.225  1.00  0.00     0.017 A 
ENDBRANCH  20  21
ENDBRANCH  17  20
ENDBRANCH   2  16
BRANCH   1  26
HETATM   26  C   UNL     1      22.158  48.230  48.271  1.00  0.00     0.042 A 
HETATM   27  C   UNL     1      23.245  47.914  49.097  1.00  0.00     0.030 A 
HETATM   28  C   UNL     1      24.302  48.814  49.269  1.00  0.00     0.002 A 
HETATM   29  C   UNL     1      24.282  50.050  48.627  1.00  0.00     0.000 A 
HETATM   30  C   UNL     1      23.202  50.389  47.820  1.00  0.00     0.002 A 
HETATM   31  C   UNL     1      22.146  49.488  47.651  1.00  0.00     0.030 A 
ENDBRANCH   1  26
TORSDOF 5
ENDMDL
