MODEL 1
REMARK VINA RESULT:      -8.0      0.000      0.000
REMARK  10 active torsions:
REMARK  status: ('A' for Active; 'I' for Inactive)
REMARK    1  A    between atoms: C_2  and  C_3 
REMARK    2  A    between atoms: C_3  and  N_4 
REMARK    3  A    between atoms: C_10  and  C_11 
REMARK    4  A    between atoms: C_11  and  C_12 
REMARK    5  A    between atoms: C_12  and  S_13 
REMARK    6  A    between atoms: S_13  and  C_14 
REMARK    7  A    between atoms: N_15  and  C_16 
REMARK    8  A    between atoms: C_23  and  C_24 
REMARK    9  A    between atoms: C_24  and  N_25 
REMARK   10  A    between atoms: C_33  and  N_34 
ROOT
HETATM    1  S   UNL     1      24.101  45.198  49.034  1.00  0.00    -0.082 SA
ENDROOT
BRANCH   1   2
HETATM    2  C   UNL     1      25.489  45.334  50.210  1.00  0.00     0.166 C 
BRANCH   2   3
HETATM    3  C   UNL     1      25.027  44.871  51.585  1.00  0.00     0.177 C 
HETATM    4  O   UNL     1      23.913  44.344  51.729  1.00  0.00    -0.291 OA
BRANCH   3   5
HETATM    5  C   UNL     1      25.917  45.087  52.775  1.00  0.00     0.117 C 
HETATM    6  C   UNL     1      26.007  46.415  53.418  1.00  0.00     0.266 C 
HETATM    7  N   UNL     1      26.635  46.470  54.617  1.00  0.00    -0.274 N 
HETATM    8  O   UNL     1      25.572  47.426  52.876  1.00  0.00    -0.267 OA
HETATM    9  C   UNL     1      27.533  45.542  55.040  1.00  0.00     0.330 C 
HETATM   10  H   UNL     1      26.727  47.380  55.047  1.00  0.00     0.173 HD
HETATM   11  N   UNL     1      27.533  44.334  54.349  1.00  0.00    -0.289 N 
HETATM   12  O   UNL     1      28.297  45.817  55.960  1.00  0.00    -0.246 OA
HETATM   13  C   UNL     1      26.709  44.089  53.244  1.00  0.00     0.103 C 
BRANCH  11  14
HETATM   14  C   UNL     1      28.490  43.325  54.823  1.00  0.00     0.135 C 
BRANCH  14  15
HETATM   15  C   UNL     1      29.900  43.608  54.295  1.00  0.00     0.016 C 
HETATM   16  C   UNL     1      30.256  42.701  53.129  1.00  0.00     0.006 C 
ENDBRANCH  14  15
ENDBRANCH  11  14
BRANCH  13  17
HETATM   17  N   UNL     1      26.726  42.832  52.647  1.00  0.00    -0.287 NA
HETATM   18  H   UNL     1      27.524  42.705  52.017  1.00  0.00     0.125 HD
HETATM   19  H   UNL     1      26.694  42.074  53.322  1.00  0.00     0.125 HD
ENDBRANCH  13  17
ENDBRANCH   3   5
ENDBRANCH   2   3
ENDBRANCH   1   2
BRANCH   1  20
HETATM   20  C   UNL     1      23.395  46.770  49.217  1.00  0.00     0.196 A 
HETATM   21  N   UNL     1      22.240  47.221  48.596  1.00  0.00    -0.274 N 
HETATM   22  C   UNL     1      22.212  48.577  48.921  1.00  0.00     0.166 A 
HETATM   23  N   UNL     1      23.257  48.883  49.666  1.00  0.00    -0.131 NA
HETATM   24  N   UNL     1      23.989  47.754  49.853  1.00  0.00    -0.122 NA
BRANCH  21  25
HETATM   25  C   UNL     1      21.246  46.486  47.890  1.00  0.00     0.043 A 
HETATM   26  C   UNL     1      21.292  46.401  46.492  1.00  0.00     0.032 A 
HETATM   27  C   UNL     1      20.341  45.646  45.798  1.00  0.00     0.026 A 
HETATM   28  C   UNL     1      19.339  44.978  46.495  1.00  0.00     0.034 A 
HETATM   29 CL   UNL     1      18.179  44.041  45.643  1.00  0.00    -0.084 Cl
HETATM   30  C   UNL     1      19.277  45.065  47.883  1.00  0.00     0.026 A 
HETATM   31  C   UNL     1      20.228  45.818  48.583  1.00  0.00     0.032 A 
ENDBRANCH  21  25
BRANCH  22  32
HETATM   32  C   UNL     1      21.098  49.551  48.692  1.00  0.00     0.254 C 
HETATM   33  C   UNL     1      21.694  50.875  48.193  1.00  0.00     0.049 C 
BRANCH  32  34
HETATM   34  N   UNL     1      20.347  49.798  50.022  1.00  0.00    -0.068 N 
HETATM   35  H   UNL     1      21.021  49.508  50.751  1.00  0.00     0.279 HD
HETATM   36  C   UNL     1      19.956  51.220  50.292  1.00  0.00     0.270 C 
HETATM   37  C   UNL     1      19.160  48.880  50.185  1.00  0.00     0.270 C 
ENDBRANCH  32  34
ENDBRANCH  22  32
ENDBRANCH   1  20
TORSDOF 10
ENDMDL
MODEL 2
REMARK VINA RESULT:      -8.0      4.295      9.642
REMARK  10 active torsions:
REMARK  status: ('A' for Active; 'I' for Inactive)
REMARK    1  A    between atoms: C_2  and  C_3 
REMARK    2  A    between atoms: C_3  and  N_4 
REMARK    3  A    between atoms: C_10  and  C_11 
REMARK    4  A    between atoms: C_11  and  C_12 
REMARK    5  A    between atoms: C_12  and  S_13 
REMARK    6  A    between atoms: S_13  and  C_14 
REMARK    7  A    between atoms: N_15  and  C_16 
REMARK    8  A    between atoms: C_23  and  C_24 
REMARK    9  A    between atoms: C_24  and  N_25 
REMARK   10  A    between atoms: C_33  and  N_34 
ROOT
HETATM    1  S   UNL     1      24.668  43.264  50.769  1.00  0.00    -0.082 SA
ENDROOT
BRANCH   1   2
HETATM    2  C   UNL     1      25.193  44.690  49.761  1.00  0.00     0.166 C 
BRANCH   2   3
HETATM    3  C   UNL     1      24.825  45.978  50.484  1.00  0.00     0.177 C 
HETATM    4  O   UNL     1      24.651  45.981  51.713  1.00  0.00    -0.291 OA
BRANCH   3   5
HETATM    5  C   UNL     1      24.640  47.243  49.695  1.00  0.00     0.117 C 
HETATM    6  C   UNL     1      25.748  48.212  49.557  1.00  0.00     0.266 C 
HETATM    7  N   UNL     1      25.583  49.197  48.642  1.00  0.00    -0.274 N 
HETATM    8  O   UNL     1      26.749  48.154  50.263  1.00  0.00    -0.267 OA
HETATM    9  C   UNL     1      24.371  49.610  48.190  1.00  0.00     0.330 C 
HETATM   10  H   UNL     1      26.324  49.882  48.565  1.00  0.00     0.173 HD
HETATM   11  N   UNL     1      23.304  48.751  48.434  1.00  0.00    -0.289 N 
HETATM   12  O   UNL     1      24.274  50.701  47.634  1.00  0.00    -0.246 OA
HETATM   13  C   UNL     1      23.437  47.557  49.152  1.00  0.00     0.103 C 
BRANCH  11  14
HETATM   14  C   UNL     1      21.998  49.191  47.924  1.00  0.00     0.135 C 
BRANCH  14  15
HETATM   15  C   UNL     1      21.236  50.000  48.978  1.00  0.00     0.016 C 
HETATM   16  C   UNL     1      20.807  51.357  48.444  1.00  0.00     0.006 C 
ENDBRANCH  14  15
ENDBRANCH  11  14
BRANCH  13  17
HETATM   17  N   UNL     1      22.332  46.724  49.299  1.00  0.00    -0.287 NA
HETATM   18  H   UNL     1      21.449  47.198  49.085  1.00  0.00     0.125 HD
HETATM   19  H   UNL     1      22.407  45.870  48.754  1.00  0.00     0.125 HD
ENDBRANCH  13  17
ENDBRANCH   3   5
ENDBRANCH   2   3
ENDBRANCH   1   2
BRANCH   1  20
HETATM   20  C   UNL     1      25.566  42.000  49.995  1.00  0.00     0.196 A 
HETATM   21  N   UNL     1      26.865  41.622  50.297  1.00  0.00    -0.274 N 
HETATM   22  C   UNL     1      27.175  40.713  49.286  1.00  0.00     0.166 A 
HETATM   23  N   UNL     1      26.147  40.575  48.472  1.00  0.00    -0.131 NA
HETATM   24  N   UNL     1      25.143  41.375  48.920  1.00  0.00    -0.122 NA
BRANCH  21  25
HETATM   25  C   UNL     1      27.671  41.969  51.418  1.00  0.00     0.043 A 
HETATM   26  C   UNL     1      28.321  43.210  51.463  1.00  0.00     0.032 A 
HETATM   27  C   UNL     1      29.080  43.571  52.580  1.00  0.00     0.026 A 
HETATM   28  C   UNL     1      29.198  42.694  53.654  1.00  0.00     0.034 A 
HETATM   29 CL   UNL     1      30.121  43.144  55.031  1.00  0.00    -0.084 Cl
HETATM   30  C   UNL     1      28.567  41.454  53.615  1.00  0.00     0.026 A 
HETATM   31  C   UNL     1      27.805  41.088  52.499  1.00  0.00     0.032 A 
ENDBRANCH  21  25
BRANCH  22  32
HETATM   32  C   UNL     1      28.377  39.823  49.191  1.00  0.00     0.254 C 
HETATM   33  C   UNL     1      28.495  39.304  47.752  1.00  0.00     0.049 C 
BRANCH  32  34
HETATM   34  N   UNL     1      28.207  38.624  50.154  1.00  0.00    -0.068 N 
HETATM   35  H   UNL     1      27.667  39.010  50.947  1.00  0.00     0.279 HD
HETATM   36  C   UNL     1      27.451  37.452  49.605  1.00  0.00     0.270 C 
HETATM   37  C   UNL     1      29.522  38.178  50.747  1.00  0.00     0.270 C 
ENDBRANCH  32  34
ENDBRANCH  22  32
ENDBRANCH   1  20
TORSDOF 10
ENDMDL
MODEL 3
REMARK VINA RESULT:      -7.7     11.905     13.241
REMARK  10 active torsions:
REMARK  status: ('A' for Active; 'I' for Inactive)
REMARK    1  A    between atoms: C_2  and  C_3 
REMARK    2  A    between atoms: C_3  and  N_4 
REMARK    3  A    between atoms: C_10  and  C_11 
REMARK    4  A    between atoms: C_11  and  C_12 
REMARK    5  A    between atoms: C_12  and  S_13 
REMARK    6  A    between atoms: S_13  and  C_14 
REMARK    7  A    between atoms: N_15  and  C_16 
REMARK    8  A    between atoms: C_23  and  C_24 
REMARK    9  A    between atoms: C_24  and  N_25 
REMARK   10  A    between atoms: C_33  and  N_34 
ROOT
HETATM    1  S   UNL     1      28.687  47.804  41.363  1.00  0.00    -0.082 SA
ENDROOT
BRANCH   1   2
HETATM    2  C   UNL     1      29.811  47.234  40.044  1.00  0.00     0.166 C 
BRANCH   2   3
HETATM    3  C   UNL     1      31.229  47.682  40.368  1.00  0.00     0.177 C 
HETATM    4  O   UNL     1      32.138  46.848  40.498  1.00  0.00    -0.291 OA
BRANCH   3   5
HETATM    5  C   UNL     1      31.517  49.144  40.561  1.00  0.00     0.117 C 
HETATM    6  C   UNL     1      31.359  50.096  39.442  1.00  0.00     0.266 C 
HETATM    7  N   UNL     1      31.402  51.414  39.753  1.00  0.00    -0.274 N 
HETATM    8  O   UNL     1      31.237  49.717  38.282  1.00  0.00    -0.267 OA
HETATM    9  C   UNL     1      31.994  51.904  40.873  1.00  0.00     0.330 C 
HETATM   10  H   UNL     1      31.327  52.071  38.988  1.00  0.00     0.173 HD
HETATM   11  N   UNL     1      32.257  50.979  41.878  1.00  0.00    -0.289 N 
HETATM   12  O   UNL     1      32.288  53.095  40.929  1.00  0.00    -0.246 OA
HETATM   13  C   UNL     1      31.992  49.612  41.744  1.00  0.00     0.103 C 
BRANCH  11  14
HETATM   14  C   UNL     1      32.878  51.517  43.097  1.00  0.00     0.135 C 
BRANCH  14  15
HETATM   15  C   UNL     1      34.407  51.491  42.998  1.00  0.00     0.016 C 
HETATM   16  C   UNL     1      35.059  52.227  44.156  1.00  0.00     0.006 C 
ENDBRANCH  14  15
ENDBRANCH  11  14
BRANCH  13  17
HETATM   17  N   UNL     1      32.227  48.762  42.820  1.00  0.00    -0.287 NA
HETATM   18  H   UNL     1      33.184  48.837  43.181  1.00  0.00     0.125 HD
HETATM   19  H   UNL     1      31.562  48.890  43.576  1.00  0.00     0.125 HD
ENDBRANCH  13  17
ENDBRANCH   3   5
ENDBRANCH   2   3
ENDBRANCH   1   2
BRANCH   1  20
HETATM   20  C   UNL     1      27.231  48.018  40.446  1.00  0.00     0.196 A 
HETATM   21  N   UNL     1      26.739  49.223  39.970  1.00  0.00    -0.274 N 
HETATM   22  C   UNL     1      25.480  48.880  39.477  1.00  0.00     0.166 A 
HETATM   23  N   UNL     1      25.264  47.590  39.649  1.00  0.00    -0.131 NA
HETATM   24  N   UNL     1      26.360  47.055  40.249  1.00  0.00    -0.122 NA
BRANCH  21  25
HETATM   25  C   UNL     1      27.378  50.492  39.887  1.00  0.00     0.043 A 
HETATM   26  C   UNL     1      27.796  50.992  38.646  1.00  0.00     0.032 A 
HETATM   27  C   UNL     1      28.387  52.256  38.556  1.00  0.00     0.026 A 
HETATM   28  C   UNL     1      28.567  53.024  39.702  1.00  0.00     0.034 A 
HETATM   29 CL   UNL     1      29.282  54.582  39.588  1.00  0.00    -0.084 Cl
HETATM   30  C   UNL     1      28.166  52.533  40.941  1.00  0.00     0.026 A 
HETATM   31  C   UNL     1      27.573  51.268  41.038  1.00  0.00     0.032 A 
ENDBRANCH  21  25
BRANCH  22  32
HETATM   32  C   UNL     1      24.551  49.730  38.665  1.00  0.00     0.254 C 
HETATM   33  C   UNL     1      23.134  49.603  39.240  1.00  0.00     0.049 C 
BRANCH  32  34
HETATM   34  N   UNL     1      24.553  49.239  37.198  1.00  0.00    -0.068 N 
HETATM   35  H   UNL     1      24.379  50.095  36.643  1.00  0.00     0.279 HD
HETATM   36  C   UNL     1      25.836  48.630  36.718  1.00  0.00     0.270 C 
HETATM   37  C   UNL     1      23.387  48.327  36.900  1.00  0.00     0.270 C 
ENDBRANCH  32  34
ENDBRANCH  22  32
ENDBRANCH   1  20
TORSDOF 10
ENDMDL
MODEL 4
REMARK VINA RESULT:      -7.6      1.346      2.186
REMARK  10 active torsions:
REMARK  status: ('A' for Active; 'I' for Inactive)
REMARK    1  A    between atoms: C_2  and  C_3 
REMARK    2  A    between atoms: C_3  and  N_4 
REMARK    3  A    between atoms: C_10  and  C_11 
REMARK    4  A    between atoms: C_11  and  C_12 
REMARK    5  A    between atoms: C_12  and  S_13 
REMARK    6  A    between atoms: S_13  and  C_14 
REMARK    7  A    between atoms: N_15  and  C_16 
REMARK    8  A    between atoms: C_23  and  C_24 
REMARK    9  A    between atoms: C_24  and  N_25 
REMARK   10  A    between atoms: C_33  and  N_34 
ROOT
HETATM    1  S   UNL     1      24.267  45.598  49.201  1.00  0.00    -0.082 SA
ENDROOT
BRANCH   1   2
HETATM    2  C   UNL     1      25.666  45.883  50.335  1.00  0.00     0.166 C 
BRANCH   2   3
HETATM    3  C   UNL     1      25.516  44.979  51.551  1.00  0.00     0.177 C 
HETATM    4  O   UNL     1      24.392  44.608  51.923  1.00  0.00    -0.291 OA
BRANCH   3   5
HETATM    5  C   UNL     1      26.739  44.564  52.320  1.00  0.00     0.117 C 
HETATM    6  C   UNL     1      27.697  43.597  51.744  1.00  0.00     0.266 C 
HETATM    7  N   UNL     1      28.882  43.460  52.386  1.00  0.00    -0.274 N 
HETATM    8  O   UNL     1      27.420  42.921  50.759  1.00  0.00    -0.267 OA
HETATM    9  C   UNL     1      29.073  43.783  53.692  1.00  0.00     0.330 C 
HETATM   10  H   UNL     1      29.530  42.778  52.016  1.00  0.00     0.173 HD
HETATM   11  N   UNL     1      28.100  44.592  54.268  1.00  0.00    -0.289 N 
HETATM   12  O   UNL     1      30.047  43.332  54.288  1.00  0.00    -0.246 OA
HETATM   13  C   UNL     1      26.954  45.012  53.583  1.00  0.00     0.103 C 
BRANCH  11  14
HETATM   14  C   UNL     1      28.321  44.957  55.674  1.00  0.00     0.135 C 
BRANCH  14  15
HETATM   15  C   UNL     1      29.338  46.097  55.797  1.00  0.00     0.016 C 
HETATM   16  C   UNL     1      30.274  45.891  56.976  1.00  0.00     0.006 C 
ENDBRANCH  14  15
ENDBRANCH  11  14
BRANCH  13  17
HETATM   17  N   UNL     1      26.060  45.873  54.212  1.00  0.00    -0.287 NA
HETATM   18  H   UNL     1      26.449  46.810  54.356  1.00  0.00     0.125 HD
HETATM   19  H   UNL     1      25.169  45.938  53.729  1.00  0.00     0.125 HD
ENDBRANCH  13  17
ENDBRANCH   3   5
ENDBRANCH   2   3
ENDBRANCH   1   2
BRANCH   1  20
HETATM   20  C   UNL     1      23.450  47.121  49.342  1.00  0.00     0.196 A 
HETATM   21  N   UNL     1      22.272  47.474  48.702  1.00  0.00    -0.274 N 
HETATM   22  C   UNL     1      22.146  48.832  48.995  1.00  0.00     0.166 A 
HETATM   23  N   UNL     1      23.159  49.229  49.741  1.00  0.00    -0.131 NA
HETATM   24  N   UNL     1      23.967  48.158  49.959  1.00  0.00    -0.122 NA
BRANCH  21  25
HETATM   25  C   UNL     1      21.339  46.656  48.006  1.00  0.00     0.043 A 
HETATM   26  C   UNL     1      20.431  45.859  48.716  1.00  0.00     0.032 A 
HETATM   27  C   UNL     1      19.486  45.085  48.036  1.00  0.00     0.026 A 
HETATM   28  C   UNL     1      19.447  45.098  46.645  1.00  0.00     0.034 A 
HETATM   29 CL   UNL     1      18.277  44.157  45.810  1.00  0.00    -0.084 Cl
HETATM   30  C   UNL     1      20.352  45.877  45.929  1.00  0.00     0.026 A 
HETATM   31  C   UNL     1      21.299  46.655  46.605  1.00  0.00     0.032 A 
ENDBRANCH  21  25
BRANCH  22  32
HETATM   32  C   UNL     1      20.968  49.720  48.735  1.00  0.00     0.254 C 
HETATM   33  C   UNL     1      21.473  51.071  48.211  1.00  0.00     0.049 C 
BRANCH  32  34
HETATM   34  N   UNL     1      20.188  49.942  50.053  1.00  0.00    -0.068 N 
HETATM   35  H   UNL     1      20.901  49.823  50.792  1.00  0.00     0.279 HD
HETATM   36  C   UNL     1      19.570  51.298  50.221  1.00  0.00     0.270 C 
HETATM   37  C   UNL     1      19.168  48.858  50.302  1.00  0.00     0.270 C 
ENDBRANCH  32  34
ENDBRANCH  22  32
ENDBRANCH   1  20
TORSDOF 10
ENDMDL
MODEL 5
REMARK VINA RESULT:      -7.5      2.804      4.695
REMARK  10 active torsions:
REMARK  status: ('A' for Active; 'I' for Inactive)
REMARK    1  A    between atoms: C_2  and  C_3 
REMARK    2  A    between atoms: C_3  and  N_4 
REMARK    3  A    between atoms: C_10  and  C_11 
REMARK    4  A    between atoms: C_11  and  C_12 
REMARK    5  A    between atoms: C_12  and  S_13 
REMARK    6  A    between atoms: S_13  and  C_14 
REMARK    7  A    between atoms: N_15  and  C_16 
REMARK    8  A    between atoms: C_23  and  C_24 
REMARK    9  A    between atoms: C_24  and  N_25 
REMARK   10  A    between atoms: C_33  and  N_34 
ROOT
HETATM    1  S   UNL     1      23.072  48.635  49.036  1.00  0.00    -0.082 SA
ENDROOT
BRANCH   1   2
HETATM    2  C   UNL     1      23.860  47.095  49.613  1.00  0.00     0.166 C 
BRANCH   2   3
HETATM    3  C   UNL     1      25.238  47.418  50.174  1.00  0.00     0.177 C 
HETATM    4  O   UNL     1      25.780  48.506  49.923  1.00  0.00    -0.291 OA
BRANCH   3   5
HETATM    5  C   UNL     1      25.955  46.396  51.010  1.00  0.00     0.117 C 
HETATM    6  C   UNL     1      26.501  45.169  50.394  1.00  0.00     0.266 C 
HETATM    7  N   UNL     1      27.334  44.422  51.158  1.00  0.00    -0.274 N 
HETATM    8  O   UNL     1      26.186  44.818  49.261  1.00  0.00    -0.267 OA
HETATM    9  C   UNL     1      27.350  44.464  52.516  1.00  0.00     0.330 C 
HETATM   10  H   UNL     1      27.686  43.565  50.754  1.00  0.00     0.173 HD
HETATM   11  N   UNL     1      26.722  45.561  53.099  1.00  0.00    -0.289 N 
HETATM   12  O   UNL     1      27.873  43.547  53.142  1.00  0.00    -0.246 OA
HETATM   13  C   UNL     1      26.056  46.542  52.356  1.00  0.00     0.103 C 
BRANCH  11  14
HETATM   14  C   UNL     1      26.761  45.614  54.567  1.00  0.00     0.135 C 
BRANCH  14  15
HETATM   15  C   UNL     1      27.946  46.450  55.060  1.00  0.00     0.016 C 
HETATM   16  C   UNL     1      28.972  45.598  55.788  1.00  0.00     0.006 C 
ENDBRANCH  14  15
ENDBRANCH  11  14
BRANCH  13  17
HETATM   17  N   UNL     1      25.508  47.639  53.012  1.00  0.00    -0.287 NA
HETATM   18  H   UNL     1      25.525  47.538  54.032  1.00  0.00     0.125 HD
HETATM   19  H   UNL     1      25.942  48.517  52.744  1.00  0.00     0.125 HD
ENDBRANCH  13  17
ENDBRANCH   3   5
ENDBRANCH   2   3
ENDBRANCH   1   2
BRANCH   1  20
HETATM   20  C   UNL     1      21.986  47.990  47.848  1.00  0.00     0.196 A 
HETATM   21  N   UNL     1      20.650  48.330  47.698  1.00  0.00    -0.274 N 
HETATM   22  C   UNL     1      20.194  47.414  46.750  1.00  0.00     0.166 A 
HETATM   23  N   UNL     1      21.178  46.617  46.383  1.00  0.00    -0.131 NA
HETATM   24  N   UNL     1      22.295  46.982  47.065  1.00  0.00    -0.122 NA
BRANCH  21  25
HETATM   25  C   UNL     1      19.922  49.411  48.269  1.00  0.00     0.043 A 
HETATM   26  C   UNL     1      20.065  50.708  47.757  1.00  0.00     0.032 A 
HETATM   27  C   UNL     1      19.320  51.765  48.289  1.00  0.00     0.026 A 
HETATM   28  C   UNL     1      18.433  51.533  49.336  1.00  0.00     0.034 A 
HETATM   29 CL   UNL     1      17.509  52.830  49.980  1.00  0.00    -0.084 Cl
HETATM   30  C   UNL     1      18.291  50.251  49.860  1.00  0.00     0.026 A 
HETATM   31  C   UNL     1      19.034  49.189  49.331  1.00  0.00     0.032 A 
ENDBRANCH  21  25
BRANCH  22  32
HETATM   32  C   UNL     1      18.873  47.409  46.043  1.00  0.00     0.254 C 
HETATM   33  C   UNL     1      17.875  46.582  46.865  1.00  0.00     0.049 C 
BRANCH  32  34
HETATM   34  N   UNL     1      19.039  46.767  44.645  1.00  0.00    -0.068 N 
HETATM   35  H   UNL     1      20.054  46.581  44.571  1.00  0.00     0.279 HD
HETATM   36  C   UNL     1      18.314  45.472  44.434  1.00  0.00     0.270 C 
HETATM   37  C   UNL     1      18.729  47.738  43.531  1.00  0.00     0.270 C 
ENDBRANCH  32  34
ENDBRANCH  22  32
ENDBRANCH   1  20
TORSDOF 10
ENDMDL
MODEL 6
REMARK VINA RESULT:      -7.5     11.379     13.624
REMARK  10 active torsions:
REMARK  status: ('A' for Active; 'I' for Inactive)
REMARK    1  A    between atoms: C_2  and  C_3 
REMARK    2  A    between atoms: C_3  and  N_4 
REMARK    3  A    between atoms: C_10  and  C_11 
REMARK    4  A    between atoms: C_11  and  C_12 
REMARK    5  A    between atoms: C_12  and  S_13 
REMARK    6  A    between atoms: S_13  and  C_14 
REMARK    7  A    between atoms: N_15  and  C_16 
REMARK    8  A    between atoms: C_23  and  C_24 
REMARK    9  A    between atoms: C_24  and  N_25 
REMARK   10  A    between atoms: C_33  and  N_34 
ROOT
HETATM    1  S   UNL     1      26.813  49.178  37.881  1.00  0.00    -0.082 SA
ENDROOT
BRANCH   1   2
HETATM    2  C   UNL     1      26.919  50.404  39.227  1.00  0.00     0.166 C 
BRANCH   2   3
HETATM    3  C   UNL     1      27.976  51.441  38.877  1.00  0.00     0.177 C 
HETATM    4  O   UNL     1      27.898  52.086  37.819  1.00  0.00    -0.291 OA
BRANCH   3   5
HETATM    5  C   UNL     1      29.136  51.658  39.806  1.00  0.00     0.117 C 
HETATM    6  C   UNL     1      28.931  52.269  41.136  1.00  0.00     0.266 C 
HETATM    7  N   UNL     1      29.972  52.210  42.001  1.00  0.00    -0.274 N 
HETATM    8  O   UNL     1      27.885  52.839  41.432  1.00  0.00    -0.267 OA
HETATM    9  C   UNL     1      31.264  52.047  41.614  1.00  0.00     0.330 C 
HETATM   10  H   UNL     1      29.849  52.653  42.901  1.00  0.00     0.173 HD
HETATM   11  N   UNL     1      31.458  51.591  40.314  1.00  0.00    -0.289 N 
HETATM   12  O   UNL     1      32.168  52.333  42.393  1.00  0.00    -0.246 OA
HETATM   13  C   UNL     1      30.404  51.363  39.421  1.00  0.00     0.103 C 
BRANCH  11  14
HETATM   14  C   UNL     1      32.856  51.395  39.906  1.00  0.00     0.135 C 
BRANCH  14  15
HETATM   15  C   UNL     1      33.468  52.699  39.383  1.00  0.00     0.016 C 
HETATM   16  C   UNL     1      34.975  52.728  39.571  1.00  0.00     0.006 C 
ENDBRANCH  14  15
ENDBRANCH  11  14
BRANCH  13  17
HETATM   17  N   UNL     1      30.679  50.847  38.159  1.00  0.00    -0.287 NA
HETATM   18  H   UNL     1      30.239  49.934  38.001  1.00  0.00     0.125 HD
HETATM   19  H   UNL     1      30.432  51.485  37.409  1.00  0.00     0.125 HD
ENDBRANCH  13  17
ENDBRANCH   3   5
ENDBRANCH   2   3
ENDBRANCH   1   2
BRANCH   1  20
HETATM   20  C   UNL     1      26.403  47.762  38.793  1.00  0.00     0.196 A 
HETATM   21  N   UNL     1      27.241  47.087  39.667  1.00  0.00    -0.274 N 
HETATM   22  C   UNL     1      26.512  45.942  39.987  1.00  0.00     0.166 A 
HETATM   23  N   UNL     1      25.353  45.955  39.356  1.00  0.00    -0.131 NA
HETATM   24  N   UNL     1      25.287  47.093  38.617  1.00  0.00    -0.122 NA
BRANCH  21  25
HETATM   25  C   UNL     1      28.493  47.489  40.213  1.00  0.00     0.043 A 
HETATM   26  C   UNL     1      28.543  48.177  41.433  1.00  0.00     0.032 A 
HETATM   27  C   UNL     1      29.773  48.537  41.992  1.00  0.00     0.026 A 
HETATM   28  C   UNL     1      30.957  48.215  41.334  1.00  0.00     0.034 A 
HETATM   29 CL   UNL     1      32.468  48.646  42.028  1.00  0.00    -0.084 Cl
HETATM   30  C   UNL     1      30.918  47.542  40.117  1.00  0.00     0.026 A 
HETATM   31  C   UNL     1      29.689  47.179  39.553  1.00  0.00     0.032 A 
ENDBRANCH  21  25
BRANCH  22  32
HETATM   32  C   UNL     1      26.822  44.922  41.039  1.00  0.00     0.254 C 
HETATM   33  C   UNL     1      27.720  43.838  40.428  1.00  0.00     0.049 C 
BRANCH  32  34
HETATM   34  N   UNL     1      25.506  44.276  41.534  1.00  0.00    -0.068 N 
HETATM   35  H   UNL     1      24.780  44.672  40.913  1.00  0.00     0.279 HD
HETATM   36  C   UNL     1      25.437  42.782  41.432  1.00  0.00     0.270 C 
HETATM   37  C   UNL     1      25.135  44.731  42.925  1.00  0.00     0.270 C 
ENDBRANCH  32  34
ENDBRANCH  22  32
ENDBRANCH   1  20
TORSDOF 10
ENDMDL
MODEL 7
REMARK VINA RESULT:      -7.5      2.704      4.323
REMARK  10 active torsions:
REMARK  status: ('A' for Active; 'I' for Inactive)
REMARK    1  A    between atoms: C_2  and  C_3 
REMARK    2  A    between atoms: C_3  and  N_4 
REMARK    3  A    between atoms: C_10  and  C_11 
REMARK    4  A    between atoms: C_11  and  C_12 
REMARK    5  A    between atoms: C_12  and  S_13 
REMARK    6  A    between atoms: S_13  and  C_14 
REMARK    7  A    between atoms: N_15  and  C_16 
REMARK    8  A    between atoms: C_23  and  C_24 
REMARK    9  A    between atoms: C_24  and  N_25 
REMARK   10  A    between atoms: C_33  and  N_34 
ROOT
HETATM    1  S   UNL     1      23.243  48.314  49.168  1.00  0.00    -0.082 SA
ENDROOT
BRANCH   1   2
HETATM    2  C   UNL     1      23.979  46.735  49.710  1.00  0.00     0.166 C 
BRANCH   2   3
HETATM    3  C   UNL     1      25.420  46.976  50.138  1.00  0.00     0.177 C 
HETATM    4  O   UNL     1      26.135  47.776  49.515  1.00  0.00    -0.291 OA
BRANCH   3   5
HETATM    5  C   UNL     1      25.983  46.213  51.304  1.00  0.00     0.117 C 
HETATM    6  C   UNL     1      25.714  46.651  52.689  1.00  0.00     0.266 C 
HETATM    7  N   UNL     1      26.049  45.785  53.676  1.00  0.00    -0.274 N 
HETATM    8  O   UNL     1      25.250  47.758  52.940  1.00  0.00    -0.267 OA
HETATM    9  C   UNL     1      26.971  44.798  53.532  1.00  0.00     0.330 C 
HETATM   10  H   UNL     1      25.897  46.091  54.628  1.00  0.00     0.173 HD
HETATM   11  N   UNL     1      27.317  44.474  52.223  1.00  0.00    -0.289 N 
HETATM   12  O   UNL     1      27.462  44.279  54.530  1.00  0.00    -0.246 OA
HETATM   13  C   UNL     1      26.805  45.151  51.110  1.00  0.00     0.103 C 
BRANCH  11  14
HETATM   14  C   UNL     1      28.298  43.391  52.070  1.00  0.00     0.135 C 
BRANCH  14  15
HETATM   15  C   UNL     1      27.625  42.018  52.157  1.00  0.00     0.016 C 
HETATM   16  C   UNL     1      28.288  41.130  53.196  1.00  0.00     0.006 C 
ENDBRANCH  14  15
ENDBRANCH  11  14
BRANCH  13  17
HETATM   17  N   UNL     1      27.154  44.723  49.833  1.00  0.00    -0.287 NA
HETATM   18  H   UNL     1      27.691  45.426  49.315  1.00  0.00     0.125 HD
HETATM   19  H   UNL     1      27.653  43.839  49.835  1.00  0.00     0.125 HD
ENDBRANCH  13  17
ENDBRANCH   3   5
ENDBRANCH   2   3
ENDBRANCH   1   2
BRANCH   1  20
HETATM   20  C   UNL     1      22.191  47.741  47.916  1.00  0.00     0.196 A 
HETATM   21  N   UNL     1      20.876  48.132  47.716  1.00  0.00    -0.274 N 
HETATM   22  C   UNL     1      20.432  47.259  46.722  1.00  0.00     0.166 A 
HETATM   23  N   UNL     1      21.404  46.438  46.376  1.00  0.00    -0.131 NA
HETATM   24  N   UNL     1      22.500  46.745  47.118  1.00  0.00    -0.122 NA
BRANCH  21  25
HETATM   25  C   UNL     1      20.159  49.222  48.285  1.00  0.00     0.043 A 
HETATM   26  C   UNL     1      20.234  50.496  47.704  1.00  0.00     0.032 A 
HETATM   27  C   UNL     1      19.499  51.560  48.237  1.00  0.00     0.026 A 
HETATM   28  C   UNL     1      18.691  51.359  49.352  1.00  0.00     0.034 A 
HETATM   29 CL   UNL     1      17.778  52.663  49.997  1.00  0.00    -0.084 Cl
HETATM   30  C   UNL     1      18.618  50.100  49.943  1.00  0.00     0.026 A 
HETATM   31  C   UNL     1      19.352  49.032  49.414  1.00  0.00     0.032 A 
ENDBRANCH  21  25
BRANCH  22  32
HETATM   32  C   UNL     1      19.145  47.321  45.957  1.00  0.00     0.254 C 
HETATM   33  C   UNL     1      18.030  46.710  46.816  1.00  0.00     0.049 C 
BRANCH  32  34
HETATM   34  N   UNL     1      19.285  46.508  44.648  1.00  0.00    -0.068 N 
HETATM   35  H   UNL     1      20.291  46.273  44.602  1.00  0.00     0.279 HD
HETATM   36  C   UNL     1      18.507  45.227  44.592  1.00  0.00     0.270 C 
HETATM   37  C   UNL     1      19.014  47.348  43.423  1.00  0.00     0.270 C 
ENDBRANCH  32  34
ENDBRANCH  22  32
ENDBRANCH   1  20
TORSDOF 10
ENDMDL
MODEL 8
REMARK VINA RESULT:      -7.3     11.591     13.778
REMARK  10 active torsions:
REMARK  status: ('A' for Active; 'I' for Inactive)
REMARK    1  A    between atoms: C_2  and  C_3 
REMARK    2  A    between atoms: C_3  and  N_4 
REMARK    3  A    between atoms: C_10  and  C_11 
REMARK    4  A    between atoms: C_11  and  C_12 
REMARK    5  A    between atoms: C_12  and  S_13 
REMARK    6  A    between atoms: S_13  and  C_14 
REMARK    7  A    between atoms: N_15  and  C_16 
REMARK    8  A    between atoms: C_23  and  C_24 
REMARK    9  A    between atoms: C_24  and  N_25 
REMARK   10  A    between atoms: C_33  and  N_34 
ROOT
HETATM    1  S   UNL     1      26.866  50.404  39.757  1.00  0.00    -0.082 SA
ENDROOT
BRANCH   1   2
HETATM    2  C   UNL     1      28.149  50.380  38.461  1.00  0.00     0.166 C 
BRANCH   2   3
HETATM    3  C   UNL     1      28.901  51.703  38.477  1.00  0.00     0.177 C 
HETATM    4  O   UNL     1      28.475  52.677  37.837  1.00  0.00    -0.291 OA
BRANCH   3   5
HETATM    5  C   UNL     1      30.185  51.815  39.251  1.00  0.00     0.117 C 
HETATM    6  C   UNL     1      31.471  51.430  38.633  1.00  0.00     0.266 C 
HETATM    7  N   UNL     1      32.596  51.784  39.300  1.00  0.00    -0.274 N 
HETATM    8  O   UNL     1      31.521  50.788  37.589  1.00  0.00    -0.267 OA
HETATM    9  C   UNL     1      32.630  52.046  40.633  1.00  0.00     0.330 C 
HETATM   10  H   UNL     1      33.478  51.496  38.900  1.00  0.00     0.173 HD
HETATM   11  N   UNL     1      31.400  52.284  41.239  1.00  0.00    -0.289 N 
HETATM   12  O   UNL     1      33.706  52.030  41.224  1.00  0.00    -0.246 OA
HETATM   13  C   UNL     1      30.184  52.204  40.551  1.00  0.00     0.103 C 
BRANCH  11  14
HETATM   14  C   UNL     1      31.443  52.589  42.675  1.00  0.00     0.135 C 
BRANCH  14  15
HETATM   15  C   UNL     1      31.974  51.398  43.479  1.00  0.00     0.016 C 
HETATM   16  C   UNL     1      32.697  51.845  44.738  1.00  0.00     0.006 C 
ENDBRANCH  14  15
ENDBRANCH  11  14
BRANCH  13  17
HETATM   17  N   UNL     1      29.003  52.517  41.216  1.00  0.00    -0.287 NA
HETATM   18  H   UNL     1      28.270  51.815  41.071  1.00  0.00     0.125 HD
HETATM   19  H   UNL     1      29.139  52.674  42.210  1.00  0.00     0.125 HD
ENDBRANCH  13  17
ENDBRANCH   3   5
ENDBRANCH   2   3
ENDBRANCH   1   2
BRANCH   1  20
HETATM   20  C   UNL     1      26.662  48.701  40.011  1.00  0.00     0.196 A 
HETATM   21  N   UNL     1      27.679  47.781  40.216  1.00  0.00    -0.274 N 
HETATM   22  C   UNL     1      27.014  46.556  40.177  1.00  0.00     0.166 A 
HETATM   23  N   UNL     1      25.725  46.750  39.969  1.00  0.00    -0.131 NA
HETATM   24  N   UNL     1      25.509  48.088  39.872  1.00  0.00    -0.122 NA
BRANCH  21  25
HETATM   25  C   UNL     1      29.054  48.003  40.511  1.00  0.00     0.043 A 
HETATM   26  C   UNL     1      29.436  48.498  41.765  1.00  0.00     0.032 A 
HETATM   27  C   UNL     1      30.788  48.678  42.072  1.00  0.00     0.026 A 
HETATM   28  C   UNL     1      31.764  48.370  41.129  1.00  0.00     0.034 A 
HETATM   29 CL   UNL     1      33.425  48.579  41.512  1.00  0.00    -0.084 Cl
HETATM   30  C   UNL     1      31.395  47.888  39.876  1.00  0.00     0.026 A 
HETATM   31  C   UNL     1      30.042  47.706  39.563  1.00  0.00     0.032 A 
ENDBRANCH  21  25
BRANCH  22  32
HETATM   32  C   UNL     1      27.559  45.205  40.526  1.00  0.00     0.254 C 
HETATM   33  C   UNL     1      28.200  44.592  39.274  1.00  0.00     0.049 C 
BRANCH  32  34
HETATM   34  N   UNL     1      26.406  44.294  41.009  1.00  0.00    -0.068 N 
HETATM   35  H   UNL     1      25.549  44.784  40.702  1.00  0.00     0.279 HD
HETATM   36  C   UNL     1      26.382  42.913  40.425  1.00  0.00     0.270 C 
HETATM   37  C   UNL     1      26.316  44.236  42.515  1.00  0.00     0.270 C 
ENDBRANCH  32  34
ENDBRANCH  22  32
ENDBRANCH   1  20
TORSDOF 10
ENDMDL
MODEL 9
REMARK VINA RESULT:      -7.3     13.841     14.762
REMARK  10 active torsions:
REMARK  status: ('A' for Active; 'I' for Inactive)
REMARK    1  A    between atoms: C_2  and  C_3 
REMARK    2  A    between atoms: C_3  and  N_4 
REMARK    3  A    between atoms: C_10  and  C_11 
REMARK    4  A    between atoms: C_11  and  C_12 
REMARK    5  A    between atoms: C_12  and  S_13 
REMARK    6  A    between atoms: S_13  and  C_14 
REMARK    7  A    between atoms: N_15  and  C_16 
REMARK    8  A    between atoms: C_23  and  C_24 
REMARK    9  A    between atoms: C_24  and  N_25 
REMARK   10  A    between atoms: C_33  and  N_34 
ROOT
HETATM    1  S   UNL     1      33.713  50.227  41.654  1.00  0.00    -0.082 SA
ENDROOT
BRANCH   1   2
HETATM    2  C   UNL     1      34.486  51.318  42.894  1.00  0.00     0.166 C 
BRANCH   2   3
HETATM    3  C   UNL     1      35.990  51.356  42.659  1.00  0.00     0.177 C 
HETATM    4  O   UNL     1      36.594  50.337  42.286  1.00  0.00    -0.291 OA
BRANCH   3   5
HETATM    5  C   UNL     1      36.747  52.629  42.912  1.00  0.00     0.117 C 
HETATM    6  C   UNL     1      36.809  53.685  41.881  1.00  0.00     0.266 C 
HETATM    7  N   UNL     1      37.298  54.887  42.270  1.00  0.00    -0.274 N 
HETATM    8  O   UNL     1      36.473  53.476  40.720  1.00  0.00    -0.267 OA
HETATM    9  C   UNL     1      38.109  55.058  43.346  1.00  0.00     0.330 C 
HETATM   10  H   UNL     1      37.373  55.605  41.561  1.00  0.00     0.173 HD
HETATM   11  N   UNL     1      38.146  54.004  44.254  1.00  0.00    -0.289 N 
HETATM   12  O   UNL     1      38.773  56.085  43.445  1.00  0.00    -0.246 OA
HETATM   13  C   UNL     1      37.445  52.808  44.062  1.00  0.00     0.103 C 
BRANCH  11  14
HETATM   14  C   UNL     1      39.007  54.201  45.428  1.00  0.00     0.135 C 
BRANCH  14  15
HETATM   15  C   UNL     1      38.215  54.778  46.606  1.00  0.00     0.016 C 
HETATM   16  C   UNL     1      38.482  54.014  47.892  1.00  0.00     0.006 C 
ENDBRANCH  14  15
ENDBRANCH  11  14
BRANCH  13  17
HETATM   17  N   UNL     1      37.486  51.828  45.050  1.00  0.00    -0.287 NA
HETATM   18  H   UNL     1      36.862  51.040  44.849  1.00  0.00     0.125 HD
HETATM   19  H   UNL     1      38.425  51.489  45.231  1.00  0.00     0.125 HD
ENDBRANCH  13  17
ENDBRANCH   3   5
ENDBRANCH   2   3
ENDBRANCH   1   2
BRANCH   1  20
HETATM   20  C   UNL     1      32.442  51.262  41.091  1.00  0.00     0.196 A 
HETATM   21  N   UNL     1      31.319  50.861  40.384  1.00  0.00    -0.274 N 
HETATM   22  C   UNL     1      30.725  52.069  40.018  1.00  0.00     0.166 A 
HETATM   23  N   UNL     1      31.440  53.080  40.475  1.00  0.00    -0.131 NA
HETATM   24  N   UNL     1      32.506  52.573  41.148  1.00  0.00    -0.122 NA
BRANCH  21  25
HETATM   25  C   UNL     1      30.807  49.552  40.165  1.00  0.00     0.043 A 
HETATM   26  C   UNL     1      30.078  48.901  41.169  1.00  0.00     0.032 A 
HETATM   27  C   UNL     1      29.539  47.631  40.943  1.00  0.00     0.026 A 
HETATM   28  C   UNL     1      29.730  47.003  39.715  1.00  0.00     0.034 A 
HETATM   29 CL   UNL     1      29.056  45.448  39.433  1.00  0.00    -0.084 Cl
HETATM   30  C   UNL     1      30.463  47.635  38.714  1.00  0.00     0.026 A 
HETATM   31  C   UNL     1      31.004  48.907  38.936  1.00  0.00     0.032 A 
ENDBRANCH  21  25
BRANCH  22  32
HETATM   32  C   UNL     1      29.377  52.277  39.400  1.00  0.00     0.254 C 
HETATM   33  C   UNL     1      29.053  53.777  39.414  1.00  0.00     0.049 C 
BRANCH  32  34
HETATM   34  N   UNL     1      28.310  51.517  40.223  1.00  0.00    -0.068 N 
HETATM   35  H   UNL     1      28.844  50.774  40.706  1.00  0.00     0.279 HD
HETATM   36  C   UNL     1      27.595  52.325  41.265  1.00  0.00     0.270 C 
HETATM   37  C   UNL     1      27.321  50.790  39.343  1.00  0.00     0.270 C 
ENDBRANCH  32  34
ENDBRANCH  22  32
ENDBRANCH   1  20
TORSDOF 10
ENDMDL
MODEL 10
REMARK VINA RESULT:      -7.0     12.754     15.051
REMARK  10 active torsions:
REMARK  status: ('A' for Active; 'I' for Inactive)
REMARK    1  A    between atoms: C_2  and  C_3 
REMARK    2  A    between atoms: C_3  and  N_4 
REMARK    3  A    between atoms: C_10  and  C_11 
REMARK    4  A    between atoms: C_11  and  C_12 
REMARK    5  A    between atoms: C_12  and  S_13 
REMARK    6  A    between atoms: S_13  and  C_14 
REMARK    7  A    between atoms: N_15  and  C_16 
REMARK    8  A    between atoms: C_23  and  C_24 
REMARK    9  A    between atoms: C_24  and  N_25 
REMARK   10  A    between atoms: C_33  and  N_34 
ROOT
HETATM    1  S   UNL     1      32.223  50.787  43.487  1.00  0.00    -0.082 SA
ENDROOT
BRANCH   1   2
HETATM    2  C   UNL     1      31.637  49.340  42.544  1.00  0.00     0.166 C 
BRANCH   2   3
HETATM    3  C   UNL     1      30.270  49.649  41.951  1.00  0.00     0.177 C 
HETATM    4  O   UNL     1      29.768  50.776  42.083  1.00  0.00    -0.291 OA
BRANCH   3   5
HETATM    5  C   UNL     1      29.515  48.568  41.229  1.00  0.00     0.117 C 
HETATM    6  C   UNL     1      30.222  47.624  40.339  1.00  0.00     0.266 C 
HETATM    7  N   UNL     1      29.521  46.543  39.920  1.00  0.00    -0.274 N 
HETATM    8  O   UNL     1      31.371  47.827  39.962  1.00  0.00    -0.267 OA
HETATM    9  C   UNL     1      28.164  46.492  39.886  1.00  0.00     0.330 C 
HETATM   10  H   UNL     1      29.987  45.909  39.285  1.00  0.00     0.173 HD
HETATM   11  N   UNL     1      27.499  47.464  40.627  1.00  0.00    -0.289 N 
HETATM   12  O   UNL     1      27.609  45.639  39.200  1.00  0.00    -0.246 OA
HETATM   13  C   UNL     1      28.164  48.479  41.324  1.00  0.00     0.103 C 
BRANCH  11  14
HETATM   14  C   UNL     1      26.031  47.393  40.605  1.00  0.00     0.135 C 
BRANCH  14  15
HETATM   15  C   UNL     1      25.448  48.314  39.529  1.00  0.00     0.016 C 
HETATM   16  C   UNL     1      23.933  48.388  39.613  1.00  0.00     0.006 C 
ENDBRANCH  14  15
ENDBRANCH  11  14
BRANCH  13  17
HETATM   17  N   UNL     1      27.427  49.375  42.092  1.00  0.00    -0.287 NA
HETATM   18  H   UNL     1      27.888  49.607  42.978  1.00  0.00     0.125 HD
HETATM   19  H   UNL     1      27.195  50.226  41.590  1.00  0.00     0.125 HD
ENDBRANCH  13  17
ENDBRANCH   3   5
ENDBRANCH   2   3
ENDBRANCH   1   2
BRANCH   1  20
HETATM   20  C   UNL     1      33.551  51.281  42.487  1.00  0.00     0.196 A 
HETATM   21  N   UNL     1      33.466  51.689  41.165  1.00  0.00    -0.274 N 
HETATM   22  C   UNL     1      34.802  51.791  40.778  1.00  0.00     0.166 A 
HETATM   23  N   UNL     1      35.590  51.472  41.787  1.00  0.00    -0.131 NA
HETATM   24  N   UNL     1      34.806  51.160  42.852  1.00  0.00    -0.122 NA
BRANCH  21  25
HETATM   25  C   UNL     1      32.320  52.037  40.397  1.00  0.00     0.043 A 
HETATM   26  C   UNL     1      31.955  51.267  39.284  1.00  0.00     0.032 A 
HETATM   27  C   UNL     1      30.807  51.583  38.551  1.00  0.00     0.026 A 
HETATM   28  C   UNL     1      30.021  52.669  38.923  1.00  0.00     0.034 A 
HETATM   29 CL   UNL     1      28.603  53.048  38.030  1.00  0.00    -0.084 Cl
HETATM   30  C   UNL     1      30.380  53.448  40.020  1.00  0.00     0.026 A 
HETATM   31  C   UNL     1      31.528  53.136  40.757  1.00  0.00     0.032 A 
ENDBRANCH  21  25
BRANCH  22  32
HETATM   32  C   UNL     1      35.347  52.375  39.510  1.00  0.00     0.254 C 
HETATM   33  C   UNL     1      36.462  51.462  38.984  1.00  0.00     0.049 C 
BRANCH  32  34
HETATM   34  N   UNL     1      35.929  53.779  39.798  1.00  0.00    -0.068 N 
HETATM   35  H   UNL     1      35.705  53.947  40.794  1.00  0.00     0.279 HD
HETATM   36  C   UNL     1      37.412  53.915  39.628  1.00  0.00     0.270 C 
HETATM   37  C   UNL     1      35.205  54.864  39.038  1.00  0.00     0.270 C 
ENDBRANCH  32  34
ENDBRANCH  22  32
ENDBRANCH   1  20
TORSDOF 10
ENDMDL
