MODEL 1
REMARK VINA RESULT:     -10.0      0.000      0.000
REMARK  6 active torsions:
REMARK  status: ('A' for Active; 'I' for Inactive)
REMARK    1  A    between atoms: O_2  and  C_3 
REMARK    2  A    between atoms: C_5  and  O_6 
REMARK    3  A    between atoms: C_9  and  N_10 
REMARK       I    between atoms: N_10  and  C_11 
REMARK    4  A    between atoms: C_11  and  C_12 
REMARK    5  A    between atoms: C_12  and  N_13 
REMARK    6  A    between atoms: C_19  and  C_20 
ROOT
HETATM    1  N   UNL     1      23.509  44.104  49.060  1.00  0.00    -0.063 N 
HETATM    2  H   UNL     1      24.025  43.442  48.451  1.00  0.00     0.280 HD
HETATM    3  C   UNL     1      24.384  45.328  49.201  1.00  0.00     0.240 C 
HETATM    4  C   UNL     1      25.660  44.984  49.946  1.00  0.00     0.083 C 
HETATM    5  C   UNL     1      25.371  44.326  51.295  1.00  0.00     0.131 A 
HETATM    6  N   UNL     1      26.664  43.872  51.862  1.00  0.00    -0.251 NA
HETATM    7  C   UNL     1      26.826  44.494  53.001  1.00  0.00     0.132 A 
HETATM    8  C   UNL     1      25.672  45.422  53.297  1.00  0.00     0.272 A 
HETATM    9  O   UNL     1      25.525  46.168  54.233  1.00  0.00    -0.266 OA
HETATM   10  N   UNL     1      24.827  45.248  52.243  1.00  0.00    -0.327 N 
HETATM   11  C   UNL     1      24.481  43.097  51.112  1.00  0.00     0.083 C 
HETATM   12  C   UNL     1      23.201  43.430  50.368  1.00  0.00     0.240 C 
HETATM   13  H   UNL     1      23.982  45.803  52.196  1.00  0.00     0.165 HD
ENDROOT
BRANCH   1  14
HETATM   14  C   UNL     1      22.228  44.408  48.261  1.00  0.00     0.337 C 
BRANCH  14  15
HETATM   15  C   UNL     1      22.185  45.876  47.829  1.00  0.00     0.248 C 
HETATM   16  N   UNL     1      22.046  46.766  48.873  1.00  0.00    -0.326 N 
HETATM   17  H   UNL     1      22.005  46.407  49.821  1.00  0.00     0.169 HD
HETATM   18  O   UNL     1      22.332  46.132  46.636  1.00  0.00    -0.271 OA
BRANCH  16  19
HETATM   19  C   UNL     1      22.004  48.177  48.792  1.00  0.00     0.040 A 
HETATM   20  C   UNL     1      20.942  48.961  49.248  1.00  0.00     0.066 A 
HETATM   21  C   UNL     1      20.991  50.354  49.124  1.00  0.00     0.073 A 
HETATM   22  C   UNL     1      22.100  50.964  48.528  1.00  0.00     0.073 A 
HETATM   23  C   UNL     1      23.164  50.194  48.067  1.00  0.00     0.073 A 
HETATM   24  C   UNL     1      23.115  48.807  48.214  1.00  0.00     0.066 A 
BRANCH  21  25
HETATM   25  O   UNL     1      20.026  51.231  49.540  1.00  0.00    -0.356 OA
HETATM   26  C   UNL     1      19.504  52.135  48.575  1.00  0.00     0.210 C 
ENDBRANCH  21  25
BRANCH  23  27
HETATM   27  O   UNL     1      24.298  50.660  47.463  1.00  0.00    -0.356 OA
HETATM   28  C   UNL     1      25.537  50.130  47.925  1.00  0.00     0.210 C 
ENDBRANCH  23  27
ENDBRANCH  16  19
ENDBRANCH  14  15
ENDBRANCH   1  14
BRANCH   7  29
HETATM   29  C   UNL     1      28.002  44.312  53.876  1.00  0.00    -0.002 A 
HETATM   30  C   UNL     1      28.714  43.106  53.797  1.00  0.00     0.016 A 
HETATM   31  C   UNL     1      29.835  42.889  54.604  1.00  0.00     0.024 A 
HETATM   32  C   UNL     1      30.245  43.876  55.498  1.00  0.00     0.034 A 
HETATM   33 CL   UNL     1      31.623  43.613  56.491  1.00  0.00    -0.084 Cl
HETATM   34  C   UNL     1      29.542  45.075  55.590  1.00  0.00     0.024 A 
HETATM   35  C   UNL     1      28.421  45.294  54.782  1.00  0.00     0.016 A 
ENDBRANCH   7  29
TORSDOF 6
ENDMDL
MODEL 2
REMARK VINA RESULT:     -10.0      1.483      2.134
REMARK  6 active torsions:
REMARK  status: ('A' for Active; 'I' for Inactive)
REMARK    1  A    between atoms: O_2  and  C_3 
REMARK    2  A    between atoms: C_5  and  O_6 
REMARK    3  A    between atoms: C_9  and  N_10 
REMARK       I    between atoms: N_10  and  C_11 
REMARK    4  A    between atoms: C_11  and  C_12 
REMARK    5  A    between atoms: C_12  and  N_13 
REMARK    6  A    between atoms: C_19  and  C_20 
ROOT
HETATM    1  N   UNL     1      24.578  44.546  49.970  1.00  0.00    -0.063 N 
HETATM    2  H   UNL     1      24.516  45.581  49.998  1.00  0.00     0.280 HD
HETATM    3  C   UNL     1      24.148  44.054  51.332  1.00  0.00     0.240 C 
HETATM    4  C   UNL     1      25.136  44.502  52.393  1.00  0.00     0.083 C 
HETATM    5  C   UNL     1      26.565  44.079  52.054  1.00  0.00     0.131 A 
HETATM    6  N   UNL     1      27.470  44.707  53.047  1.00  0.00    -0.251 NA
HETATM    7  C   UNL     1      28.088  43.740  53.673  1.00  0.00     0.132 A 
HETATM    8  C   UNL     1      27.652  42.384  53.170  1.00  0.00     0.272 A 
HETATM    9  O   UNL     1      27.991  41.292  53.555  1.00  0.00    -0.266 OA
HETATM   10  N   UNL     1      26.758  42.667  52.182  1.00  0.00    -0.327 N 
HETATM   11  C   UNL     1      26.961  44.590  50.668  1.00  0.00     0.083 C 
HETATM   12  C   UNL     1      25.979  44.146  49.600  1.00  0.00     0.240 C 
HETATM   13  H   UNL     1      26.291  41.904  51.711  1.00  0.00     0.165 HD
ENDROOT
BRANCH   1  14
HETATM   14  C   UNL     1      23.567  44.152  48.877  1.00  0.00     0.337 C 
BRANCH  14  15
HETATM   15  C   UNL     1      22.915  45.392  48.260  1.00  0.00     0.248 C 
HETATM   16  N   UNL     1      22.981  46.518  49.053  1.00  0.00    -0.326 N 
HETATM   17  H   UNL     1      23.456  46.459  49.948  1.00  0.00     0.169 HD
HETATM   18  O   UNL     1      22.456  45.298  47.123  1.00  0.00    -0.271 OA
BRANCH  16  19
HETATM   19  C   UNL     1      22.497  47.810  48.744  1.00  0.00     0.040 A 
HETATM   20  C   UNL     1      21.150  48.179  48.796  1.00  0.00     0.066 A 
HETATM   21  C   UNL     1      20.766  49.485  48.471  1.00  0.00     0.073 A 
HETATM   22  C   UNL     1      21.730  50.420  48.078  1.00  0.00     0.073 A 
HETATM   23  C   UNL     1      23.074  50.064  48.020  1.00  0.00     0.073 A 
HETATM   24  C   UNL     1      23.449  48.764  48.365  1.00  0.00     0.066 A 
BRANCH  21  25
HETATM   25  O   UNL     1      19.488  49.974  48.494  1.00  0.00    -0.356 OA
HETATM   26  C   UNL     1      19.251  51.152  49.252  1.00  0.00     0.210 C 
ENDBRANCH  21  25
BRANCH  23  27
HETATM   27  O   UNL     1      24.110  50.873  47.647  1.00  0.00    -0.356 OA
HETATM   28  C   UNL     1      25.418  50.312  47.708  1.00  0.00     0.210 C 
ENDBRANCH  23  27
ENDBRANCH  16  19
ENDBRANCH  14  15
ENDBRANCH   1  14
BRANCH   7  29
HETATM   29  C   UNL     1      29.079  43.958  54.746  1.00  0.00    -0.002 A 
HETATM   30  C   UNL     1      28.974  45.117  55.529  1.00  0.00     0.016 A 
HETATM   31  C   UNL     1      29.887  45.365  56.558  1.00  0.00     0.024 A 
HETATM   32  C   UNL     1      30.914  44.457  56.805  1.00  0.00     0.034 A 
HETATM   33 CL   UNL     1      32.039  44.758  58.068  1.00  0.00    -0.084 Cl
HETATM   34  C   UNL     1      31.034  43.305  56.029  1.00  0.00     0.024 A 
HETATM   35  C   UNL     1      30.119  43.056  55.001  1.00  0.00     0.016 A 
ENDBRANCH   7  29
TORSDOF 6
ENDMDL
MODEL 3
REMARK VINA RESULT:      -9.7      1.879      2.562
REMARK  6 active torsions:
REMARK  status: ('A' for Active; 'I' for Inactive)
REMARK    1  A    between atoms: O_2  and  C_3 
REMARK    2  A    between atoms: C_5  and  O_6 
REMARK    3  A    between atoms: C_9  and  N_10 
REMARK       I    between atoms: N_10  and  C_11 
REMARK    4  A    between atoms: C_11  and  C_12 
REMARK    5  A    between atoms: C_12  and  N_13 
REMARK    6  A    between atoms: C_19  and  C_20 
ROOT
HETATM    1  N   UNL     1      24.656  44.206  48.534  1.00  0.00    -0.063 N 
HETATM    2  H   UNL     1      25.439  44.214  47.853  1.00  0.00     0.280 HD
HETATM    3  C   UNL     1      24.796  45.459  49.365  1.00  0.00     0.240 C 
HETATM    4  C   UNL     1      26.068  45.408  50.191  1.00  0.00     0.083 C 
HETATM    5  C   UNL     1      26.140  44.142  51.044  1.00  0.00     0.131 A 
HETATM    6  N   UNL     1      27.483  44.097  51.673  1.00  0.00    -0.251 NA
HETATM    7  C   UNL     1      27.304  44.107  52.968  1.00  0.00     0.132 A 
HETATM    8  C   UNL     1      25.838  44.168  53.327  1.00  0.00     0.272 A 
HETATM    9  O   UNL     1      25.330  44.231  54.419  1.00  0.00    -0.266 OA
HETATM   10  N   UNL     1      25.201  44.159  52.123  1.00  0.00    -0.327 N 
HETATM   11  C   UNL     1      25.990  42.896  50.171  1.00  0.00     0.083 C 
HETATM   12  C   UNL     1      24.720  42.938  49.340  1.00  0.00     0.240 C 
HETATM   13  H   UNL     1      24.192  44.233  52.102  1.00  0.00     0.165 HD
ENDROOT
BRANCH   1  14
HETATM   14  C   UNL     1      23.401  44.250  47.643  1.00  0.00     0.337 C 
BRANCH  14  15
HETATM   15  C   UNL     1      22.217  44.868  48.392  1.00  0.00     0.248 C 
HETATM   16  N   UNL     1      21.862  46.123  47.944  1.00  0.00    -0.326 N 
HETATM   17  H   UNL     1      22.373  46.529  47.167  1.00  0.00     0.169 HD
HETATM   18  O   UNL     1      21.664  44.193  49.258  1.00  0.00    -0.271 OA
BRANCH  16  19
HETATM   19  C   UNL     1      20.799  46.928  48.416  1.00  0.00     0.040 A 
HETATM   20  C   UNL     1      19.454  46.554  48.382  1.00  0.00     0.066 A 
HETATM   21  C   UNL     1      18.470  47.420  48.874  1.00  0.00     0.073 A 
HETATM   22  C   UNL     1      18.833  48.671  49.386  1.00  0.00     0.073 A 
HETATM   23  C   UNL     1      20.169  49.056  49.424  1.00  0.00     0.073 A 
HETATM   24  C   UNL     1      21.145  48.177  48.950  1.00  0.00     0.066 A 
BRANCH  21  25
HETATM   25  O   UNL     1      17.125  47.169  48.908  1.00  0.00    -0.356 OA
HETATM   26  C   UNL     1      16.355  47.571  47.783  1.00  0.00     0.210 C 
ENDBRANCH  21  25
BRANCH  23  27
HETATM   27  O   UNL     1      20.656  50.244  49.890  1.00  0.00    -0.356 OA
HETATM   28  C   UNL     1      19.752  51.344  49.917  1.00  0.00     0.210 C 
ENDBRANCH  23  27
ENDBRANCH  16  19
ENDBRANCH  14  15
ENDBRANCH   1  14
BRANCH   7  29
HETATM   29  C   UNL     1      28.407  44.074  53.950  1.00  0.00    -0.002 A 
HETATM   30  C   UNL     1      29.231  42.940  53.992  1.00  0.00     0.016 A 
HETATM   31  C   UNL     1      30.289  42.864  54.903  1.00  0.00     0.024 A 
HETATM   32  C   UNL     1      30.523  43.919  55.780  1.00  0.00     0.034 A 
HETATM   33 CL   UNL     1      31.823  43.829  56.902  1.00  0.00    -0.084 Cl
HETATM   34  C   UNL     1      29.707  45.048  55.754  1.00  0.00     0.024 A 
HETATM   35  C   UNL     1      28.649  45.126  54.841  1.00  0.00     0.016 A 
ENDBRANCH   7  29
TORSDOF 6
ENDMDL
MODEL 4
REMARK VINA RESULT:      -9.7      2.177      3.144
REMARK  6 active torsions:
REMARK  status: ('A' for Active; 'I' for Inactive)
REMARK    1  A    between atoms: O_2  and  C_3 
REMARK    2  A    between atoms: C_5  and  O_6 
REMARK    3  A    between atoms: C_9  and  N_10 
REMARK       I    between atoms: N_10  and  C_11 
REMARK    4  A    between atoms: C_11  and  C_12 
REMARK    5  A    between atoms: C_12  and  N_13 
REMARK    6  A    between atoms: C_19  and  C_20 
ROOT
HETATM    1  N   UNL     1      24.107  45.864  50.110  1.00  0.00    -0.063 N 
HETATM    2  H   UNL     1      23.734  46.663  50.657  1.00  0.00     0.280 HD
HETATM    3  C   UNL     1      23.957  44.640  50.982  1.00  0.00     0.240 C 
HETATM    4  C   UNL     1      24.840  44.753  52.211  1.00  0.00     0.083 C 
HETATM    5  C   UNL     1      26.299  45.017  51.839  1.00  0.00     0.131 A 
HETATM    6  N   UNL     1      27.043  45.285  53.094  1.00  0.00    -0.251 NA
HETATM    7  C   UNL     1      27.975  44.373  53.193  1.00  0.00     0.132 A 
HETATM    8  C   UNL     1      27.937  43.410  52.029  1.00  0.00     0.272 A 
HETATM    9  O   UNL     1      28.622  42.438  51.832  1.00  0.00    -0.266 OA
HETATM   10  N   UNL     1      26.924  43.876  51.246  1.00  0.00    -0.327 N 
HETATM   11  C   UNL     1      26.410  46.259  50.953  1.00  0.00     0.083 C 
HETATM   12  C   UNL     1      25.530  46.155  49.721  1.00  0.00     0.240 C 
HETATM   13  H   UNL     1      26.677  43.364  50.409  1.00  0.00     0.165 HD
ENDROOT
BRANCH   1  14
HETATM   14  C   UNL     1      23.183  45.804  48.880  1.00  0.00     0.337 C 
BRANCH  14  15
HETATM   15  C   UNL     1      22.421  47.120  48.701  1.00  0.00     0.248 C 
HETATM   16  N   UNL     1      21.049  46.978  48.685  1.00  0.00    -0.326 N 
HETATM   17  H   UNL     1      20.651  46.053  48.809  1.00  0.00     0.169 HD
HETATM   18  O   UNL     1      23.071  48.162  48.649  1.00  0.00    -0.271 OA
BRANCH  16  19
HETATM   19  C   UNL     1      20.086  48.007  48.566  1.00  0.00     0.040 A 
HETATM   20  C   UNL     1      19.600  48.758  49.638  1.00  0.00     0.066 A 
HETATM   21  C   UNL     1      18.645  49.758  49.421  1.00  0.00     0.073 A 
HETATM   22  C   UNL     1      18.164  49.996  48.129  1.00  0.00     0.073 A 
HETATM   23  C   UNL     1      18.639  49.254  47.052  1.00  0.00     0.073 A 
HETATM   24  C   UNL     1      19.606  48.272  47.276  1.00  0.00     0.066 A 
BRANCH  21  25
HETATM   25  O   UNL     1      18.100  50.568  50.380  1.00  0.00    -0.356 OA
HETATM   26  C   UNL     1      17.345  51.689  49.938  1.00  0.00     0.210 C 
ENDBRANCH  21  25
BRANCH  23  27
HETATM   27  O   UNL     1      18.251  49.379  45.748  1.00  0.00    -0.356 OA
HETATM   28  C   UNL     1      18.541  50.617  45.107  1.00  0.00     0.210 C 
ENDBRANCH  23  27
ENDBRANCH  16  19
ENDBRANCH  14  15
ENDBRANCH   1  14
BRANCH   7  29
HETATM   29  C   UNL     1      28.932  44.295  54.314  1.00  0.00    -0.002 A 
HETATM   30  C   UNL     1      28.979  45.357  55.229  1.00  0.00     0.016 A 
HETATM   31  C   UNL     1      29.868  45.327  56.307  1.00  0.00     0.024 A 
HETATM   32  C   UNL     1      30.718  44.237  56.473  1.00  0.00     0.034 A 
HETATM   33 CL   UNL     1      31.812  44.197  57.798  1.00  0.00    -0.084 Cl
HETATM   34  C   UNL     1      30.686  43.179  55.567  1.00  0.00     0.024 A 
HETATM   35  C   UNL     1      29.796  43.207  54.489  1.00  0.00     0.016 A 
ENDBRANCH   7  29
TORSDOF 6
ENDMDL
MODEL 5
REMARK VINA RESULT:      -9.6      1.845      2.976
REMARK  6 active torsions:
REMARK  status: ('A' for Active; 'I' for Inactive)
REMARK    1  A    between atoms: O_2  and  C_3 
REMARK    2  A    between atoms: C_5  and  O_6 
REMARK    3  A    between atoms: C_9  and  N_10 
REMARK       I    between atoms: N_10  and  C_11 
REMARK    4  A    between atoms: C_11  and  C_12 
REMARK    5  A    between atoms: C_12  and  N_13 
REMARK    6  A    between atoms: C_19  and  C_20 
ROOT
HETATM    1  N   UNL     1      25.087  44.020  48.850  1.00  0.00    -0.063 N 
HETATM    2  H   UNL     1      25.879  44.100  48.184  1.00  0.00     0.280 HD
HETATM    3  C   UNL     1      25.133  45.255  49.719  1.00  0.00     0.240 C 
HETATM    4  C   UNL     1      26.392  45.261  50.566  1.00  0.00     0.083 C 
HETATM    5  C   UNL     1      26.533  43.977  51.384  1.00  0.00     0.131 A 
HETATM    6  N   UNL     1      27.866  44.000  52.035  1.00  0.00    -0.251 NA
HETATM    7  C   UNL     1      27.666  43.959  53.326  1.00  0.00     0.132 A 
HETATM    8  C   UNL     1      26.193  43.914  53.660  1.00  0.00     0.272 A 
HETATM    9  O   UNL     1      25.665  43.912  54.744  1.00  0.00    -0.266 OA
HETATM   10  N   UNL     1      25.577  43.901  52.445  1.00  0.00    -0.327 N 
HETATM   11  C   UNL     1      26.478  42.751  50.472  1.00  0.00     0.083 C 
HETATM   12  C   UNL     1      25.221  42.736  49.620  1.00  0.00     0.240 C 
HETATM   13  H   UNL     1      24.566  43.911  52.408  1.00  0.00     0.165 HD
ENDROOT
BRANCH   1  14
HETATM   14  C   UNL     1      23.847  44.010  47.939  1.00  0.00     0.337 C 
BRANCH  14  15
HETATM   15  C   UNL     1      22.689  44.783  48.577  1.00  0.00     0.248 C 
HETATM   16  N   UNL     1      22.427  45.998  47.981  1.00  0.00    -0.326 N 
HETATM   17  H   UNL     1      22.980  46.280  47.179  1.00  0.00     0.169 HD
HETATM   18  O   UNL     1      22.075  44.247  49.497  1.00  0.00    -0.271 OA
BRANCH  16  19
HETATM   19  C   UNL     1      21.409  46.916  48.328  1.00  0.00     0.040 A 
HETATM   20  C   UNL     1      21.641  48.175  48.888  1.00  0.00     0.066 A 
HETATM   21  C   UNL     1      20.566  49.016  49.198  1.00  0.00     0.073 A 
HETATM   22  C   UNL     1      19.254  48.590  48.961  1.00  0.00     0.073 A 
HETATM   23  C   UNL     1      19.010  47.339  48.405  1.00  0.00     0.073 A 
HETATM   24  C   UNL     1      20.089  46.515  48.080  1.00  0.00     0.066 A 
BRANCH  21  25
HETATM   25  O   UNL     1      20.659  50.270  49.737  1.00  0.00    -0.356 OA
HETATM   26  C   UNL     1      20.322  51.369  48.901  1.00  0.00     0.210 C 
ENDBRANCH  21  25
BRANCH  23  27
HETATM   27  O   UNL     1      17.784  46.801  48.129  1.00  0.00    -0.356 OA
HETATM   28  C   UNL     1      16.695  47.236  48.936  1.00  0.00     0.210 C 
ENDBRANCH  23  27
ENDBRANCH  16  19
ENDBRANCH  14  15
ENDBRANCH   1  14
BRANCH   7  29
HETATM   29  C   UNL     1      28.752  43.967  54.326  1.00  0.00    -0.002 A 
HETATM   30  C   UNL     1      28.923  45.112  55.118  1.00  0.00     0.016 A 
HETATM   31  C   UNL     1      29.937  45.166  56.080  1.00  0.00     0.024 A 
HETATM   32  C   UNL     1      30.787  44.076  56.250  1.00  0.00     0.034 A 
HETATM   33 CL   UNL     1      32.034  44.138  57.431  1.00  0.00    -0.084 Cl
HETATM   34  C   UNL     1      30.632  42.936  55.464  1.00  0.00     0.024 A 
HETATM   35  C   UNL     1      29.617  42.881  54.503  1.00  0.00     0.016 A 
ENDBRANCH   7  29
TORSDOF 6
ENDMDL
MODEL 6
REMARK VINA RESULT:      -9.6      1.817      2.477
REMARK  6 active torsions:
REMARK  status: ('A' for Active; 'I' for Inactive)
REMARK    1  A    between atoms: O_2  and  C_3 
REMARK    2  A    between atoms: C_5  and  O_6 
REMARK    3  A    between atoms: C_9  and  N_10 
REMARK       I    between atoms: N_10  and  C_11 
REMARK    4  A    between atoms: C_11  and  C_12 
REMARK    5  A    between atoms: C_12  and  N_13 
REMARK    6  A    between atoms: C_19  and  C_20 
ROOT
HETATM    1  N   UNL     1      24.247  44.883  49.667  1.00  0.00    -0.063 N 
HETATM    2  H   UNL     1      23.649  45.609  50.105  1.00  0.00     0.280 HD
HETATM    3  C   UNL     1      24.248  43.702  50.608  1.00  0.00     0.240 C 
HETATM    4  C   UNL     1      24.927  44.067  51.915  1.00  0.00     0.083 C 
HETATM    5  C   UNL     1      26.333  44.623  51.689  1.00  0.00     0.131 A 
HETATM    6  N   UNL     1      26.841  45.110  52.995  1.00  0.00    -0.251 NA
HETATM    7  C   UNL     1      27.923  44.428  53.268  1.00  0.00     0.132 A 
HETATM    8  C   UNL     1      28.234  43.422  52.184  1.00  0.00     0.272 A 
HETATM    9  O   UNL     1      29.127  42.613  52.140  1.00  0.00    -0.266 OA
HETATM   10  N   UNL     1      27.253  43.616  51.260  1.00  0.00    -0.327 N 
HETATM   11  C   UNL     1      26.292  45.812  50.729  1.00  0.00     0.083 C 
HETATM   12  C   UNL     1      25.614  45.457  49.418  1.00  0.00     0.240 C 
HETATM   13  H   UNL     1      27.226  43.020  50.442  1.00  0.00     0.165 HD
ENDROOT
BRANCH   1  14
HETATM   14  C   UNL     1      23.518  44.562  48.349  1.00  0.00     0.337 C 
BRANCH  14  15
HETATM   15  C   UNL     1      22.593  45.710  47.939  1.00  0.00     0.248 C 
HETATM   16  N   UNL     1      22.013  46.373  48.999  1.00  0.00    -0.326 N 
HETATM   17  H   UNL     1      22.244  46.084  49.944  1.00  0.00     0.169 HD
HETATM   18  O   UNL     1      22.494  45.973  46.741  1.00  0.00    -0.271 OA
BRANCH  16  19
HETATM   19  C   UNL     1      21.142  47.486  48.937  1.00  0.00     0.040 A 
HETATM   20  C   UNL     1      19.750  47.393  48.872  1.00  0.00     0.066 A 
HETATM   21  C   UNL     1      18.969  48.553  48.813  1.00  0.00     0.073 A 
HETATM   22  C   UNL     1      19.585  49.810  48.805  1.00  0.00     0.073 A 
HETATM   23  C   UNL     1      20.971  49.916  48.868  1.00  0.00     0.073 A 
HETATM   24  C   UNL     1      21.740  48.753  48.946  1.00  0.00     0.066 A 
BRANCH  21  25
HETATM   25  O   UNL     1      17.603  48.598  48.758  1.00  0.00    -0.356 OA
HETATM   26  C   UNL     1      16.899  47.377  48.943  1.00  0.00     0.210 C 
ENDBRANCH  21  25
BRANCH  23  27
HETATM   27  O   UNL     1      21.695  51.075  48.861  1.00  0.00    -0.356 OA
HETATM   28  C   UNL     1      23.098  50.958  49.078  1.00  0.00     0.210 C 
ENDBRANCH  23  27
ENDBRANCH  16  19
ENDBRANCH  14  15
ENDBRANCH   1  14
BRANCH   7  29
HETATM   29  C   UNL     1      28.727  44.618  54.492  1.00  0.00    -0.002 A 
HETATM   30  C   UNL     1      29.749  43.698  54.769  1.00  0.00     0.016 A 
HETATM   31  C   UNL     1      30.538  43.838  55.915  1.00  0.00     0.024 A 
HETATM   32  C   UNL     1      30.305  44.896  56.791  1.00  0.00     0.034 A 
HETATM   33 CL   UNL     1      31.273  45.071  58.200  1.00  0.00    -0.084 Cl
HETATM   34  C   UNL     1      29.288  45.811  56.530  1.00  0.00     0.024 A 
HETATM   35  C   UNL     1      28.499  45.673  55.383  1.00  0.00     0.016 A 
ENDBRANCH   7  29
TORSDOF 6
ENDMDL
MODEL 7
REMARK VINA RESULT:      -9.2      2.265      3.275
REMARK  6 active torsions:
REMARK  status: ('A' for Active; 'I' for Inactive)
REMARK    1  A    between atoms: O_2  and  C_3 
REMARK    2  A    between atoms: C_5  and  O_6 
REMARK    3  A    between atoms: C_9  and  N_10 
REMARK       I    between atoms: N_10  and  C_11 
REMARK    4  A    between atoms: C_11  and  C_12 
REMARK    5  A    between atoms: C_12  and  N_13 
REMARK    6  A    between atoms: C_19  and  C_20 
ROOT
HETATM    1  N   UNL     1      24.803  43.640  49.482  1.00  0.00    -0.063 N 
HETATM    2  H   UNL     1      24.555  44.642  49.375  1.00  0.00     0.280 HD
HETATM    3  C   UNL     1      24.294  43.214  50.838  1.00  0.00     0.240 C 
HETATM    4  C   UNL     1      25.040  43.947  51.938  1.00  0.00     0.083 C 
HETATM    5  C   UNL     1      26.553  43.774  51.812  1.00  0.00     0.131 A 
HETATM    6  N   UNL     1      27.194  44.661  52.813  1.00  0.00    -0.251 NA
HETATM    7  C   UNL     1      27.888  43.898  53.617  1.00  0.00     0.132 A 
HETATM    8  C   UNL     1      27.771  42.440  53.239  1.00  0.00     0.272 A 
HETATM    9  O   UNL     1      28.246  41.478  53.789  1.00  0.00    -0.266 OA
HETATM   10  N   UNL     1      26.977  42.447  52.132  1.00  0.00    -0.327 N 
HETATM   11  C   UNL     1      27.029  44.211  50.426  1.00  0.00     0.083 C 
HETATM   12  C   UNL     1      26.289  43.483  49.319  1.00  0.00     0.240 C 
HETATM   13  H   UNL     1      26.719  41.565  51.710  1.00  0.00     0.165 HD
ENDROOT
BRANCH   1  14
HETATM   14  C   UNL     1      24.030  42.953  48.341  1.00  0.00     0.337 C 
BRANCH  14  15
HETATM   15  C   UNL     1      22.966  43.886  47.758  1.00  0.00     0.248 C 
HETATM   16  N   UNL     1      22.203  44.533  48.706  1.00  0.00    -0.326 N 
HETATM   17  H   UNL     1      22.401  44.372  49.688  1.00  0.00     0.169 HD
HETATM   18  O   UNL     1      22.924  44.022  46.536  1.00  0.00    -0.271 OA
BRANCH  16  19
HETATM   19  C   UNL     1      21.170  45.471  48.476  1.00  0.00     0.040 A 
HETATM   20  C   UNL     1      19.809  45.156  48.462  1.00  0.00     0.066 A 
HETATM   21  C   UNL     1      18.858  46.155  48.225  1.00  0.00     0.073 A 
HETATM   22  C   UNL     1      19.271  47.470  47.986  1.00  0.00     0.073 A 
HETATM   23  C   UNL     1      20.624  47.797  47.995  1.00  0.00     0.073 A 
HETATM   24  C   UNL     1      21.564  46.797  48.253  1.00  0.00     0.066 A 
BRANCH  21  25
HETATM   25  O   UNL     1      17.501  45.980  48.196  1.00  0.00    -0.356 OA
HETATM   26  C   UNL     1      16.689  47.118  48.452  1.00  0.00     0.210 C 
ENDBRANCH  21  25
BRANCH  23  27
HETATM   27  O   UNL     1      21.159  49.034  47.772  1.00  0.00    -0.356 OA
HETATM   28  C   UNL     1      21.742  49.694  48.891  1.00  0.00     0.210 C 
ENDBRANCH  23  27
ENDBRANCH  16  19
ENDBRANCH  14  15
ENDBRANCH   1  14
BRANCH   7  29
HETATM   29  C   UNL     1      28.676  44.408  54.757  1.00  0.00    -0.002 A 
HETATM   30  C   UNL     1      28.150  45.467  55.513  1.00  0.00     0.016 A 
HETATM   31  C   UNL     1      28.859  45.981  56.603  1.00  0.00     0.024 A 
HETATM   32  C   UNL     1      30.099  45.443  56.939  1.00  0.00     0.034 A 
HETATM   33 CL   UNL     1      30.972  46.073  58.278  1.00  0.00    -0.084 Cl
HETATM   34  C   UNL     1      30.634  44.396  56.191  1.00  0.00     0.024 A 
HETATM   35  C   UNL     1      29.925  43.879  55.102  1.00  0.00     0.016 A 
ENDBRANCH   7  29
TORSDOF 6
ENDMDL
MODEL 8
REMARK VINA RESULT:      -9.1      2.481      3.841
REMARK  6 active torsions:
REMARK  status: ('A' for Active; 'I' for Inactive)
REMARK    1  A    between atoms: O_2  and  C_3 
REMARK    2  A    between atoms: C_5  and  O_6 
REMARK    3  A    between atoms: C_9  and  N_10 
REMARK       I    between atoms: N_10  and  C_11 
REMARK    4  A    between atoms: C_11  and  C_12 
REMARK    5  A    between atoms: C_12  and  N_13 
REMARK    6  A    between atoms: C_19  and  C_20 
ROOT
HETATM    1  N   UNL     1      24.766  43.642  49.382  1.00  0.00    -0.063 N 
HETATM    2  H   UNL     1      24.553  44.651  49.262  1.00  0.00     0.280 HD
HETATM    3  C   UNL     1      24.241  43.253  50.744  1.00  0.00     0.240 C 
HETATM    4  C   UNL     1      25.011  43.975  51.835  1.00  0.00     0.083 C 
HETATM    5  C   UNL     1      26.517  43.748  51.713  1.00  0.00     0.131 A 
HETATM    6  N   UNL     1      27.188  44.625  52.704  1.00  0.00    -0.251 NA
HETATM    7  C   UNL     1      27.853  43.850  53.519  1.00  0.00     0.132 A 
HETATM    8  C   UNL     1      27.686  42.392  53.161  1.00  0.00     0.272 A 
HETATM    9  O   UNL     1      28.126  41.421  53.726  1.00  0.00    -0.266 OA
HETATM   10  N   UNL     1      26.894  42.410  52.054  1.00  0.00    -0.327 N 
HETATM   11  C   UNL     1      27.010  44.148  50.322  1.00  0.00     0.083 C 
HETATM   12  C   UNL     1      26.246  43.430  49.224  1.00  0.00     0.240 C 
HETATM   13  H   UNL     1      26.605  41.532  51.643  1.00  0.00     0.165 HD
ENDROOT
BRANCH   1  14
HETATM   14  C   UNL     1      23.971  42.967  48.250  1.00  0.00     0.337 C 
BRANCH  14  15
HETATM   15  C   UNL     1      22.952  43.933  47.641  1.00  0.00     0.248 C 
HETATM   16  N   UNL     1      22.009  44.394  48.535  1.00  0.00    -0.326 N 
HETATM   17  H   UNL     1      22.062  44.092  49.503  1.00  0.00     0.169 HD
HETATM   18  O   UNL     1      23.092  44.253  46.462  1.00  0.00    -0.271 OA
BRANCH  16  19
HETATM   19  C   UNL     1      20.965  45.313  48.277  1.00  0.00     0.040 A 
HETATM   20  C   UNL     1      21.083  46.698  48.417  1.00  0.00     0.066 A 
HETATM   21  C   UNL     1      19.993  47.528  48.137  1.00  0.00     0.073 A 
HETATM   22  C   UNL     1      18.775  46.971  47.730  1.00  0.00     0.073 A 
HETATM   23  C   UNL     1      18.644  45.593  47.588  1.00  0.00     0.073 A 
HETATM   24  C   UNL     1      19.744  44.774  47.851  1.00  0.00     0.066 A 
BRANCH  21  25
HETATM   25  O   UNL     1      19.981  48.894  48.224  1.00  0.00    -0.356 OA
HETATM   26  C   UNL     1      19.442  49.471  49.406  1.00  0.00     0.210 C 
ENDBRANCH  21  25
BRANCH  23  27
HETATM   27  O   UNL     1      17.517  44.922  47.207  1.00  0.00    -0.356 OA
HETATM   28  C   UNL     1      17.464  44.467  45.859  1.00  0.00     0.210 C 
ENDBRANCH  23  27
ENDBRANCH  16  19
ENDBRANCH  14  15
ENDBRANCH   1  14
BRANCH   7  29
HETATM   29  C   UNL     1      28.657  44.348  54.653  1.00  0.00    -0.002 A 
HETATM   30  C   UNL     1      28.155  45.417  55.411  1.00  0.00     0.016 A 
HETATM   31  C   UNL     1      28.880  45.921  56.495  1.00  0.00     0.024 A 
HETATM   32  C   UNL     1      30.112  45.361  56.824  1.00  0.00     0.034 A 
HETATM   33 CL   UNL     1      31.005  45.978  58.156  1.00  0.00    -0.084 Cl
HETATM   34  C   UNL     1      30.624  44.304  56.075  1.00  0.00     0.024 A 
HETATM   35  C   UNL     1      29.899  43.798  54.991  1.00  0.00     0.016 A 
ENDBRANCH   7  29
TORSDOF 6
ENDMDL
MODEL 9
REMARK VINA RESULT:      -9.1      4.566      9.945
REMARK  6 active torsions:
REMARK  status: ('A' for Active; 'I' for Inactive)
REMARK    1  A    between atoms: O_2  and  C_3 
REMARK    2  A    between atoms: C_5  and  O_6 
REMARK    3  A    between atoms: C_9  and  N_10 
REMARK       I    between atoms: N_10  and  C_11 
REMARK    4  A    between atoms: C_11  and  C_12 
REMARK    5  A    between atoms: C_12  and  N_13 
REMARK    6  A    between atoms: C_19  and  C_20 
ROOT
HETATM    1  N   UNL     1      21.261  45.413  48.063  1.00  0.00    -0.063 N 
HETATM    2  H   UNL     1      21.225  45.491  47.029  1.00  0.00     0.280 HD
HETATM    3  C   UNL     1      19.838  45.207  48.527  1.00  0.00     0.240 C 
HETATM    4  C   UNL     1      19.001  46.438  48.231  1.00  0.00     0.083 C 
HETATM    5  C   UNL     1      19.621  47.703  48.822  1.00  0.00     0.131 A 
HETATM    6  N   UNL     1      18.834  48.862  48.335  1.00  0.00    -0.251 NA
HETATM    7  C   UNL     1      18.342  49.465  49.386  1.00  0.00     0.132 A 
HETATM    8  C   UNL     1      18.742  48.768  50.665  1.00  0.00     0.272 A 
HETATM    9  O   UNL     1      18.430  49.035  51.799  1.00  0.00    -0.266 OA
HETATM   10  N   UNL     1      19.529  47.737  50.249  1.00  0.00    -0.327 N 
HETATM   11  C   UNL     1      21.059  47.875  48.334  1.00  0.00     0.083 C 
HETATM   12  C   UNL     1      21.906  46.649  48.626  1.00  0.00     0.240 C 
HETATM   13  H   UNL     1      19.894  47.091  50.937  1.00  0.00     0.165 HD
ENDROOT
BRANCH   1  14
HETATM   14  C   UNL     1      22.125  44.162  48.301  1.00  0.00     0.337 C 
BRANCH  14  15
HETATM   15  C   UNL     1      23.461  44.532  48.950  1.00  0.00     0.248 C 
HETATM   16  N   UNL     1      23.416  44.612  50.326  1.00  0.00    -0.326 N 
HETATM   17  H   UNL     1      22.543  44.408  50.800  1.00  0.00     0.169 HD
HETATM   18  O   UNL     1      24.442  44.664  48.219  1.00  0.00    -0.271 OA
BRANCH  16  19
HETATM   19  C   UNL     1      24.490  44.903  51.199  1.00  0.00     0.040 A 
HETATM   20  C   UNL     1      24.810  46.185  51.653  1.00  0.00     0.066 A 
HETATM   21  C   UNL     1      25.893  46.375  52.518  1.00  0.00     0.073 A 
HETATM   22  C   UNL     1      26.668  45.281  52.918  1.00  0.00     0.073 A 
HETATM   23  C   UNL     1      26.361  43.999  52.472  1.00  0.00     0.073 A 
HETATM   24  C   UNL     1      25.266  43.817  51.625  1.00  0.00     0.066 A 
BRANCH  21  25
HETATM   25  O   UNL     1      26.302  47.572  53.041  1.00  0.00    -0.356 OA
HETATM   26  C   UNL     1      26.632  47.604  54.423  1.00  0.00     0.210 C 
ENDBRANCH  21  25
BRANCH  23  27
HETATM   27  O   UNL     1      27.036  42.852  52.779  1.00  0.00    -0.356 OA
HETATM   28  C   UNL     1      28.397  42.776  52.365  1.00  0.00     0.210 C 
ENDBRANCH  23  27
ENDBRANCH  16  19
ENDBRANCH  14  15
ENDBRANCH   1  14
BRANCH   7  29
HETATM   29  C   UNL     1      17.492  50.671  49.319  1.00  0.00    -0.002 A 
HETATM   30  C   UNL     1      16.259  50.584  48.656  1.00  0.00     0.016 A 
HETATM   31  C   UNL     1      15.420  51.699  48.568  1.00  0.00     0.024 A 
HETATM   32  C   UNL     1      15.813  52.907  49.140  1.00  0.00     0.034 A 
HETATM   33 CL   UNL     1      14.784  54.279  49.034  1.00  0.00    -0.084 Cl
HETATM   34  C   UNL     1      17.039  53.008  49.795  1.00  0.00     0.024 A 
HETATM   35  C   UNL     1      17.878  51.892  49.884  1.00  0.00     0.016 A 
ENDBRANCH   7  29
TORSDOF 6
ENDMDL
MODEL 10
REMARK VINA RESULT:      -8.9      4.244     10.133
REMARK  6 active torsions:
REMARK  status: ('A' for Active; 'I' for Inactive)
REMARK    1  A    between atoms: O_2  and  C_3 
REMARK    2  A    between atoms: C_5  and  O_6 
REMARK    3  A    between atoms: C_9  and  N_10 
REMARK       I    between atoms: N_10  and  C_11 
REMARK    4  A    between atoms: C_11  and  C_12 
REMARK    5  A    between atoms: C_12  and  N_13 
REMARK    6  A    between atoms: C_19  and  C_20 
ROOT
HETATM    1  N   UNL     1      24.287  45.060  48.694  1.00  0.00    -0.063 N 
HETATM    2  H   UNL     1      24.991  45.420  48.022  1.00  0.00     0.280 HD
HETATM    3  C   UNL     1      23.094  44.628  47.876  1.00  0.00     0.240 C 
HETATM    4  C   UNL     1      22.452  45.826  47.201  1.00  0.00     0.083 C 
HETATM    5  C   UNL     1      22.093  46.919  48.207  1.00  0.00     0.131 A 
HETATM    6  N   UNL     1      21.639  48.106  47.441  1.00  0.00    -0.251 NA
HETATM    7  C   UNL     1      20.409  48.354  47.806  1.00  0.00     0.132 A 
HETATM    8  C   UNL     1      19.922  47.361  48.835  1.00  0.00     0.272 A 
HETATM    9  O   UNL     1      18.834  47.277  49.347  1.00  0.00    -0.266 OA
HETATM   10  N   UNL     1      20.994  46.548  49.045  1.00  0.00    -0.327 N 
HETATM   11  C   UNL     1      23.323  47.327  49.018  1.00  0.00     0.083 C 
HETATM   12  C   UNL     1      23.972  46.135  49.697  1.00  0.00     0.240 C 
HETATM   13  H   UNL     1      20.899  45.765  49.678  1.00  0.00     0.165 HD
ENDROOT
BRANCH   1  14
HETATM   14  C   UNL     1      24.994  43.859  49.350  1.00  0.00     0.337 C 
BRANCH  14  15
HETATM   15  C   UNL     1      26.179  44.318  50.203  1.00  0.00     0.248 C 
HETATM   16  N   UNL     1      26.072  43.990  51.538  1.00  0.00    -0.326 N 
HETATM   17  H   UNL     1      25.260  43.468  51.851  1.00  0.00     0.169 HD
HETATM   18  O   UNL     1      27.121  44.869  49.636  1.00  0.00    -0.271 OA
BRANCH  16  19
HETATM   19  C   UNL     1      27.015  44.252  52.560  1.00  0.00     0.040 A 
HETATM   20  C   UNL     1      28.133  43.456  52.822  1.00  0.00     0.066 A 
HETATM   21  C   UNL     1      29.011  43.797  53.857  1.00  0.00     0.073 A 
HETATM   22  C   UNL     1      28.762  44.928  54.641  1.00  0.00     0.073 A 
HETATM   23  C   UNL     1      27.651  45.728  54.391  1.00  0.00     0.073 A 
HETATM   24  C   UNL     1      26.792  45.391  53.343  1.00  0.00     0.066 A 
BRANCH  21  25
HETATM   25  O   UNL     1      30.142  43.111  54.207  1.00  0.00    -0.356 OA
HETATM   26  C   UNL     1      30.738  43.425  55.459  1.00  0.00     0.210 C 
ENDBRANCH  21  25
BRANCH  23  27
HETATM   27  O   UNL     1      27.290  46.851  55.081  1.00  0.00    -0.356 OA
HETATM   28  C   UNL     1      26.218  47.619  54.544  1.00  0.00     0.210 C 
ENDBRANCH  23  27
ENDBRANCH  16  19
ENDBRANCH  14  15
ENDBRANCH   1  14
BRANCH   7  29
HETATM   29  C   UNL     1      19.599  49.464  47.264  1.00  0.00    -0.002 A 
HETATM   30  C   UNL     1      18.979  49.294  46.018  1.00  0.00     0.016 A 
HETATM   31  C   UNL     1      18.201  50.316  45.466  1.00  0.00     0.024 A 
HETATM   32  C   UNL     1      18.045  51.516  46.156  1.00  0.00     0.034 A 
HETATM   33 CL   UNL     1      17.089  52.775  45.480  1.00  0.00    -0.084 Cl
HETATM   34  C   UNL     1      18.662  51.700  47.392  1.00  0.00     0.024 A 
HETATM   35  C   UNL     1      19.439  50.677  47.946  1.00  0.00     0.016 A 
ENDBRANCH   7  29
TORSDOF 6
ENDMDL
