MODEL 1
REMARK VINA RESULT:     -10.5      0.000      0.000
REMARK  2 active torsions:
REMARK  status: ('A' for Active; 'I' for Inactive)
REMARK    1  A    between atoms: C_5  and  C_6 
REMARK    2  A    between atoms: N_12  and  C_13 
ROOT
HETATM    1  C   UNL     1      22.459  50.011  48.409  1.00  0.00     0.047 A 
HETATM    2  N   UNL     1      22.608  49.104  49.443  1.00  0.00    -0.344 N 
HETATM    3  C   UNL     1      23.818  48.531  49.727  1.00  0.00     0.119 A 
HETATM    4  C   UNL     1      24.929  48.897  49.065  1.00  0.00     0.123 A 
HETATM    5  C   UNL     1      26.051  48.163  49.672  1.00  0.00     0.280 A 
HETATM    6  O   UNL     1      27.217  48.261  49.332  1.00  0.00    -0.265 OA
HETATM    7  N   UNL     1      25.475  47.379  50.684  1.00  0.00    -0.236 N 
HETATM    8  N   UNL     1      24.078  47.581  50.697  1.00  0.00    -0.179 NA
HETATM    9  C   UNL     1      24.868  49.902  48.002  1.00  0.00     0.193 A 
HETATM   10  O   UNL     1      25.844  50.296  47.377  1.00  0.00    -0.287 OA
HETATM   11  C   UNL     1      23.512  50.444  47.690  1.00  0.00     0.086 A 
HETATM   12  H   UNL     1      21.773  48.646  49.794  1.00  0.00     0.167 HD
HETATM   13  H   UNL     1      23.740  47.903  51.604  1.00  0.00     0.155 HD
ENDROOT
BRANCH   1  14
HETATM   14  C   UNL     1      21.101  50.515  48.130  1.00  0.00    -0.009 A 
HETATM   15  C   UNL     1      20.624  51.685  48.736  1.00  0.00     0.014 A 
HETATM   16  C   UNL     1      19.337  52.155  48.460  1.00  0.00     0.007 A 
HETATM   17  C   UNL     1      18.502  51.462  47.578  1.00  0.00    -0.062 A 
HETATM   18  C   UNL     1      17.130  51.979  47.258  1.00  0.00     0.048 C 
HETATM   19  C   UNL     1      18.983  50.307  46.953  1.00  0.00     0.007 A 
HETATM   20  C   UNL     1      20.269  49.835  47.230  1.00  0.00     0.014 A 
ENDBRANCH   1  14
BRANCH   7  21
HETATM   21  C   UNL     1      26.079  46.460  51.569  1.00  0.00     0.055 A 
HETATM   22  C   UNL     1      26.572  45.228  51.112  1.00  0.00     0.034 A 
HETATM   23  C   UNL     1      27.181  44.325  51.991  1.00  0.00     0.044 A 
HETATM   24  C   UNL     1      27.297  44.649  53.335  1.00  0.00     0.116 A 
HETATM   25  F   UNL     1      27.880  43.786  54.177  1.00  0.00    -0.206 F 
HETATM   26  C   UNL     1      26.814  45.857  53.817  1.00  0.00     0.044 A 
HETATM   27  C   UNL     1      26.205  46.758  52.937  1.00  0.00     0.034 A 
ENDBRANCH   7  21
TORSDOF 2
ENDMDL
MODEL 2
REMARK VINA RESULT:     -10.1      1.214      1.759
REMARK  2 active torsions:
REMARK  status: ('A' for Active; 'I' for Inactive)
REMARK    1  A    between atoms: C_5  and  C_6 
REMARK    2  A    between atoms: N_12  and  C_13 
ROOT
HETATM    1  C   UNL     1      22.345  50.022  49.147  1.00  0.00     0.047 A 
HETATM    2  N   UNL     1      22.604  48.898  49.909  1.00  0.00    -0.344 N 
HETATM    3  C   UNL     1      23.805  48.244  49.839  1.00  0.00     0.119 A 
HETATM    4  C   UNL     1      24.812  48.724  49.090  1.00  0.00     0.123 A 
HETATM    5  C   UNL     1      25.968  47.841  49.309  1.00  0.00     0.280 A 
HETATM    6  O   UNL     1      27.066  47.985  48.800  1.00  0.00    -0.265 OA
HETATM    7  N   UNL     1      25.519  46.860  50.207  1.00  0.00    -0.236 N 
HETATM    8  N   UNL     1      24.159  47.089  50.511  1.00  0.00    -0.179 NA
HETATM    9  C   UNL     1      24.641  49.949  48.306  1.00  0.00     0.193 A 
HETATM   10  O   UNL     1      25.523  50.452  47.623  1.00  0.00    -0.287 OA
HETATM   11  C   UNL     1      23.290  50.583  48.368  1.00  0.00     0.086 A 
HETATM   12  H   UNL     1      21.811  48.392  50.290  1.00  0.00     0.167 HD
HETATM   13  H   UNL     1      23.998  47.200  51.512  1.00  0.00     0.155 HD
ENDROOT
BRANCH   1  14
HETATM   14  C   UNL     1      20.996  50.612  49.231  1.00  0.00    -0.009 A 
HETATM   15  C   UNL     1      20.029  50.088  50.098  1.00  0.00     0.014 A 
HETATM   16  C   UNL     1      18.755  50.659  50.173  1.00  0.00     0.007 A 
HETATM   17  C   UNL     1      18.422  51.759  49.377  1.00  0.00    -0.062 A 
HETATM   18  C   UNL     1      17.065  52.391  49.473  1.00  0.00     0.048 C 
HETATM   19  C   UNL     1      19.392  52.300  48.526  1.00  0.00     0.007 A 
HETATM   20  C   UNL     1      20.666  51.729  48.451  1.00  0.00     0.014 A 
ENDBRANCH   1  14
BRANCH   7  21
HETATM   21  C   UNL     1      26.200  45.745  50.742  1.00  0.00     0.055 A 
HETATM   22  C   UNL     1      26.595  45.713  52.089  1.00  0.00     0.034 A 
HETATM   23  C   UNL     1      27.259  44.601  52.618  1.00  0.00     0.044 A 
HETATM   24  C   UNL     1      27.535  43.514  51.802  1.00  0.00     0.116 A 
HETATM   25  F   UNL     1      28.170  42.448  52.306  1.00  0.00    -0.206 F 
HETATM   26  C   UNL     1      27.162  43.519  50.464  1.00  0.00     0.044 A 
HETATM   27  C   UNL     1      26.499  44.632  49.937  1.00  0.00     0.034 A 
ENDBRANCH   7  21
TORSDOF 2
ENDMDL
MODEL 3
REMARK VINA RESULT:     -10.0      3.393      9.111
REMARK  2 active torsions:
REMARK  status: ('A' for Active; 'I' for Inactive)
REMARK    1  A    between atoms: C_5  and  C_6 
REMARK    2  A    between atoms: N_12  and  C_13 
ROOT
HETATM    1  C   UNL     1      26.481  44.807  51.567  1.00  0.00     0.047 A 
HETATM    2  N   UNL     1      25.943  46.080  51.631  1.00  0.00    -0.344 N 
HETATM    3  C   UNL     1      25.022  46.516  50.718  1.00  0.00     0.119 A 
HETATM    4  C   UNL     1      24.538  45.691  49.775  1.00  0.00     0.123 A 
HETATM    5  C   UNL     1      23.516  46.443  49.030  1.00  0.00     0.280 A 
HETATM    6  O   UNL     1      22.854  46.000  48.108  1.00  0.00    -0.265 OA
HETATM    7  N   UNL     1      23.491  47.716  49.621  1.00  0.00    -0.236 N 
HETATM    8  N   UNL     1      24.454  47.775  50.652  1.00  0.00    -0.179 NA
HETATM    9  C   UNL     1      25.006  44.306  49.682  1.00  0.00     0.193 A 
HETATM   10  O   UNL     1      24.589  43.497  48.864  1.00  0.00    -0.287 OA
HETATM   11  C   UNL     1      26.060  43.904  50.661  1.00  0.00     0.086 A 
HETATM   12  H   UNL     1      26.447  46.779  52.168  1.00  0.00     0.167 HD
HETATM   13  H   UNL     1      24.045  48.025  51.552  1.00  0.00     0.155 HD
ENDROOT
BRANCH   1  14
HETATM   14  C   UNL     1      27.526  44.454  52.547  1.00  0.00    -0.009 A 
HETATM   15  C   UNL     1      27.511  44.983  53.844  1.00  0.00     0.014 A 
HETATM   16  C   UNL     1      28.503  44.637  54.766  1.00  0.00     0.007 A 
HETATM   17  C   UNL     1      29.532  43.762  54.406  1.00  0.00    -0.062 A 
HETATM   18  C   UNL     1      30.585  43.367  55.400  1.00  0.00     0.048 C 
HETATM   19  C   UNL     1      29.539  43.213  53.119  1.00  0.00     0.007 A 
HETATM   20  C   UNL     1      28.547  43.560  52.197  1.00  0.00     0.014 A 
ENDBRANCH   1  14
BRANCH   7  21
HETATM   21  C   UNL     1      22.718  48.850  49.291  1.00  0.00     0.055 A 
HETATM   22  C   UNL     1      21.317  48.785  49.239  1.00  0.00     0.034 A 
HETATM   23  C   UNL     1      20.555  49.916  48.924  1.00  0.00     0.044 A 
HETATM   24  C   UNL     1      21.191  51.119  48.654  1.00  0.00     0.116 A 
HETATM   25  F   UNL     1      20.463  52.202  48.352  1.00  0.00    -0.206 F 
HETATM   26  C   UNL     1      22.575  51.212  48.691  1.00  0.00     0.044 A 
HETATM   27  C   UNL     1      23.335  50.081  49.006  1.00  0.00     0.034 A 
ENDBRANCH   7  21
TORSDOF 2
ENDMDL
MODEL 4
REMARK VINA RESULT:      -9.9      3.114      8.579
REMARK  2 active torsions:
REMARK  status: ('A' for Active; 'I' for Inactive)
REMARK    1  A    between atoms: C_5  and  C_6 
REMARK    2  A    between atoms: N_12  and  C_13 
ROOT
HETATM    1  C   UNL     1      25.549  47.220  50.608  1.00  0.00     0.047 A 
HETATM    2  N   UNL     1      24.183  47.416  50.522  1.00  0.00    -0.344 N 
HETATM    3  C   UNL     1      23.647  48.394  49.728  1.00  0.00     0.119 A 
HETATM    4  C   UNL     1      24.427  49.144  48.931  1.00  0.00     0.123 A 
HETATM    5  C   UNL     1      23.534  50.022  48.159  1.00  0.00     0.280 A 
HETATM    6  O   UNL     1      23.898  50.828  47.321  1.00  0.00    -0.265 OA
HETATM    7  N   UNL     1      22.238  49.706  48.595  1.00  0.00    -0.236 N 
HETATM    8  N   UNL     1      22.309  48.715  49.599  1.00  0.00    -0.179 NA
HETATM    9  C   UNL     1      25.879  48.951  48.913  1.00  0.00     0.193 A 
HETATM   10  O   UNL     1      26.643  49.583  48.195  1.00  0.00    -0.287 OA
HETATM   11  C   UNL     1      26.414  47.917  49.848  1.00  0.00     0.086 A 
HETATM   12  H   UNL     1      23.603  47.039  51.265  1.00  0.00     0.167 HD
HETATM   13  H   UNL     1      21.767  47.883  49.363  1.00  0.00     0.155 HD
ENDROOT
BRANCH   1  14
HETATM   14  C   UNL     1      26.036  46.194  51.550  1.00  0.00    -0.009 A 
HETATM   15  C   UNL     1      26.623  45.008  51.089  1.00  0.00     0.014 A 
HETATM   16  C   UNL     1      27.085  44.045  51.992  1.00  0.00     0.007 A 
HETATM   17  C   UNL     1      26.964  44.248  53.370  1.00  0.00    -0.062 A 
HETATM   18  C   UNL     1      27.482  43.230  54.342  1.00  0.00     0.048 C 
HETATM   19  C   UNL     1      26.399  45.441  53.834  1.00  0.00     0.007 A 
HETATM   20  C   UNL     1      25.936  46.403  52.932  1.00  0.00     0.014 A 
ENDBRANCH   1  14
BRANCH   7  21
HETATM   21  C   UNL     1      20.996  50.258  48.213  1.00  0.00     0.055 A 
HETATM   22  C   UNL     1      20.575  51.506  48.698  1.00  0.00     0.034 A 
HETATM   23  C   UNL     1      19.349  52.054  48.306  1.00  0.00     0.044 A 
HETATM   24  C   UNL     1      18.533  51.354  47.428  1.00  0.00     0.116 A 
HETATM   25  F   UNL     1      17.360  51.878  47.052  1.00  0.00    -0.206 F 
HETATM   26  C   UNL     1      18.920  50.115  46.937  1.00  0.00     0.044 A 
HETATM   27  C   UNL     1      20.146  49.569  47.330  1.00  0.00     0.034 A 
ENDBRANCH   7  21
TORSDOF 2
ENDMDL
MODEL 5
REMARK VINA RESULT:      -9.6      3.617      9.746
REMARK  2 active torsions:
REMARK  status: ('A' for Active; 'I' for Inactive)
REMARK    1  A    between atoms: C_5  and  C_6 
REMARK    2  A    between atoms: N_12  and  C_13 
ROOT
HETATM    1  C   UNL     1      27.501  44.290  53.017  1.00  0.00     0.047 A 
HETATM    2  N   UNL     1      27.186  45.577  52.620  1.00  0.00    -0.344 N 
HETATM    3  C   UNL     1      26.275  45.819  51.628  1.00  0.00     0.119 A 
HETATM    4  C   UNL     1      25.586  44.815  51.061  1.00  0.00     0.123 A 
HETATM    5  C   UNL     1      24.642  45.425  50.110  1.00  0.00     0.280 A 
HETATM    6  O   UNL     1      23.842  44.811  49.427  1.00  0.00    -0.265 OA
HETATM    7  N   UNL     1      24.875  46.806  50.195  1.00  0.00    -0.236 N 
HETATM    8  N   UNL     1      25.918  47.052  51.115  1.00  0.00    -0.179 NA
HETATM    9  C   UNL     1      25.811  43.428  51.474  1.00  0.00     0.193 A 
HETATM   10  O   UNL     1      25.201  42.471  51.016  1.00  0.00    -0.287 OA
HETATM   11  C   UNL     1      26.863  43.217  52.513  1.00  0.00     0.086 A 
HETATM   12  H   UNL     1      27.840  46.317  52.855  1.00  0.00     0.167 HD
HETATM   13  H   UNL     1      25.632  47.678  51.868  1.00  0.00     0.155 HD
ENDROOT
BRANCH   1  14
HETATM   14  C   UNL     1      28.551  44.125  54.040  1.00  0.00    -0.009 A 
HETATM   15  C   UNL     1      29.329  42.961  54.099  1.00  0.00     0.014 A 
HETATM   16  C   UNL     1      30.324  42.819  55.070  1.00  0.00     0.007 A 
HETATM   17  C   UNL     1      30.556  43.834  56.004  1.00  0.00    -0.062 A 
HETATM   18  C   UNL     1      31.641  43.696  57.030  1.00  0.00     0.048 C 
HETATM   19  C   UNL     1      29.797  45.007  55.934  1.00  0.00     0.007 A 
HETATM   20  C   UNL     1      28.801  45.149  54.964  1.00  0.00     0.014 A 
ENDBRANCH   1  14
BRANCH   7  21
HETATM   21  C   UNL     1      24.274  47.869  49.486  1.00  0.00     0.055 A 
HETATM   22  C   UNL     1      22.884  47.925  49.302  1.00  0.00     0.034 A 
HETATM   23  C   UNL     1      22.292  48.988  48.609  1.00  0.00     0.044 A 
HETATM   24  C   UNL     1      23.088  49.999  48.093  1.00  0.00     0.116 A 
HETATM   25  F   UNL     1      22.523  51.016  47.430  1.00  0.00    -0.206 F 
HETATM   26  C   UNL     1      24.466  49.967  48.253  1.00  0.00     0.044 A 
HETATM   27  C   UNL     1      25.056  48.905  48.946  1.00  0.00     0.034 A 
ENDBRANCH   7  21
TORSDOF 2
ENDMDL
MODEL 6
REMARK VINA RESULT:      -9.4      8.140     10.989
REMARK  2 active torsions:
REMARK  status: ('A' for Active; 'I' for Inactive)
REMARK    1  A    between atoms: C_5  and  C_6 
REMARK    2  A    between atoms: N_12  and  C_13 
ROOT
HETATM    1  C   UNL     1      28.836  43.346  53.240  1.00  0.00     0.047 A 
HETATM    2  N   UNL     1      29.056  42.052  52.802  1.00  0.00    -0.344 N 
HETATM    3  C   UNL     1      28.440  41.558  51.685  1.00  0.00     0.119 A 
HETATM    4  C   UNL     1      27.664  42.343  50.918  1.00  0.00     0.123 A 
HETATM    5  C   UNL     1      27.239  41.532  49.766  1.00  0.00     0.280 A 
HETATM    6  O   UNL     1      26.536  41.928  48.853  1.00  0.00    -0.265 OA
HETATM    7  N   UNL     1      27.822  40.271  49.967  1.00  0.00    -0.236 N 
HETATM    8  N   UNL     1      28.542  40.275  51.182  1.00  0.00    -0.179 NA
HETATM    9  C   UNL     1      27.436  43.745  51.275  1.00  0.00     0.193 A 
HETATM   10  O   UNL     1      26.762  44.519  50.609  1.00  0.00    -0.287 OA
HETATM   11  C   UNL     1      28.079  44.211  52.540  1.00  0.00     0.086 A 
HETATM   12  H   UNL     1      29.435  41.387  53.468  1.00  0.00     0.167 HD
HETATM   13  H   UNL     1      29.523  40.024  51.052  1.00  0.00     0.155 HD
ENDROOT
BRANCH   1  14
HETATM   14  C   UNL     1      29.483  43.764  54.498  1.00  0.00    -0.009 A 
HETATM   15  C   UNL     1      29.120  44.956  55.139  1.00  0.00     0.014 A 
HETATM   16  C   UNL     1      29.737  45.339  56.333  1.00  0.00     0.007 A 
HETATM   17  C   UNL     1      30.733  44.542  56.905  1.00  0.00    -0.062 A 
HETATM   18  C   UNL     1      31.379  44.936  58.200  1.00  0.00     0.048 C 
HETATM   19  C   UNL     1      31.083  43.340  56.280  1.00  0.00     0.007 A 
HETATM   20  C   UNL     1      30.467  42.957  55.085  1.00  0.00     0.014 A 
ENDBRANCH   1  14
BRANCH   7  21
HETATM   21  C   UNL     1      27.728  39.098  49.188  1.00  0.00     0.055 A 
HETATM   22  C   UNL     1      26.863  38.053  49.549  1.00  0.00     0.034 A 
HETATM   23  C   UNL     1      26.765  36.897  48.765  1.00  0.00     0.044 A 
HETATM   24  C   UNL     1      27.536  36.778  47.618  1.00  0.00     0.116 A 
HETATM   25  F   UNL     1      27.443  35.672  46.868  1.00  0.00    -0.206 F 
HETATM   26  C   UNL     1      28.405  37.792  47.240  1.00  0.00     0.044 A 
HETATM   27  C   UNL     1      28.501  38.946  48.024  1.00  0.00     0.034 A 
ENDBRANCH   7  21
TORSDOF 2
ENDMDL
MODEL 7
REMARK VINA RESULT:      -9.0      2.376      3.484
REMARK  2 active torsions:
REMARK  status: ('A' for Active; 'I' for Inactive)
REMARK    1  A    between atoms: C_5  and  C_6 
REMARK    2  A    between atoms: N_12  and  C_13 
ROOT
HETATM    1  C   UNL     1      23.035  47.362  49.288  1.00  0.00     0.047 A 
HETATM    2  N   UNL     1      23.978  47.408  50.299  1.00  0.00    -0.344 N 
HETATM    3  C   UNL     1      24.735  46.315  50.624  1.00  0.00     0.119 A 
HETATM    4  C   UNL     1      24.653  45.179  49.911  1.00  0.00     0.123 A 
HETATM    5  C   UNL     1      25.651  44.251  50.465  1.00  0.00     0.280 A 
HETATM    6  O   UNL     1      25.868  43.126  50.050  1.00  0.00    -0.265 OA
HETATM    7  N   UNL     1      26.261  44.951  51.517  1.00  0.00    -0.236 N 
HETATM    8  N   UNL     1      25.667  46.226  51.641  1.00  0.00    -0.179 NA
HETATM    9  C   UNL     1      23.728  45.073  48.780  1.00  0.00     0.193 A 
HETATM   10  O   UNL     1      23.621  44.077  48.076  1.00  0.00    -0.287 OA
HETATM   11  C   UNL     1      22.879  46.272  48.513  1.00  0.00     0.086 A 
HETATM   12  H   UNL     1      23.897  48.150  50.987  1.00  0.00     0.167 HD
HETATM   13  H   UNL     1      26.348  46.981  51.562  1.00  0.00     0.155 HD
ENDROOT
BRANCH   1  14
HETATM   14  C   UNL     1      22.212  48.566  49.063  1.00  0.00    -0.009 A 
HETATM   15  C   UNL     1      20.835  48.468  48.829  1.00  0.00     0.014 A 
HETATM   16  C   UNL     1      20.065  49.616  48.621  1.00  0.00     0.007 A 
HETATM   17  C   UNL     1      20.658  50.882  48.637  1.00  0.00    -0.062 A 
HETATM   18  C   UNL     1      19.831  52.118  48.441  1.00  0.00     0.048 C 
HETATM   19  C   UNL     1      22.030  50.986  48.892  1.00  0.00     0.007 A 
HETATM   20  C   UNL     1      22.800  49.837  49.099  1.00  0.00     0.014 A 
ENDBRANCH   1  14
BRANCH   7  21
HETATM   21  C   UNL     1      27.271  44.536  52.413  1.00  0.00     0.055 A 
HETATM   22  C   UNL     1      27.244  44.916  53.764  1.00  0.00     0.034 A 
HETATM   23  C   UNL     1      28.241  44.491  54.651  1.00  0.00     0.044 A 
HETATM   24  C   UNL     1      29.272  43.687  54.190  1.00  0.00     0.116 A 
HETATM   25  F   UNL     1      30.226  43.280  55.037  1.00  0.00    -0.206 F 
HETATM   26  C   UNL     1      29.328  43.301  52.858  1.00  0.00     0.044 A 
HETATM   27  C   UNL     1      28.332  43.726  51.973  1.00  0.00     0.034 A 
ENDBRANCH   7  21
TORSDOF 2
ENDMDL
MODEL 8
REMARK VINA RESULT:      -8.9      8.115     10.279
REMARK  2 active torsions:
REMARK  status: ('A' for Active; 'I' for Inactive)
REMARK    1  A    between atoms: C_5  and  C_6 
REMARK    2  A    between atoms: N_12  and  C_13 
ROOT
HETATM    1  C   UNL     1      27.640  40.766  49.916  1.00  0.00     0.047 A 
HETATM    2  N   UNL     1      28.600  41.106  50.852  1.00  0.00    -0.344 N 
HETATM    3  C   UNL     1      28.370  42.063  51.802  1.00  0.00     0.119 A 
HETATM    4  C   UNL     1      27.166  42.648  51.918  1.00  0.00     0.123 A 
HETATM    5  C   UNL     1      27.236  43.549  53.080  1.00  0.00     0.280 A 
HETATM    6  O   UNL     1      26.315  44.232  53.491  1.00  0.00    -0.265 OA
HETATM    7  N   UNL     1      28.545  43.419  53.569  1.00  0.00    -0.236 N 
HETATM    8  N   UNL     1      29.265  42.519  52.752  1.00  0.00    -0.179 NA
HETATM    9  C   UNL     1      26.074  42.294  51.009  1.00  0.00     0.193 A 
HETATM   10  O   UNL     1      24.948  42.771  51.075  1.00  0.00    -0.287 OA
HETATM   11  C   UNL     1      26.401  41.293  49.950  1.00  0.00     0.086 A 
HETATM   12  H   UNL     1      29.564  40.862  50.649  1.00  0.00     0.167 HD
HETATM   13  H   UNL     1      29.647  41.735  53.281  1.00  0.00     0.155 HD
ENDROOT
BRANCH   1  14
HETATM   14  C   UNL     1      28.007  39.780  48.883  1.00  0.00    -0.009 A 
HETATM   15  C   UNL     1      27.575  39.924  47.558  1.00  0.00     0.014 A 
HETATM   16  C   UNL     1      27.933  38.985  46.586  1.00  0.00     0.007 A 
HETATM   17  C   UNL     1      28.724  37.882  46.922  1.00  0.00    -0.062 A 
HETATM   18  C   UNL     1      29.133  36.886  45.877  1.00  0.00     0.048 C 
HETATM   19  C   UNL     1      29.176  37.746  48.240  1.00  0.00     0.007 A 
HETATM   20  C   UNL     1      28.817  38.685  49.211  1.00  0.00     0.014 A 
ENDBRANCH   1  14
BRANCH   7  21
HETATM   21  C   UNL     1      29.173  44.070  54.652  1.00  0.00     0.055 A 
HETATM   22  C   UNL     1      28.677  45.280  55.160  1.00  0.00     0.034 A 
HETATM   23  C   UNL     1      29.297  45.915  56.242  1.00  0.00     0.044 A 
HETATM   24  C   UNL     1      30.420  45.344  56.821  1.00  0.00     0.116 A 
HETATM   25  F   UNL     1      31.014  45.951  57.857  1.00  0.00    -0.206 F 
HETATM   26  C   UNL     1      30.938  44.151  56.337  1.00  0.00     0.044 A 
HETATM   27  C   UNL     1      30.317  43.518  55.255  1.00  0.00     0.034 A 
ENDBRANCH   7  21
TORSDOF 2
ENDMDL
MODEL 9
REMARK VINA RESULT:      -8.4      7.254      9.305
REMARK  2 active torsions:
REMARK  status: ('A' for Active; 'I' for Inactive)
REMARK    1  A    between atoms: C_5  and  C_6 
REMARK    2  A    between atoms: N_12  and  C_13 
ROOT
HETATM    1  C   UNL     1      27.410  44.107  52.840  1.00  0.00     0.047 A 
HETATM    2  N   UNL     1      27.020  44.090  51.513  1.00  0.00    -0.344 N 
HETATM    3  C   UNL     1      27.276  43.017  50.703  1.00  0.00     0.119 A 
HETATM    4  C   UNL     1      27.840  41.899  51.192  1.00  0.00     0.123 A 
HETATM    5  C   UNL     1      27.889  40.925  50.091  1.00  0.00     0.280 A 
HETATM    6  O   UNL     1      28.324  39.791  50.178  1.00  0.00    -0.265 OA
HETATM    7  N   UNL     1      27.332  41.589  48.986  1.00  0.00    -0.236 N 
HETATM    8  N   UNL     1      26.981  42.906  49.357  1.00  0.00    -0.179 NA
HETATM    9  C   UNL     1      28.219  41.811  52.604  1.00  0.00     0.193 A 
HETATM   10  O   UNL     1      28.713  40.817  53.118  1.00  0.00    -0.287 OA
HETATM   11  C   UNL     1      27.978  43.036  53.425  1.00  0.00     0.086 A 
HETATM   12  H   UNL     1      26.814  44.980  51.069  1.00  0.00     0.167 HD
HETATM   13  H   UNL     1      25.994  43.105  49.195  1.00  0.00     0.155 HD
ENDROOT
BRANCH   1  14
HETATM   14  C   UNL     1      27.160  45.339  53.612  1.00  0.00    -0.009 A 
HETATM   15  C   UNL     1      26.114  46.207  53.273  1.00  0.00     0.014 A 
HETATM   16  C   UNL     1      25.885  47.369  54.015  1.00  0.00     0.007 A 
HETATM   17  C   UNL     1      26.700  47.688  55.106  1.00  0.00    -0.062 A 
HETATM   18  C   UNL     1      26.441  48.920  55.921  1.00  0.00     0.048 C 
HETATM   19  C   UNL     1      27.732  46.812  55.462  1.00  0.00     0.007 A 
HETATM   20  C   UNL     1      27.962  45.650  54.718  1.00  0.00     0.014 A 
ENDBRANCH   1  14
BRANCH   7  21
HETATM   21  C   UNL     1      27.152  41.141  47.660  1.00  0.00     0.055 A 
HETATM   22  C   UNL     1      28.245  40.970  46.796  1.00  0.00     0.034 A 
HETATM   23  C   UNL     1      28.062  40.514  45.485  1.00  0.00     0.044 A 
HETATM   24  C   UNL     1      26.783  40.230  45.030  1.00  0.00     0.116 A 
HETATM   25  F   UNL     1      26.607  39.794  43.776  1.00  0.00    -0.206 F 
HETATM   26  C   UNL     1      25.682  40.396  45.859  1.00  0.00     0.044 A 
HETATM   27  C   UNL     1      25.867  40.852  47.168  1.00  0.00     0.034 A 
ENDBRANCH   7  21
TORSDOF 2
ENDMDL
MODEL 10
REMARK VINA RESULT:      -8.3      2.882      3.737
REMARK  2 active torsions:
REMARK  status: ('A' for Active; 'I' for Inactive)
REMARK    1  A    between atoms: C_5  and  C_6 
REMARK    2  A    between atoms: N_12  and  C_13 
ROOT
HETATM    1  C   UNL     1      23.533  48.211  49.228  1.00  0.00     0.047 A 
HETATM    2  N   UNL     1      23.295  46.850  49.301  1.00  0.00    -0.344 N 
HETATM    3  C   UNL     1      24.319  45.947  49.400  1.00  0.00     0.119 A 
HETATM    4  C   UNL     1      25.593  46.355  49.520  1.00  0.00     0.123 A 
HETATM    5  C   UNL     1      26.417  45.148  49.693  1.00  0.00     0.280 A 
HETATM    6  O   UNL     1      27.625  45.142  49.850  1.00  0.00    -0.265 OA
HETATM    7  N   UNL     1      25.513  44.075  49.648  1.00  0.00    -0.236 N 
HETATM    8  N   UNL     1      24.208  44.569  49.430  1.00  0.00    -0.179 NA
HETATM    9  C   UNL     1      25.923  47.782  49.521  1.00  0.00     0.193 A 
HETATM   10  O   UNL     1      27.058  48.222  49.651  1.00  0.00    -0.287 OA
HETATM   11  C   UNL     1      24.774  48.720  49.343  1.00  0.00     0.086 A 
HETATM   12  H   UNL     1      22.393  46.511  48.984  1.00  0.00     0.167 HD
HETATM   13  H   UNL     1      23.557  44.284  50.162  1.00  0.00     0.155 HD
ENDROOT
BRANCH   1  14
HETATM   14  C   UNL     1      22.372  49.101  49.043  1.00  0.00    -0.009 A 
HETATM   15  C   UNL     1      22.488  50.487  49.209  1.00  0.00     0.014 A 
HETATM   16  C   UNL     1      21.381  51.321  49.028  1.00  0.00     0.007 A 
HETATM   17  C   UNL     1      20.136  50.784  48.683  1.00  0.00    -0.062 A 
HETATM   18  C   UNL     1      18.952  51.678  48.461  1.00  0.00     0.048 C 
HETATM   19  C   UNL     1      20.021  49.403  48.494  1.00  0.00     0.007 A 
HETATM   20  C   UNL     1      21.128  48.569  48.678  1.00  0.00     0.014 A 
ENDBRANCH   1  14
BRANCH   7  21
HETATM   21  C   UNL     1      25.753  42.687  49.735  1.00  0.00     0.055 A 
HETATM   22  C   UNL     1      26.212  42.101  50.925  1.00  0.00     0.034 A 
HETATM   23  C   UNL     1      26.436  40.722  51.008  1.00  0.00     0.044 A 
HETATM   24  C   UNL     1      26.207  39.921  49.900  1.00  0.00     0.116 A 
HETATM   25  F   UNL     1      26.422  38.602  49.978  1.00  0.00    -0.206 F 
HETATM   26  C   UNL     1      25.760  40.473  48.707  1.00  0.00     0.044 A 
HETATM   27  C   UNL     1      25.536  41.851  48.625  1.00  0.00     0.034 A 
ENDBRANCH   7  21
TORSDOF 2
ENDMDL
