MODEL 1
REMARK VINA RESULT:     -10.1      0.000      0.000
REMARK  5 active torsions:
REMARK  status: ('A' for Active; 'I' for Inactive)
REMARK    1  A    between atoms: O_1  and  C_2 
REMARK    2  A    between atoms: C_6  and  C_7 
REMARK    3  A    between atoms: C_7  and  N_8 
REMARK       I    between atoms: N_8  and  C_9 
REMARK    4  A    between atoms: C_9  and  C_11 
REMARK    5  A    between atoms: C_14  and  C_17 
ROOT
HETATM    1  N   UNL     1      25.732  46.343  51.625  1.00  0.00    -0.353 N 
HETATM    2  C   UNL     1      25.820  46.939  52.864  1.00  0.00     0.251 C 
HETATM    3  O   UNL     1      25.082  47.844  53.238  1.00  0.00    -0.268 OA
HETATM    4  H   UNL     1      26.486  45.757  51.302  1.00  0.00     0.163 HD
ENDROOT
BRANCH   2   5
HETATM    5  C   UNL     1      26.916  46.461  53.752  1.00  0.00     0.032 A 
HETATM    6  C   UNL     1      27.351  45.139  53.614  1.00  0.00     0.018 A 
HETATM    7  C   UNL     1      28.362  44.636  54.440  1.00  0.00     0.013 A 
HETATM    8  C   UNL     1      28.972  45.444  55.414  1.00  0.00    -0.026 A 
HETATM    9  C   UNL     1      28.542  46.778  55.523  1.00  0.00     0.013 A 
HETATM   10  C   UNL     1      27.527  47.286  54.702  1.00  0.00     0.018 A 
BRANCH   8  11
HETATM   11  C   UNL     1      30.026  44.907  56.295  1.00  0.00    -0.023 A 
HETATM   12  C   UNL     1      30.817  43.818  55.906  1.00  0.00     0.031 A 
HETATM   13  C   UNL     1      31.789  43.343  56.773  1.00  0.00     0.117 A 
HETATM   14  N   UNL     1      32.030  43.870  57.990  1.00  0.00    -0.273 NA
HETATM   15  C   UNL     1      31.265  44.919  58.355  1.00  0.00     0.117 A 
HETATM   16  C   UNL     1      30.270  45.462  57.557  1.00  0.00     0.031 A 
ENDBRANCH   8  11
ENDBRANCH   2   5
BRANCH   1  17
HETATM   17  C   UNL     1      24.807  46.819  50.620  1.00  0.00     0.161 C 
BRANCH  17  18
HETATM   18  C   UNL     1      25.432  47.916  49.796  1.00  0.00    -0.038 A 
HETATM   19  C   UNL     1      26.825  48.094  49.790  1.00  0.00     0.009 A 
HETATM   20  C   UNL     1      27.409  49.102  49.019  1.00  0.00     0.003 A 
HETATM   21  C   UNL     1      26.610  49.946  48.248  1.00  0.00     0.036 A 
HETATM   22  C   UNL     1      25.229  49.772  48.255  1.00  0.00     0.066 A 
HETATM   23  C   UNL     1      24.638  48.767  49.016  1.00  0.00     0.045 A 
BRANCH  22  24
HETATM   24  O   UNL     1      24.409  50.576  47.520  1.00  0.00    -0.361 OA
HETATM   25  H   UNL     1      24.611  51.501  47.735  1.00  0.00     0.217 HD
ENDBRANCH  22  24
ENDBRANCH  17  18
ENDBRANCH   1  17
TORSDOF 5
ENDMDL
MODEL 2
REMARK VINA RESULT:      -8.9      5.410      6.758
REMARK  5 active torsions:
REMARK  status: ('A' for Active; 'I' for Inactive)
REMARK    1  A    between atoms: O_1  and  C_2 
REMARK    2  A    between atoms: C_6  and  C_7 
REMARK    3  A    between atoms: C_7  and  N_8 
REMARK       I    between atoms: N_8  and  C_9 
REMARK    4  A    between atoms: C_9  and  C_11 
REMARK    5  A    between atoms: C_14  and  C_17 
ROOT
HETATM    1  N   UNL     1      27.314  41.622  50.736  1.00  0.00    -0.353 N 
HETATM    2  C   UNL     1      27.598  42.957  50.919  1.00  0.00     0.251 C 
HETATM    3  O   UNL     1      27.364  43.823  50.083  1.00  0.00    -0.268 OA
HETATM    4  H   UNL     1      27.712  40.939  51.364  1.00  0.00     0.163 HD
ENDROOT
BRANCH   2   5
HETATM    5  C   UNL     1      28.268  43.323  52.198  1.00  0.00     0.032 A 
HETATM    6  C   UNL     1      29.448  42.656  52.540  1.00  0.00     0.018 A 
HETATM    7  C   UNL     1      30.103  42.947  53.742  1.00  0.00     0.013 A 
HETATM    8  C   UNL     1      29.603  43.919  54.624  1.00  0.00    -0.026 A 
HETATM    9  C   UNL     1      28.430  44.600  54.252  1.00  0.00     0.013 A 
HETATM   10  C   UNL     1      27.767  44.310  53.053  1.00  0.00     0.018 A 
BRANCH   8  11
HETATM   11  C   UNL     1      30.285  44.213  55.897  1.00  0.00    -0.023 A 
HETATM   12  C   UNL     1      31.248  43.344  56.426  1.00  0.00     0.031 A 
HETATM   13  C   UNL     1      31.855  43.660  57.632  1.00  0.00     0.117 A 
HETATM   14  N   UNL     1      31.576  44.769  58.345  1.00  0.00    -0.273 NA
HETATM   15  C   UNL     1      30.649  45.600  57.828  1.00  0.00     0.117 A 
HETATM   16  C   UNL     1      29.989  45.370  56.630  1.00  0.00     0.031 A 
ENDBRANCH   8  11
ENDBRANCH   2   5
BRANCH   1  17
HETATM   17  C   UNL     1      26.801  41.121  49.479  1.00  0.00     0.161 C 
BRANCH  17  18
HETATM   18  C   UNL     1      27.631  39.963  48.987  1.00  0.00    -0.038 A 
HETATM   19  C   UNL     1      27.250  39.253  47.837  1.00  0.00     0.009 A 
HETATM   20  C   UNL     1      28.022  38.186  47.372  1.00  0.00     0.003 A 
HETATM   21  C   UNL     1      29.182  37.813  48.051  1.00  0.00     0.036 A 
HETATM   22  C   UNL     1      29.559  38.514  49.192  1.00  0.00     0.066 A 
HETATM   23  C   UNL     1      28.799  39.581  49.661  1.00  0.00     0.045 A 
BRANCH  22  24
HETATM   24  O   UNL     1      30.683  38.181  49.890  1.00  0.00    -0.361 OA
HETATM   25  H   UNL     1      30.562  37.292  50.261  1.00  0.00     0.217 HD
ENDBRANCH  22  24
ENDBRANCH  17  18
ENDBRANCH   1  17
TORSDOF 5
ENDMDL
MODEL 3
REMARK VINA RESULT:      -8.8      2.995      9.151
REMARK  5 active torsions:
REMARK  status: ('A' for Active; 'I' for Inactive)
REMARK    1  A    between atoms: O_1  and  C_2 
REMARK    2  A    between atoms: C_6  and  C_7 
REMARK    3  A    between atoms: C_7  and  N_8 
REMARK       I    between atoms: N_8  and  C_9 
REMARK    4  A    between atoms: C_9  and  C_11 
REMARK    5  A    between atoms: C_14  and  C_17 
ROOT
HETATM    1  N   UNL     1      28.496  44.320  53.221  1.00  0.00    -0.353 N 
HETATM    2  C   UNL     1      27.345  43.969  52.550  1.00  0.00     0.251 C 
HETATM    3  O   UNL     1      26.873  42.838  52.557  1.00  0.00    -0.268 OA
HETATM    4  H   UNL     1      28.942  45.201  53.012  1.00  0.00     0.163 HD
ENDROOT
BRANCH   2   5
HETATM    5  C   UNL     1      26.694  45.039  51.745  1.00  0.00     0.032 A 
HETATM    6  C   UNL     1      26.696  44.913  50.353  1.00  0.00     0.018 A 
HETATM    7  C   UNL     1      26.117  45.903  49.551  1.00  0.00     0.013 A 
HETATM    8  C   UNL     1      25.512  47.036  50.120  1.00  0.00    -0.026 A 
HETATM    9  C   UNL     1      25.495  47.135  51.523  1.00  0.00     0.013 A 
HETATM   10  C   UNL     1      26.076  46.149  52.331  1.00  0.00     0.018 A 
BRANCH   8  11
HETATM   11  C   UNL     1      24.917  48.086  49.274  1.00  0.00    -0.023 A 
HETATM   12  C   UNL     1      25.689  49.142  48.771  1.00  0.00     0.031 A 
HETATM   13  C   UNL     1      25.082  50.111  47.988  1.00  0.00     0.117 A 
HETATM   14  N   UNL     1      23.772  50.106  47.670  1.00  0.00    -0.273 NA
HETATM   15  C   UNL     1      23.037  49.086  48.157  1.00  0.00     0.117 A 
HETATM   16  C   UNL     1      23.555  48.072  48.948  1.00  0.00     0.031 A 
ENDBRANCH   8  11
ENDBRANCH   2   5
BRANCH   1  17
HETATM   17  C   UNL     1      29.300  43.338  53.914  1.00  0.00     0.161 C 
BRANCH  17  18
HETATM   18  C   UNL     1      29.863  43.912  55.189  1.00  0.00    -0.038 A 
HETATM   19  C   UNL     1      29.364  45.117  55.707  1.00  0.00     0.009 A 
HETATM   20  C   UNL     1      29.874  45.647  56.894  1.00  0.00     0.003 A 
HETATM   21  C   UNL     1      30.893  44.982  57.576  1.00  0.00     0.036 A 
HETATM   22  C   UNL     1      31.390  43.788  57.063  1.00  0.00     0.066 A 
HETATM   23  C   UNL     1      30.884  43.249  55.884  1.00  0.00     0.045 A 
BRANCH  22  24
HETATM   24  O   UNL     1      32.387  43.105  57.695  1.00  0.00    -0.361 OA
HETATM   25  H   UNL     1      31.996  42.343  58.153  1.00  0.00     0.217 HD
ENDBRANCH  22  24
ENDBRANCH  17  18
ENDBRANCH   1  17
TORSDOF 5
ENDMDL
MODEL 4
REMARK VINA RESULT:      -8.7      3.004      8.892
REMARK  5 active torsions:
REMARK  status: ('A' for Active; 'I' for Inactive)
REMARK    1  A    between atoms: O_1  and  C_2 
REMARK    2  A    between atoms: C_6  and  C_7 
REMARK    3  A    between atoms: C_7  and  N_8 
REMARK       I    between atoms: N_8  and  C_9 
REMARK    4  A    between atoms: C_9  and  C_11 
REMARK    5  A    between atoms: C_14  and  C_17 
ROOT
HETATM    1  N   UNL     1      28.794  44.172  53.376  1.00  0.00    -0.353 N 
HETATM    2  C   UNL     1      27.637  43.863  52.696  1.00  0.00     0.251 C 
HETATM    3  O   UNL     1      27.121  42.751  52.702  1.00  0.00    -0.268 OA
HETATM    4  H   UNL     1      29.275  45.035  53.170  1.00  0.00     0.163 HD
ENDROOT
BRANCH   2   5
HETATM    5  C   UNL     1      27.034  44.956  51.883  1.00  0.00     0.032 A 
HETATM    6  C   UNL     1      27.173  44.899  50.493  1.00  0.00     0.018 A 
HETATM    7  C   UNL     1      26.645  45.913  49.686  1.00  0.00     0.013 A 
HETATM    8  C   UNL     1      25.955  47.001  50.247  1.00  0.00    -0.026 A 
HETATM    9  C   UNL     1      25.801  47.030  51.644  1.00  0.00     0.013 A 
HETATM   10  C   UNL     1      26.331  46.020  52.457  1.00  0.00     0.018 A 
BRANCH   8  11
HETATM   11  C   UNL     1      25.413  48.077  49.397  1.00  0.00    -0.023 A 
HETATM   12  C   UNL     1      24.037  48.203  49.169  1.00  0.00     0.031 A 
HETATM   13  C   UNL     1      23.576  49.226  48.354  1.00  0.00     0.117 A 
HETATM   14  N   UNL     1      24.380  50.127  47.754  1.00  0.00    -0.273 NA
HETATM   15  C   UNL     1      25.703  49.998  47.980  1.00  0.00     0.117 A 
HETATM   16  C   UNL     1      26.256  49.009  48.779  1.00  0.00     0.031 A 
ENDBRANCH   8  11
ENDBRANCH   2   5
BRANCH   1  17
HETATM   17  C   UNL     1      29.553  43.161  54.079  1.00  0.00     0.161 C 
BRANCH  17  18
HETATM   18  C   UNL     1      30.078  43.700  55.386  1.00  0.00    -0.038 A 
HETATM   19  C   UNL     1      31.123  43.045  56.056  1.00  0.00     0.009 A 
HETATM   20  C   UNL     1      31.619  43.547  57.262  1.00  0.00     0.003 A 
HETATM   21  C   UNL     1      31.075  44.706  57.814  1.00  0.00     0.036 A 
HETATM   22  C   UNL     1      30.037  45.354  57.152  1.00  0.00     0.066 A 
HETATM   23  C   UNL     1      29.539  44.865  55.948  1.00  0.00     0.045 A 
BRANCH  22  24
HETATM   24  O   UNL     1      29.472  46.488  57.657  1.00  0.00    -0.361 OA
HETATM   25  H   UNL     1      30.176  47.136  57.821  1.00  0.00     0.217 HD
ENDBRANCH  22  24
ENDBRANCH  17  18
ENDBRANCH   1  17
TORSDOF 5
ENDMDL
MODEL 5
REMARK VINA RESULT:      -8.7      2.555      3.387
REMARK  5 active torsions:
REMARK  status: ('A' for Active; 'I' for Inactive)
REMARK    1  A    between atoms: O_1  and  C_2 
REMARK    2  A    between atoms: C_6  and  C_7 
REMARK    3  A    between atoms: C_7  and  N_8 
REMARK       I    between atoms: N_8  and  C_9 
REMARK    4  A    between atoms: C_9  and  C_11 
REMARK    5  A    between atoms: C_14  and  C_17 
ROOT
HETATM    1  N   UNL     1      26.432  44.066  50.484  1.00  0.00    -0.353 N 
HETATM    2  C   UNL     1      27.327  43.120  50.933  1.00  0.00     0.251 C 
HETATM    3  O   UNL     1      27.519  42.046  50.374  1.00  0.00    -0.268 OA
HETATM    4  H   UNL     1      26.171  44.830  51.091  1.00  0.00     0.163 HD
ENDROOT
BRANCH   2   5
HETATM    5  C   UNL     1      28.048  43.438  52.197  1.00  0.00     0.032 A 
HETATM    6  C   UNL     1      29.261  42.789  52.447  1.00  0.00     0.018 A 
HETATM    7  C   UNL     1      29.966  43.035  53.630  1.00  0.00     0.013 A 
HETATM    8  C   UNL     1      29.483  43.944  54.586  1.00  0.00    -0.026 A 
HETATM    9  C   UNL     1      28.275  44.609  54.307  1.00  0.00     0.013 A 
HETATM   10  C   UNL     1      27.564  44.363  53.126  1.00  0.00     0.018 A 
BRANCH   8  11
HETATM   11  C   UNL     1      30.218  44.191  55.840  1.00  0.00    -0.023 A 
HETATM   12  C   UNL     1      31.183  43.290  56.309  1.00  0.00     0.031 A 
HETATM   13  C   UNL     1      31.841  43.561  57.499  1.00  0.00     0.117 A 
HETATM   14  N   UNL     1      31.610  44.656  58.251  1.00  0.00    -0.273 NA
HETATM   15  C   UNL     1      30.681  45.518  57.791  1.00  0.00     0.117 A 
HETATM   16  C   UNL     1      29.973  45.333  56.614  1.00  0.00     0.031 A 
ENDBRANCH   8  11
ENDBRANCH   2   5
BRANCH   1  17
HETATM   17  C   UNL     1      25.565  43.814  49.354  1.00  0.00     0.161 C 
BRANCH  17  18
HETATM   18  C   UNL     1      24.596  44.952  49.159  1.00  0.00    -0.038 A 
HETATM   19  C   UNL     1      23.508  44.818  48.282  1.00  0.00     0.009 A 
HETATM   20  C   UNL     1      22.602  45.866  48.108  1.00  0.00     0.003 A 
HETATM   21  C   UNL     1      22.774  47.063  48.803  1.00  0.00     0.036 A 
HETATM   22  C   UNL     1      23.853  47.198  49.671  1.00  0.00     0.066 A 
HETATM   23  C   UNL     1      24.759  46.158  49.856  1.00  0.00     0.045 A 
BRANCH  22  24
HETATM   24  O   UNL     1      24.062  48.351  50.368  1.00  0.00    -0.361 OA
HETATM   25  H   UNL     1      24.847  48.792  50.005  1.00  0.00     0.217 HD
ENDBRANCH  22  24
ENDBRANCH  17  18
ENDBRANCH   1  17
TORSDOF 5
ENDMDL
MODEL 6
REMARK VINA RESULT:      -8.6      3.899      6.480
REMARK  5 active torsions:
REMARK  status: ('A' for Active; 'I' for Inactive)
REMARK    1  A    between atoms: O_1  and  C_2 
REMARK    2  A    between atoms: C_6  and  C_7 
REMARK    3  A    between atoms: C_7  and  N_8 
REMARK       I    between atoms: N_8  and  C_9 
REMARK    4  A    between atoms: C_9  and  C_11 
REMARK    5  A    between atoms: C_14  and  C_17 
ROOT
HETATM    1  N   UNL     1      22.917  50.286  49.069  1.00  0.00    -0.353 N 
HETATM    2  C   UNL     1      24.010  49.736  48.436  1.00  0.00     0.251 C 
HETATM    3  O   UNL     1      24.397  50.079  47.325  1.00  0.00    -0.268 OA
HETATM    4  H   UNL     1      22.529  49.827  49.879  1.00  0.00     0.163 HD
ENDROOT
BRANCH   2   5
HETATM    5  C   UNL     1      24.704  48.631  49.155  1.00  0.00     0.032 A 
HETATM    6  C   UNL     1      23.930  47.586  49.668  1.00  0.00     0.018 A 
HETATM    7  C   UNL     1      24.532  46.537  50.371  1.00  0.00     0.013 A 
HETATM    8  C   UNL     1      25.922  46.499  50.567  1.00  0.00    -0.026 A 
HETATM    9  C   UNL     1      26.690  47.544  50.022  1.00  0.00     0.013 A 
HETATM   10  C   UNL     1      26.092  48.599  49.321  1.00  0.00     0.018 A 
BRANCH   8  11
HETATM   11  C   UNL     1      26.554  45.401  51.322  1.00  0.00    -0.023 A 
HETATM   12  C   UNL     1      27.097  44.287  50.671  1.00  0.00     0.031 A 
HETATM   13  C   UNL     1      27.671  43.275  51.425  1.00  0.00     0.117 A 
HETATM   14  N   UNL     1      27.745  43.293  52.771  1.00  0.00    -0.273 NA
HETATM   15  C   UNL     1      27.221  44.370  53.389  1.00  0.00     0.117 A 
HETATM   16  C   UNL     1      26.627  45.430  52.721  1.00  0.00     0.031 A 
ENDBRANCH   8  11
ENDBRANCH   2   5
BRANCH   1  17
HETATM   17  C   UNL     1      22.073  51.261  48.412  1.00  0.00     0.161 C 
BRANCH  17  18
HETATM   18  C   UNL     1      20.673  51.216  48.970  1.00  0.00    -0.038 A 
HETATM   19  C   UNL     1      19.691  52.102  48.498  1.00  0.00     0.009 A 
HETATM   20  C   UNL     1      18.390  52.056  49.004  1.00  0.00     0.003 A 
HETATM   21  C   UNL     1      18.055  51.128  49.990  1.00  0.00     0.036 A 
HETATM   22  C   UNL     1      19.027  50.251  50.460  1.00  0.00     0.066 A 
HETATM   23  C   UNL     1      20.326  50.285  49.959  1.00  0.00     0.045 A 
BRANCH  22  24
HETATM   24  O   UNL     1      18.746  49.330  51.425  1.00  0.00    -0.361 OA
HETATM   25  H   UNL     1      19.465  48.678  51.448  1.00  0.00     0.217 HD
ENDBRANCH  22  24
ENDBRANCH  17  18
ENDBRANCH   1  17
TORSDOF 5
ENDMDL
MODEL 7
REMARK VINA RESULT:      -8.3      2.808      4.076
REMARK  5 active torsions:
REMARK  status: ('A' for Active; 'I' for Inactive)
REMARK    1  A    between atoms: O_1  and  C_2 
REMARK    2  A    between atoms: C_6  and  C_7 
REMARK    3  A    between atoms: C_7  and  N_8 
REMARK       I    between atoms: N_8  and  C_9 
REMARK    4  A    between atoms: C_9  and  C_11 
REMARK    5  A    between atoms: C_14  and  C_17 
ROOT
HETATM    1  N   UNL     1      25.418  45.384  51.521  1.00  0.00    -0.353 N 
HETATM    2  C   UNL     1      25.733  46.372  52.428  1.00  0.00     0.251 C 
HETATM    3  O   UNL     1      25.211  47.481  52.434  1.00  0.00    -0.268 OA
HETATM    4  H   UNL     1      26.019  44.577  51.438  1.00  0.00     0.163 HD
ENDROOT
BRANCH   2   5
HETATM    5  C   UNL     1      26.806  46.053  53.411  1.00  0.00     0.032 A 
HETATM    6  C   UNL     1      27.373  44.775  53.378  1.00  0.00     0.018 A 
HETATM    7  C   UNL     1      28.368  44.419  54.294  1.00  0.00     0.013 A 
HETATM    8  C   UNL     1      28.830  45.332  55.257  1.00  0.00    -0.026 A 
HETATM    9  C   UNL     1      28.268  46.621  55.259  1.00  0.00     0.013 A 
HETATM   10  C   UNL     1      27.269  46.983  54.347  1.00  0.00     0.018 A 
BRANCH   8  11
HETATM   11  C   UNL     1      29.867  44.950  56.233  1.00  0.00    -0.023 A 
HETATM   12  C   UNL     1      30.769  43.911  55.968  1.00  0.00     0.031 A 
HETATM   13  C   UNL     1      31.720  43.582  56.922  1.00  0.00     0.117 A 
HETATM   14  N   UNL     1      31.839  44.207  58.110  1.00  0.00    -0.273 NA
HETATM   15  C   UNL     1      30.967  45.206  58.355  1.00  0.00     0.117 A 
HETATM   16  C   UNL     1      29.983  45.606  57.464  1.00  0.00     0.031 A 
ENDBRANCH   8  11
ENDBRANCH   2   5
BRANCH   1  17
HETATM   17  C   UNL     1      24.502  45.622  50.428  1.00  0.00     0.161 C 
BRANCH  17  18
HETATM   18  C   UNL     1      24.084  44.322  49.789  1.00  0.00    -0.038 A 
HETATM   19  C   UNL     1      22.966  44.274  48.941  1.00  0.00     0.009 A 
HETATM   20  C   UNL     1      22.582  43.074  48.338  1.00  0.00     0.003 A 
HETATM   21  C   UNL     1      23.306  41.907  48.578  1.00  0.00     0.036 A 
HETATM   22  C   UNL     1      24.413  41.953  49.420  1.00  0.00     0.066 A 
HETATM   23  C   UNL     1      24.807  43.144  50.022  1.00  0.00     0.045 A 
BRANCH  22  24
HETATM   24  O   UNL     1      25.148  40.836  49.687  1.00  0.00    -0.361 OA
HETATM   25  H   UNL     1      24.765  40.392  50.461  1.00  0.00     0.217 HD
ENDBRANCH  22  24
ENDBRANCH  17  18
ENDBRANCH   1  17
TORSDOF 5
ENDMDL
MODEL 8
REMARK VINA RESULT:      -8.1      5.071     10.976
REMARK  5 active torsions:
REMARK  status: ('A' for Active; 'I' for Inactive)
REMARK    1  A    between atoms: O_1  and  C_2 
REMARK    2  A    between atoms: C_6  and  C_7 
REMARK    3  A    between atoms: C_7  and  N_8 
REMARK       I    between atoms: N_8  and  C_9 
REMARK    4  A    between atoms: C_9  and  C_11 
REMARK    5  A    between atoms: C_14  and  C_17 
ROOT
HETATM    1  N   UNL     1      24.798  48.838  49.278  1.00  0.00    -0.353 N 
HETATM    2  C   UNL     1      24.354  49.709  48.308  1.00  0.00     0.251 C 
HETATM    3  O   UNL     1      25.054  50.118  47.389  1.00  0.00    -0.268 OA
HETATM    4  H   UNL     1      24.246  48.701  50.112  1.00  0.00     0.163 HD
ENDROOT
BRANCH   2   5
HETATM    5  C   UNL     1      22.952  50.194  48.444  1.00  0.00     0.032 A 
HETATM    6  C   UNL     1      22.080  50.007  47.367  1.00  0.00     0.018 A 
HETATM    7  C   UNL     1      20.760  50.465  47.437  1.00  0.00     0.013 A 
HETATM    8  C   UNL     1      20.275  51.109  48.588  1.00  0.00    -0.026 A 
HETATM    9  C   UNL     1      21.157  51.265  49.672  1.00  0.00     0.013 A 
HETATM   10  C   UNL     1      22.481  50.812  49.607  1.00  0.00     0.018 A 
BRANCH   8  11
HETATM   11  C   UNL     1      18.888  51.606  48.655  1.00  0.00    -0.023 A 
HETATM   12  C   UNL     1      18.054  51.590  47.529  1.00  0.00     0.031 A 
HETATM   13  C   UNL     1      16.760  52.077  47.639  1.00  0.00     0.117 A 
HETATM   14  N   UNL     1      16.241  52.574  48.779  1.00  0.00    -0.273 NA
HETATM   15  C   UNL     1      17.051  52.585  49.857  1.00  0.00     0.117 A 
HETATM   16  C   UNL     1      18.357  52.119  49.844  1.00  0.00     0.031 A 
ENDBRANCH   8  11
ENDBRANCH   2   5
BRANCH   1  17
HETATM   17  C   UNL     1      26.179  48.412  49.340  1.00  0.00     0.161 C 
BRANCH  17  18
HETATM   18  C   UNL     1      26.313  47.151  50.154  1.00  0.00    -0.038 A 
HETATM   19  C   UNL     1      26.021  47.156  51.527  1.00  0.00     0.009 A 
HETATM   20  C   UNL     1      26.133  45.986  52.282  1.00  0.00     0.003 A 
HETATM   21  C   UNL     1      26.543  44.799  51.676  1.00  0.00     0.036 A 
HETATM   22  C   UNL     1      26.835  44.793  50.316  1.00  0.00     0.066 A 
HETATM   23  C   UNL     1      26.722  45.952  49.554  1.00  0.00     0.045 A 
BRANCH  22  24
HETATM   24  O   UNL     1      27.243  43.656  49.683  1.00  0.00    -0.361 OA
HETATM   25  H   UNL     1      27.817  43.906  48.941  1.00  0.00     0.217 HD
ENDBRANCH  22  24
ENDBRANCH  17  18
ENDBRANCH   1  17
TORSDOF 5
ENDMDL
MODEL 9
REMARK VINA RESULT:      -8.1      2.910      4.004
REMARK  5 active torsions:
REMARK  status: ('A' for Active; 'I' for Inactive)
REMARK    1  A    between atoms: O_1  and  C_2 
REMARK    2  A    between atoms: C_6  and  C_7 
REMARK    3  A    between atoms: C_7  and  N_8 
REMARK       I    between atoms: N_8  and  C_9 
REMARK    4  A    between atoms: C_9  and  C_11 
REMARK    5  A    between atoms: C_14  and  C_17 
ROOT
HETATM    1  N   UNL     1      26.568  45.151  50.643  1.00  0.00    -0.353 N 
HETATM    2  C   UNL     1      26.104  45.194  51.940  1.00  0.00     0.251 C 
HETATM    3  O   UNL     1      24.940  45.437  52.237  1.00  0.00    -0.268 OA
HETATM    4  H   UNL     1      27.563  45.151  50.472  1.00  0.00     0.163 HD
ENDROOT
BRANCH   2   5
HETATM    5  C   UNL     1      27.114  44.975  53.013  1.00  0.00     0.032 A 
HETATM    6  C   UNL     1      27.170  45.894  54.065  1.00  0.00     0.018 A 
HETATM    7  C   UNL     1      28.115  45.745  55.085  1.00  0.00     0.013 A 
HETATM    8  C   UNL     1      29.019  44.670  55.086  1.00  0.00    -0.026 A 
HETATM    9  C   UNL     1      28.933  43.740  54.035  1.00  0.00     0.013 A 
HETATM   10  C   UNL     1      27.991  43.886  53.008  1.00  0.00     0.018 A 
BRANCH   8  11
HETATM   11  C   UNL     1      30.026  44.523  56.153  1.00  0.00    -0.023 A 
HETATM   12  C   UNL     1      30.048  45.384  57.259  1.00  0.00     0.031 A 
HETATM   13  C   UNL     1      31.021  45.212  58.231  1.00  0.00     0.117 A 
HETATM   14  N   UNL     1      31.966  44.253  58.185  1.00  0.00    -0.273 NA
HETATM   15  C   UNL     1      31.937  43.429  57.118  1.00  0.00     0.117 A 
HETATM   16  C   UNL     1      31.004  43.523  56.097  1.00  0.00     0.031 A 
ENDBRANCH   8  11
ENDBRANCH   2   5
BRANCH   1  17
HETATM   17  C   UNL     1      25.720  45.493  49.523  1.00  0.00     0.161 C 
BRANCH  17  18
HETATM   18  C   UNL     1      24.854  44.323  49.133  1.00  0.00    -0.038 A 
HETATM   19  C   UNL     1      25.371  43.018  49.150  1.00  0.00     0.009 A 
HETATM   20  C   UNL     1      24.568  41.929  48.800  1.00  0.00     0.003 A 
HETATM   21  C   UNL     1      23.241  42.132  48.424  1.00  0.00     0.036 A 
HETATM   22  C   UNL     1      22.727  43.424  48.404  1.00  0.00     0.066 A 
HETATM   23  C   UNL     1      23.517  44.515  48.756  1.00  0.00     0.045 A 
BRANCH  22  24
HETATM   24  O   UNL     1      21.436  43.669  48.040  1.00  0.00    -0.361 OA
HETATM   25  H   UNL     1      20.972  44.062  48.797  1.00  0.00     0.217 HD
ENDBRANCH  22  24
ENDBRANCH  17  18
ENDBRANCH   1  17
TORSDOF 5
ENDMDL
MODEL 10
REMARK VINA RESULT:      -8.0      5.391     11.256
REMARK  5 active torsions:
REMARK  status: ('A' for Active; 'I' for Inactive)
REMARK    1  A    between atoms: O_1  and  C_2 
REMARK    2  A    between atoms: C_6  and  C_7 
REMARK    3  A    between atoms: C_7  and  N_8 
REMARK       I    between atoms: N_8  and  C_9 
REMARK    4  A    between atoms: C_9  and  C_11 
REMARK    5  A    between atoms: C_14  and  C_17 
ROOT
HETATM    1  N   UNL     1      23.695  48.205  49.773  1.00  0.00    -0.353 N 
HETATM    2  C   UNL     1      23.338  49.075  48.767  1.00  0.00     0.251 C 
HETATM    3  O   UNL     1      24.079  49.387  47.841  1.00  0.00    -0.268 OA
HETATM    4  H   UNL     1      23.127  48.148  50.605  1.00  0.00     0.163 HD
ENDROOT
BRANCH   2   5
HETATM    5  C   UNL     1      21.984  49.688  48.870  1.00  0.00     0.032 A 
HETATM    6  C   UNL     1      20.926  48.883  49.305  1.00  0.00     0.018 A 
HETATM    7  C   UNL     1      19.632  49.405  49.397  1.00  0.00     0.013 A 
HETATM    8  C   UNL     1      19.364  50.745  49.071  1.00  0.00    -0.026 A 
HETATM    9  C   UNL     1      20.444  51.548  48.661  1.00  0.00     0.013 A 
HETATM   10  C   UNL     1      21.741  51.030  48.563  1.00  0.00     0.018 A 
BRANCH   8  11
HETATM   11  C   UNL     1      17.996  51.289  49.153  1.00  0.00    -0.023 A 
HETATM   12  C   UNL     1      17.721  52.467  49.860  1.00  0.00     0.031 A 
HETATM   13  C   UNL     1      16.417  52.934  49.917  1.00  0.00     0.117 A 
HETATM   14  N   UNL     1      15.374  52.319  49.325  1.00  0.00    -0.273 NA
HETATM   15  C   UNL     1      15.648  51.187  48.646  1.00  0.00     0.117 A 
HETATM   16  C   UNL     1      16.919  50.644  48.533  1.00  0.00     0.031 A 
ENDBRANCH   8  11
ENDBRANCH   2   5
BRANCH   1  17
HETATM   17  C   UNL     1      25.033  47.661  49.865  1.00  0.00     0.161 C 
BRANCH  17  18
HETATM   18  C   UNL     1      25.146  46.717  51.035  1.00  0.00    -0.038 A 
HETATM   19  C   UNL     1      25.690  47.155  52.252  1.00  0.00     0.009 A 
HETATM   20  C   UNL     1      25.787  46.286  53.342  1.00  0.00     0.003 A 
HETATM   21  C   UNL     1      25.344  44.969  53.227  1.00  0.00     0.036 A 
HETATM   22  C   UNL     1      24.805  44.533  52.021  1.00  0.00     0.066 A 
HETATM   23  C   UNL     1      24.701  45.391  50.931  1.00  0.00     0.045 A 
BRANCH  22  24
HETATM   24  O   UNL     1      24.363  43.252  51.863  1.00  0.00    -0.361 OA
HETATM   25  H   UNL     1      24.249  42.856  52.742  1.00  0.00     0.217 HD
ENDBRANCH  22  24
ENDBRANCH  17  18
ENDBRANCH   1  17
TORSDOF 5
ENDMDL
