MODEL 1
REMARK VINA RESULT:      -8.2      0.000      0.000
REMARK  6 active torsions:
REMARK  status: ('A' for Active; 'I' for Inactive)
REMARK    1  A    between atoms: C_2  and  C_3 
REMARK    2  A    between atoms: C_3  and  C_4 
REMARK    3  A    between atoms: C_7  and  C_8 
REMARK    4  A    between atoms: C_14  and  C_15 
REMARK    5  A    between atoms: C_18  and  N_19 
REMARK       I    between atoms: N_19  and  C_20 
REMARK    6  A    between atoms: C_28  and  N_29 
ROOT
HETATM    1  C   UNL     1      24.335  49.618  48.607  1.00  0.00     0.099 A 
HETATM    2  N   UNL     1      25.348  50.226  47.954  1.00  0.00    -0.172 NA
HETATM    3  N   UNL     1      26.400  49.403  48.099  1.00  0.00    -0.256 N 
HETATM    4  H   UNL     1      27.290  49.669  47.692  1.00  0.00     0.191 HD
HETATM    5  C   UNL     1      26.102  48.294  48.814  1.00  0.00     0.175 A 
HETATM    6  C   UNL     1      24.771  48.372  49.145  1.00  0.00     0.040 A 
HETATM    7  C   UNL     1      24.142  47.257  49.914  1.00  0.00     0.105 C 
HETATM    8  C   UNL     1      25.220  46.293  50.413  1.00  0.00     0.067 C 
HETATM    9  C   UNL     1      24.841  45.328  51.525  1.00  0.00     0.020 C 
HETATM   10  N   UNL     1      24.528  44.529  52.448  1.00  0.00    -0.096 N 
HETATM   11  C   UNL     1      26.522  46.360  50.021  1.00  0.00     0.139 C 
HETATM   12  O   UNL     1      26.972  47.340  49.121  1.00  0.00    -0.279 OA
ENDROOT
BRANCH   7  13
HETATM   13  C   UNL     1      23.159  46.605  48.950  1.00  0.00    -0.044 A 
HETATM   14  C   UNL     1      23.502  45.481  48.179  1.00  0.00     0.010 A 
HETATM   15  C   UNL     1      22.602  44.929  47.260  1.00  0.00     0.030 A 
HETATM   16  C   UNL     1      21.335  45.481  47.091  1.00  0.00     0.034 A 
HETATM   17  C   UNL     1      20.974  46.585  47.872  1.00  0.00     0.030 A 
HETATM   18  C   UNL     1      21.872  47.139  48.793  1.00  0.00     0.010 A 
BRANCH  16  19
HETATM   19  N   UNL     1      20.387  45.008  46.161  1.00  0.00    -0.328 N 
HETATM   20  C   UNL     1      19.231  44.296  46.426  1.00  0.00     0.218 C 
HETATM   21  C   UNL     1      18.495  43.915  45.165  1.00  0.00     0.117 C 
HETATM   22  O   UNL     1      18.782  43.996  47.526  1.00  0.00    -0.274 OA
HETATM   23  H   UNL     1      20.585  45.207  45.188  1.00  0.00     0.169 HD
ENDBRANCH  16  19
ENDBRANCH   7  13
BRANCH  11  24
HETATM   24  N   UNL     1      27.532  45.532  50.455  1.00  0.00    -0.282 NA
HETATM   25  H   UNL     1      27.430  45.171  51.400  1.00  0.00     0.126 HD
HETATM   26  H   UNL     1      27.745  44.805  49.777  1.00  0.00     0.126 HD
ENDBRANCH  11  24
BRANCH   1  27
HETATM   27  C   UNL     1      23.019  50.255  48.664  1.00  0.00    -0.005 A 
HETATM   28  C   UNL     1      22.502  50.668  49.900  1.00  0.00     0.014 A 
HETATM   29  C   UNL     1      21.235  51.251  49.990  1.00  0.00     0.008 A 
HETATM   30  C   UNL     1      20.458  51.436  48.841  1.00  0.00    -0.058 A 
HETATM   31  C   UNL     1      20.971  51.025  47.605  1.00  0.00     0.008 A 
HETATM   32  C   UNL     1      22.235  50.429  47.518  1.00  0.00     0.014 A 
BRANCH  30  33
HETATM   33  C   UNL     1      19.086  52.059  48.938  1.00  0.00     0.042 C 
BRANCH  33  34
HETATM   34  C   UNL     1      18.109  51.277  49.837  1.00  0.00    -0.019 C 
HETATM   35  C   UNL     1      17.912  49.836  49.358  1.00  0.00     0.010 C 
HETATM   36  C   UNL     1      16.756  51.992  49.873  1.00  0.00     0.010 C 
ENDBRANCH  33  34
ENDBRANCH  30  33
ENDBRANCH   1  27
TORSDOF 6
ENDMDL
MODEL 2
REMARK VINA RESULT:      -7.9      4.508      8.814
REMARK  6 active torsions:
REMARK  status: ('A' for Active; 'I' for Inactive)
REMARK    1  A    between atoms: C_2  and  C_3 
REMARK    2  A    between atoms: C_3  and  C_4 
REMARK    3  A    between atoms: C_7  and  C_8 
REMARK    4  A    between atoms: C_14  and  C_15 
REMARK    5  A    between atoms: C_18  and  N_19 
REMARK       I    between atoms: N_19  and  C_20 
REMARK    6  A    between atoms: C_28  and  N_29 
ROOT
HETATM    1  C   UNL     1      26.909  41.471  48.415  1.00  0.00     0.099 A 
HETATM    2  N   UNL     1      27.976  41.449  47.589  1.00  0.00    -0.172 NA
HETATM    3  N   UNL     1      27.489  41.055  46.400  1.00  0.00    -0.256 N 
HETATM    4  H   UNL     1      28.126  40.954  45.618  1.00  0.00     0.191 HD
HETATM    5  C   UNL     1      26.156  40.825  46.431  1.00  0.00     0.175 A 
HETATM    6  C   UNL     1      25.728  41.105  47.706  1.00  0.00     0.040 A 
HETATM    7  C   UNL     1      24.276  40.977  48.035  1.00  0.00     0.105 C 
HETATM    8  C   UNL     1      23.537  40.297  46.880  1.00  0.00     0.067 C 
HETATM    9  C   UNL     1      22.159  39.725  47.167  1.00  0.00     0.020 C 
HETATM   10  N   UNL     1      21.016  39.249  47.404  1.00  0.00    -0.096 N 
HETATM   11  C   UNL     1      24.109  40.048  45.670  1.00  0.00     0.139 C 
HETATM   12  O   UNL     1      25.441  40.401  45.397  1.00  0.00    -0.279 OA
ENDROOT
BRANCH   7  13
HETATM   13  C   UNL     1      23.793  42.397  48.297  1.00  0.00    -0.044 A 
HETATM   14  C   UNL     1      23.497  42.859  49.591  1.00  0.00     0.010 A 
HETATM   15  C   UNL     1      23.004  44.152  49.806  1.00  0.00     0.030 A 
HETATM   16  C   UNL     1      22.798  45.018  48.734  1.00  0.00     0.034 A 
HETATM   17  C   UNL     1      23.113  44.576  47.444  1.00  0.00     0.030 A 
HETATM   18  C   UNL     1      23.608  43.284  47.227  1.00  0.00     0.010 A 
BRANCH  16  19
HETATM   19  N   UNL     1      22.270  46.318  48.863  1.00  0.00    -0.328 N 
HETATM   20  C   UNL     1      22.968  47.492  49.085  1.00  0.00     0.218 C 
HETATM   21  C   UNL     1      22.051  48.682  49.220  1.00  0.00     0.117 C 
HETATM   22  O   UNL     1      24.184  47.629  49.150  1.00  0.00    -0.274 OA
HETATM   23  H   UNL     1      21.263  46.394  48.793  1.00  0.00     0.169 HD
ENDBRANCH  16  19
ENDBRANCH   7  13
BRANCH  11  24
HETATM   24  N   UNL     1      23.496  39.423  44.608  1.00  0.00    -0.282 NA
HETATM   25  H   UNL     1      23.134  38.491  44.796  1.00  0.00     0.126 HD
HETATM   26  H   UNL     1      22.815  40.025  44.153  1.00  0.00     0.126 HD
ENDBRANCH  11  24
BRANCH   1  27
HETATM   27  C   UNL     1      27.081  41.850  49.818  1.00  0.00    -0.005 A 
HETATM   28  C   UNL     1      27.012  43.201  50.184  1.00  0.00     0.014 A 
HETATM   29  C   UNL     1      27.202  43.596  51.510  1.00  0.00     0.008 A 
HETATM   30  C   UNL     1      27.463  42.645  52.502  1.00  0.00    -0.058 A 
HETATM   31  C   UNL     1      27.533  41.294  52.141  1.00  0.00     0.008 A 
HETATM   32  C   UNL     1      27.355  40.901  50.809  1.00  0.00     0.014 A 
BRANCH  30  33
HETATM   33  C   UNL     1      27.677  43.072  53.935  1.00  0.00     0.042 C 
BRANCH  33  34
HETATM   34  C   UNL     1      28.942  43.925  54.148  1.00  0.00    -0.019 C 
HETATM   35  C   UNL     1      30.090  43.115  54.755  1.00  0.00     0.010 C 
HETATM   36  C   UNL     1      28.616  45.112  55.060  1.00  0.00     0.010 C 
ENDBRANCH  33  34
ENDBRANCH  30  33
ENDBRANCH   1  27
TORSDOF 6
ENDMDL
MODEL 3
REMARK VINA RESULT:      -7.8     21.880     24.928
REMARK  6 active torsions:
REMARK  status: ('A' for Active; 'I' for Inactive)
REMARK    1  A    between atoms: C_2  and  C_3 
REMARK    2  A    between atoms: C_3  and  C_4 
REMARK    3  A    between atoms: C_7  and  C_8 
REMARK    4  A    between atoms: C_14  and  C_15 
REMARK    5  A    between atoms: C_18  and  N_19 
REMARK       I    between atoms: N_19  and  C_20 
REMARK    6  A    between atoms: C_28  and  N_29 
ROOT
HETATM    1  C   UNL     1      37.375  45.975  64.343  1.00  0.00     0.099 A 
HETATM    2  N   UNL     1      36.680  46.739  63.474  1.00  0.00    -0.172 NA
HETATM    3  N   UNL     1      36.364  47.849  64.162  1.00  0.00    -0.256 N 
HETATM    4  H   UNL     1      35.821  48.572  63.704  1.00  0.00     0.191 HD
HETATM    5  C   UNL     1      36.828  47.826  65.433  1.00  0.00     0.175 A 
HETATM    6  C   UNL     1      37.512  46.646  65.592  1.00  0.00     0.040 A 
HETATM    7  C   UNL     1      38.175  46.356  66.899  1.00  0.00     0.105 C 
HETATM    8  C   UNL     1      37.745  47.387  67.944  1.00  0.00     0.067 C 
HETATM    9  C   UNL     1      37.987  47.051  69.406  1.00  0.00     0.020 C 
HETATM   10  N   UNL     1      38.186  46.772  70.619  1.00  0.00    -0.096 N 
HETATM   11  C   UNL     1      37.029  48.505  67.640  1.00  0.00     0.139 C 
HETATM   12  O   UNL     1      36.625  48.788  66.325  1.00  0.00    -0.279 OA
ENDROOT
BRANCH   7  13
HETATM   13  C   UNL     1      39.670  46.388  66.610  1.00  0.00    -0.044 A 
HETATM   14  C   UNL     1      40.338  47.574  66.258  1.00  0.00     0.010 A 
HETATM   15  C   UNL     1      41.702  47.573  65.944  1.00  0.00     0.030 A 
HETATM   16  C   UNL     1      42.436  46.390  65.980  1.00  0.00     0.034 A 
HETATM   17  C   UNL     1      41.786  45.208  66.354  1.00  0.00     0.030 A 
HETATM   18  C   UNL     1      40.422  45.206  66.670  1.00  0.00     0.010 A 
BRANCH  16  19
HETATM   19  N   UNL     1      43.801  46.299  65.641  1.00  0.00    -0.328 N 
HETATM   20  C   UNL     1      44.346  46.114  64.383  1.00  0.00     0.218 C 
HETATM   21  C   UNL     1      45.851  46.012  64.424  1.00  0.00     0.117 C 
HETATM   22  O   UNL     1      43.744  46.058  63.317  1.00  0.00    -0.274 OA
HETATM   23  H   UNL     1      44.453  46.367  66.413  1.00  0.00     0.169 HD
ENDBRANCH  16  19
ENDBRANCH   7  13
BRANCH  11  24
HETATM   24  N   UNL     1      36.600  49.451  68.543  1.00  0.00    -0.282 NA
HETATM   25  H   UNL     1      37.238  49.646  69.311  1.00  0.00     0.126 HD
HETATM   26  H   UNL     1      36.270  50.295  68.083  1.00  0.00     0.126 HD
ENDBRANCH  11  24
BRANCH   1  27
HETATM   27  C   UNL     1      37.873  44.664  63.923  1.00  0.00    -0.005 A 
HETATM   28  C   UNL     1      37.102  43.519  64.166  1.00  0.00     0.014 A 
HETATM   29  C   UNL     1      37.565  42.252  63.804  1.00  0.00     0.008 A 
HETATM   30  C   UNL     1      38.812  42.103  63.187  1.00  0.00    -0.058 A 
HETATM   31  C   UNL     1      39.585  43.244  62.942  1.00  0.00     0.008 A 
HETATM   32  C   UNL     1      39.126  44.512  63.317  1.00  0.00     0.014 A 
BRANCH  30  33
HETATM   33  C   UNL     1      39.316  40.732  62.802  1.00  0.00     0.042 C 
BRANCH  33  34
HETATM   34  C   UNL     1      39.602  39.814  64.006  1.00  0.00    -0.019 C 
HETATM   35  C   UNL     1      40.368  40.538  65.117  1.00  0.00     0.010 C 
HETATM   36  C   UNL     1      40.403  38.593  63.545  1.00  0.00     0.010 C 
ENDBRANCH  33  34
ENDBRANCH  30  33
ENDBRANCH   1  27
TORSDOF 6
ENDMDL
MODEL 4
REMARK VINA RESULT:      -7.8      5.014      9.011
REMARK  6 active torsions:
REMARK  status: ('A' for Active; 'I' for Inactive)
REMARK    1  A    between atoms: C_2  and  C_3 
REMARK    2  A    between atoms: C_3  and  C_4 
REMARK    3  A    between atoms: C_7  and  C_8 
REMARK    4  A    between atoms: C_14  and  C_15 
REMARK    5  A    between atoms: C_18  and  N_19 
REMARK       I    between atoms: N_19  and  C_20 
REMARK    6  A    between atoms: C_28  and  N_29 
ROOT
HETATM    1  C   UNL     1      16.886  52.442  49.168  1.00  0.00     0.099 A 
HETATM    2  N   UNL     1      16.196  52.785  50.277  1.00  0.00    -0.172 NA
HETATM    3  N   UNL     1      15.023  53.257  49.825  1.00  0.00    -0.256 N 
HETATM    4  H   UNL     1      14.338  53.591  50.494  1.00  0.00     0.191 HD
HETATM    5  C   UNL     1      14.932  53.230  48.476  1.00  0.00     0.175 A 
HETATM    6  C   UNL     1      16.102  52.686  48.003  1.00  0.00     0.040 A 
HETATM    7  C   UNL     1      16.278  52.494  46.532  1.00  0.00     0.105 C 
HETATM    8  C   UNL     1      15.147  53.193  45.775  1.00  0.00     0.067 C 
HETATM    9  C   UNL     1      15.348  53.450  44.291  1.00  0.00     0.020 C 
HETATM   10  N   UNL     1      15.515  53.665  43.060  1.00  0.00    -0.096 N 
HETATM   11  C   UNL     1      14.052  53.722  46.388  1.00  0.00     0.139 C 
HETATM   12  O   UNL     1      13.888  53.667  47.782  1.00  0.00    -0.279 OA
ENDROOT
BRANCH   7  13
HETATM   13  C   UNL     1      16.294  50.986  46.320  1.00  0.00    -0.044 A 
HETATM   14  C   UNL     1      15.238  50.160  46.744  1.00  0.00     0.010 A 
HETATM   15  C   UNL     1      15.296  48.770  46.588  1.00  0.00     0.030 A 
HETATM   16  C   UNL     1      16.407  48.169  46.001  1.00  0.00     0.034 A 
HETATM   17  C   UNL     1      17.453  48.985  45.553  1.00  0.00     0.030 A 
HETATM   18  C   UNL     1      17.397  50.375  45.706  1.00  0.00     0.010 A 
BRANCH  16  19
HETATM   19  N   UNL     1      16.558  46.777  45.843  1.00  0.00    -0.328 N 
HETATM   20  C   UNL     1      17.408  45.938  46.542  1.00  0.00     0.218 C 
HETATM   21  C   UNL     1      17.329  44.512  46.053  1.00  0.00     0.117 C 
HETATM   22  O   UNL     1      18.144  46.239  47.474  1.00  0.00    -0.274 OA
HETATM   23  H   UNL     1      15.984  46.349  45.127  1.00  0.00     0.169 HD
ENDBRANCH  16  19
ENDBRANCH   7  13
BRANCH  11  24
HETATM   24  N   UNL     1      13.020  54.377  45.757  1.00  0.00    -0.282 NA
HETATM   25  H   UNL     1      13.272  54.885  44.912  1.00  0.00     0.126 HD
HETATM   26  H   UNL     1      12.210  53.775  45.627  1.00  0.00     0.126 HD
ENDBRANCH  11  24
BRANCH   1  27
HETATM   27  C   UNL     1      18.237  51.893  49.291  1.00  0.00    -0.005 A 
HETATM   28  C   UNL     1      19.247  52.338  48.427  1.00  0.00     0.014 A 
HETATM   29  C   UNL     1      20.538  51.811  48.500  1.00  0.00     0.008 A 
HETATM   30  C   UNL     1      20.848  50.826  49.445  1.00  0.00    -0.058 A 
HETATM   31  C   UNL     1      19.843  50.379  50.310  1.00  0.00     0.008 A 
HETATM   32  C   UNL     1      18.545  50.899  50.226  1.00  0.00     0.014 A 
BRANCH  30  33
HETATM   33  C   UNL     1      22.243  50.250  49.520  1.00  0.00     0.042 C 
BRANCH  33  34
HETATM   34  C   UNL     1      22.767  49.712  48.174  1.00  0.00    -0.019 C 
HETATM   35  C   UNL     1      22.510  48.211  48.012  1.00  0.00     0.010 C 
HETATM   36  C   UNL     1      24.269  49.988  48.059  1.00  0.00     0.010 C 
ENDBRANCH  33  34
ENDBRANCH  30  33
ENDBRANCH   1  27
TORSDOF 6
ENDMDL
MODEL 5
REMARK VINA RESULT:      -7.7      4.719      7.589
REMARK  6 active torsions:
REMARK  status: ('A' for Active; 'I' for Inactive)
REMARK    1  A    between atoms: C_2  and  C_3 
REMARK    2  A    between atoms: C_3  and  C_4 
REMARK    3  A    between atoms: C_7  and  C_8 
REMARK    4  A    between atoms: C_14  and  C_15 
REMARK    5  A    between atoms: C_18  and  N_19 
REMARK       I    between atoms: N_19  and  C_20 
REMARK    6  A    between atoms: C_28  and  N_29 
ROOT
HETATM    1  C   UNL     1      18.286  48.839  45.436  1.00  0.00     0.099 A 
HETATM    2  N   UNL     1      17.637  47.702  45.107  1.00  0.00    -0.172 NA
HETATM    3  N   UNL     1      18.160  46.758  45.906  1.00  0.00    -0.256 N 
HETATM    4  H   UNL     1      17.826  45.805  45.824  1.00  0.00     0.191 HD
HETATM    5  C   UNL     1      19.116  47.243  46.732  1.00  0.00     0.175 A 
HETATM    6  C   UNL     1      19.217  48.590  46.486  1.00  0.00     0.040 A 
HETATM    7  C   UNL     1      20.178  49.410  47.284  1.00  0.00     0.105 C 
HETATM    8  C   UNL     1      21.082  48.495  48.113  1.00  0.00     0.067 C 
HETATM    9  C   UNL     1      22.359  49.093  48.678  1.00  0.00     0.020 C 
HETATM   10  N   UNL     1      23.420  49.589  49.146  1.00  0.00    -0.096 N 
HETATM   11  C   UNL     1      20.877  47.155  48.238  1.00  0.00     0.139 C 
HETATM   12  O   UNL     1      19.806  46.510  47.598  1.00  0.00    -0.279 OA
ENDROOT
BRANCH   7  13
HETATM   13  C   UNL     1      19.314  50.328  48.139  1.00  0.00    -0.044 A 
HETATM   14  C   UNL     1      18.298  49.833  48.974  1.00  0.00     0.010 A 
HETATM   15  C   UNL     1      17.479  50.697  49.712  1.00  0.00     0.030 A 
HETATM   16  C   UNL     1      17.658  52.076  49.638  1.00  0.00     0.034 A 
HETATM   17  C   UNL     1      18.684  52.578  48.828  1.00  0.00     0.030 A 
HETATM   18  C   UNL     1      19.505  51.716  48.091  1.00  0.00     0.010 A 
BRANCH  16  19
HETATM   19  N   UNL     1      16.853  53.013  50.318  1.00  0.00    -0.328 N 
HETATM   20  C   UNL     1      15.651  53.553  49.895  1.00  0.00     0.218 C 
HETATM   21  C   UNL     1      15.110  54.569  50.871  1.00  0.00     0.117 C 
HETATM   22  O   UNL     1      15.030  53.271  48.877  1.00  0.00    -0.274 OA
HETATM   23  H   UNL     1      17.205  53.330  51.212  1.00  0.00     0.169 HD
ENDBRANCH  16  19
ENDBRANCH   7  13
BRANCH  11  24
HETATM   24  N   UNL     1      21.670  46.287  48.953  1.00  0.00    -0.282 NA
HETATM   25  H   UNL     1      21.455  45.299  48.838  1.00  0.00     0.126 HD
HETATM   26  H   UNL     1      22.659  46.490  48.836  1.00  0.00     0.126 HD
ENDBRANCH  11  24
BRANCH   1  27
HETATM   27  C   UNL     1      17.970  50.086  44.739  1.00  0.00    -0.005 A 
HETATM   28  C   UNL     1      18.424  50.283  43.428  1.00  0.00     0.014 A 
HETATM   29  C   UNL     1      18.163  51.475  42.749  1.00  0.00     0.008 A 
HETATM   30  C   UNL     1      17.437  52.499  43.369  1.00  0.00    -0.058 A 
HETATM   31  C   UNL     1      16.982  52.307  44.678  1.00  0.00     0.008 A 
HETATM   32  C   UNL     1      17.255  51.116  45.362  1.00  0.00     0.014 A 
BRANCH  30  33
HETATM   33  C   UNL     1      17.161  53.791  42.638  1.00  0.00     0.042 C 
BRANCH  33  34
HETATM   34  C   UNL     1      16.151  53.650  41.483  1.00  0.00    -0.019 C 
HETATM   35  C   UNL     1      16.814  53.809  40.112  1.00  0.00     0.010 C 
HETATM   36  C   UNL     1      15.041  54.695  41.638  1.00  0.00     0.010 C 
ENDBRANCH  33  34
ENDBRANCH  30  33
ENDBRANCH   1  27
TORSDOF 6
ENDMDL
MODEL 6
REMARK VINA RESULT:      -7.5     22.191     25.484
REMARK  6 active torsions:
REMARK  status: ('A' for Active; 'I' for Inactive)
REMARK    1  A    between atoms: C_2  and  C_3 
REMARK    2  A    between atoms: C_3  and  C_4 
REMARK    3  A    between atoms: C_7  and  C_8 
REMARK    4  A    between atoms: C_14  and  C_15 
REMARK    5  A    between atoms: C_18  and  N_19 
REMARK       I    between atoms: N_19  and  C_20 
REMARK    6  A    between atoms: C_28  and  N_29 
ROOT
HETATM    1  C   UNL     1      37.882  44.901  64.217  1.00  0.00     0.099 A 
HETATM    2  N   UNL     1      37.031  45.435  63.316  1.00  0.00    -0.172 NA
HETATM    3  N   UNL     1      36.866  46.709  63.705  1.00  0.00    -0.256 N 
HETATM    4  H   UNL     1      36.245  47.309  63.172  1.00  0.00     0.191 HD
HETATM    5  C   UNL     1      37.576  47.013  64.816  1.00  0.00     0.175 A 
HETATM    6  C   UNL     1      38.272  45.884  65.172  1.00  0.00     0.040 A 
HETATM    7  C   UNL     1      39.184  45.929  66.355  1.00  0.00     0.105 C 
HETATM    8  C   UNL     1      38.978  47.235  67.123  1.00  0.00     0.067 C 
HETATM    9  C   UNL     1      39.509  47.306  68.546  1.00  0.00     0.020 C 
HETATM   10  N   UNL     1      39.947  47.364  69.726  1.00  0.00    -0.096 N 
HETATM   11  C   UNL     1      38.222  48.267  66.656  1.00  0.00     0.139 C 
HETATM   12  O   UNL     1      37.563  48.197  65.417  1.00  0.00    -0.279 OA
ENDROOT
BRANCH   7  13
HETATM   13  C   UNL     1      40.590  45.785  65.788  1.00  0.00    -0.044 A 
HETATM   14  C   UNL     1      41.302  44.574  65.852  1.00  0.00     0.010 A 
HETATM   15  C   UNL     1      42.613  44.477  65.372  1.00  0.00     0.030 A 
HETATM   16  C   UNL     1      43.246  45.584  64.812  1.00  0.00     0.034 A 
HETATM   17  C   UNL     1      42.537  46.788  64.721  1.00  0.00     0.030 A 
HETATM   18  C   UNL     1      41.225  46.888  65.198  1.00  0.00     0.010 A 
BRANCH  16  19
HETATM   19  N   UNL     1      44.575  45.578  64.342  1.00  0.00    -0.328 N 
HETATM   20  C   UNL     1      45.697  46.068  64.987  1.00  0.00     0.218 C 
HETATM   21  C   UNL     1      46.942  45.934  64.144  1.00  0.00     0.117 C 
HETATM   22  O   UNL     1      45.755  46.543  66.115  1.00  0.00    -0.274 OA
HETATM   23  H   UNL     1      44.717  45.178  63.424  1.00  0.00     0.169 HD
ENDBRANCH  16  19
ENDBRANCH   7  13
BRANCH  11  24
HETATM   24  N   UNL     1      37.990  49.452  67.315  1.00  0.00    -0.282 NA
HETATM   25  H   UNL     1      38.027  49.405  68.331  1.00  0.00     0.126 HD
HETATM   26  H   UNL     1      38.547  50.214  66.936  1.00  0.00     0.126 HD
ENDBRANCH  11  24
BRANCH   1  27
HETATM   27  C   UNL     1      38.278  43.496  64.102  1.00  0.00    -0.005 A 
HETATM   28  C   UNL     1      39.224  43.120  63.139  1.00  0.00     0.014 A 
HETATM   29  C   UNL     1      39.599  41.783  62.985  1.00  0.00     0.008 A 
HETATM   30  C   UNL     1      39.036  40.792  63.797  1.00  0.00    -0.058 A 
HETATM   31  C   UNL     1      38.092  41.163  64.761  1.00  0.00     0.008 A 
HETATM   32  C   UNL     1      37.706  42.502  64.904  1.00  0.00     0.014 A 
BRANCH  30  33
HETATM   33  C   UNL     1      39.436  39.345  63.627  1.00  0.00     0.042 C 
BRANCH  33  34
HETATM   34  C   UNL     1      40.355  38.818  64.746  1.00  0.00    -0.019 C 
HETATM   35  C   UNL     1      41.236  39.921  65.339  1.00  0.00     0.010 C 
HETATM   36  C   UNL     1      41.241  37.695  64.198  1.00  0.00     0.010 C 
ENDBRANCH  33  34
ENDBRANCH  30  33
ENDBRANCH   1  27
TORSDOF 6
ENDMDL
MODEL 7
REMARK VINA RESULT:      -7.4      5.000      8.781
REMARK  6 active torsions:
REMARK  status: ('A' for Active; 'I' for Inactive)
REMARK    1  A    between atoms: C_2  and  C_3 
REMARK    2  A    between atoms: C_3  and  C_4 
REMARK    3  A    between atoms: C_7  and  C_8 
REMARK    4  A    between atoms: C_14  and  C_15 
REMARK    5  A    between atoms: C_18  and  N_19 
REMARK       I    between atoms: N_19  and  C_20 
REMARK    6  A    between atoms: C_28  and  N_29 
ROOT
HETATM    1  C   UNL     1      17.856  51.597  48.985  1.00  0.00     0.099 A 
HETATM    2  N   UNL     1      17.497  51.858  50.259  1.00  0.00    -0.172 NA
HETATM    3  N   UNL     1      16.320  52.500  50.164  1.00  0.00    -0.256 N 
HETATM    4  H   UNL     1      15.861  52.810  51.013  1.00  0.00     0.191 HD
HETATM    5  C   UNL     1      15.912  52.658  48.884  1.00  0.00     0.175 A 
HETATM    6  C   UNL     1      16.858  52.067  48.083  1.00  0.00     0.040 A 
HETATM    7  C   UNL     1      16.657  52.052  46.602  1.00  0.00     0.105 C 
HETATM    8  C   UNL     1      15.479  52.952  46.226  1.00  0.00     0.067 C 
HETATM    9  C   UNL     1      15.356  53.380  44.773  1.00  0.00     0.020 C 
HETATM   10  N   UNL     1      15.255  53.737  43.568  1.00  0.00    -0.096 N 
HETATM   11  C   UNL     1      14.636  53.503  47.143  1.00  0.00     0.139 C 
HETATM   12  O   UNL     1      14.799  53.283  48.521  1.00  0.00    -0.279 OA
ENDROOT
BRANCH   7  13
HETATM   13  C   UNL     1      16.430  50.590  46.240  1.00  0.00    -0.044 A 
HETATM   14  C   UNL     1      17.380  49.841  45.524  1.00  0.00     0.010 A 
HETATM   15  C   UNL     1      17.130  48.514  45.155  1.00  0.00     0.030 A 
HETATM   16  C   UNL     1      15.927  47.900  45.494  1.00  0.00     0.034 A 
HETATM   17  C   UNL     1      14.984  48.629  46.228  1.00  0.00     0.030 A 
HETATM   18  C   UNL     1      15.233  49.956  46.600  1.00  0.00     0.010 A 
BRANCH  16  19
HETATM   19  N   UNL     1      15.584  46.583  45.127  1.00  0.00    -0.328 N 
HETATM   20  C   UNL     1      15.361  46.096  43.851  1.00  0.00     0.218 C 
HETATM   21  C   UNL     1      14.959  44.642  43.860  1.00  0.00     0.117 C 
HETATM   22  O   UNL     1      15.481  46.705  42.795  1.00  0.00    -0.274 OA
HETATM   23  H   UNL     1      15.481  45.925  45.889  1.00  0.00     0.169 HD
ENDBRANCH  16  19
ENDBRANCH   7  13
BRANCH  11  24
HETATM   24  N   UNL     1      13.576  54.334  46.859  1.00  0.00    -0.282 NA
HETATM   25  H   UNL     1      13.802  55.323  46.778  1.00  0.00     0.126 HD
HETATM   26  H   UNL     1      13.023  53.991  46.078  1.00  0.00     0.126 HD
ENDBRANCH  11  24
BRANCH   1  27
HETATM   27  C   UNL     1      19.117  50.905  48.711  1.00  0.00    -0.005 A 
HETATM   28  C   UNL     1      19.153  49.504  48.710  1.00  0.00     0.014 A 
HETATM   29  C   UNL     1      20.347  48.817  48.482  1.00  0.00     0.008 A 
HETATM   30  C   UNL     1      21.534  49.519  48.245  1.00  0.00    -0.058 A 
HETATM   31  C   UNL     1      21.503  50.918  48.245  1.00  0.00     0.008 A 
HETATM   32  C   UNL     1      20.307  51.606  48.487  1.00  0.00     0.014 A 
BRANCH  30  33
HETATM   33  C   UNL     1      22.827  48.776  48.006  1.00  0.00     0.042 C 
BRANCH  33  34
HETATM   34  C   UNL     1      24.009  49.298  48.847  1.00  0.00    -0.019 C 
HETATM   35  C   UNL     1      25.054  50.018  47.990  1.00  0.00     0.010 C 
HETATM   36  C   UNL     1      24.671  48.130  49.585  1.00  0.00     0.010 C 
ENDBRANCH  33  34
ENDBRANCH  30  33
ENDBRANCH   1  27
TORSDOF 6
ENDMDL
MODEL 8
REMARK VINA RESULT:      -7.2     21.739     25.879
REMARK  6 active torsions:
REMARK  status: ('A' for Active; 'I' for Inactive)
REMARK    1  A    between atoms: C_2  and  C_3 
REMARK    2  A    between atoms: C_3  and  C_4 
REMARK    3  A    between atoms: C_7  and  C_8 
REMARK    4  A    between atoms: C_14  and  C_15 
REMARK    5  A    between atoms: C_18  and  N_19 
REMARK       I    between atoms: N_19  and  C_20 
REMARK    6  A    between atoms: C_28  and  N_29 
ROOT
HETATM    1  C   UNL     1      38.343  42.525  64.259  1.00  0.00     0.099 A 
HETATM    2  N   UNL     1      37.612  42.339  63.140  1.00  0.00    -0.172 NA
HETATM    3  N   UNL     1      37.088  43.545  62.862  1.00  0.00    -0.256 N 
HETATM    4  H   UNL     1      36.481  43.642  62.056  1.00  0.00     0.191 HD
HETATM    5  C   UNL     1      37.454  44.493  63.755  1.00  0.00     0.175 A 
HETATM    6  C   UNL     1      38.289  43.890  64.665  1.00  0.00     0.040 A 
HETATM    7  C   UNL     1      38.888  44.708  65.762  1.00  0.00     0.105 C 
HETATM    8  C   UNL     1      38.236  46.091  65.798  1.00  0.00     0.067 C 
HETATM    9  C   UNL     1      38.415  46.921  67.058  1.00  0.00     0.020 C 
HETATM   10  N   UNL     1      38.562  47.609  68.104  1.00  0.00    -0.096 N 
HETATM   11  C   UNL     1      37.391  46.545  64.832  1.00  0.00     0.139 C 
HETATM   12  O   UNL     1      37.050  45.757  63.720  1.00  0.00    -0.279 OA
ENDROOT
BRANCH   7  13
HETATM   13  C   UNL     1      40.380  44.759  65.460  1.00  0.00    -0.044 A 
HETATM   14  C   UNL     1      41.351  44.688  66.474  1.00  0.00     0.010 A 
HETATM   15  C   UNL     1      42.716  44.790  66.181  1.00  0.00     0.030 A 
HETATM   16  C   UNL     1      43.147  44.960  64.868  1.00  0.00     0.034 A 
HETATM   17  C   UNL     1      42.189  45.008  63.848  1.00  0.00     0.030 A 
HETATM   18  C   UNL     1      40.823  44.904  64.138  1.00  0.00     0.010 A 
BRANCH  16  19
HETATM   19  N   UNL     1      44.498  45.110  64.495  1.00  0.00    -0.328 N 
HETATM   20  C   UNL     1      45.278  46.248  64.597  1.00  0.00     0.218 C 
HETATM   21  C   UNL     1      46.666  46.038  64.043  1.00  0.00     0.117 C 
HETATM   22  O   UNL     1      44.958  47.323  65.090  1.00  0.00    -0.274 OA
HETATM   23  H   UNL     1      44.940  44.290  64.098  1.00  0.00     0.169 HD
ENDBRANCH  16  19
ENDBRANCH   7  13
BRANCH  11  24
HETATM   24  N   UNL     1      36.764  47.770  64.827  1.00  0.00    -0.282 NA
HETATM   25  H   UNL     1      35.830  47.788  65.229  1.00  0.00     0.126 HD
HETATM   26  H   UNL     1      37.364  48.506  65.192  1.00  0.00     0.126 HD
ENDBRANCH  11  24
BRANCH   1  27
HETATM   27  C   UNL     1      39.056  41.396  64.859  1.00  0.00    -0.005 A 
HETATM   28  C   UNL     1      38.671  40.086  64.542  1.00  0.00     0.014 A 
HETATM   29  C   UNL     1      39.312  38.989  65.123  1.00  0.00     0.008 A 
HETATM   30  C   UNL     1      40.357  39.180  66.033  1.00  0.00    -0.058 A 
HETATM   31  C   UNL     1      40.745  40.487  66.353  1.00  0.00     0.008 A 
HETATM   32  C   UNL     1      40.092  41.586  65.780  1.00  0.00     0.014 A 
BRANCH  30  33
HETATM   33  C   UNL     1      41.046  37.995  66.667  1.00  0.00     0.042 C 
BRANCH  33  34
HETATM   34  C   UNL     1      40.665  36.643  66.035  1.00  0.00    -0.019 C 
HETATM   35  C   UNL     1      39.923  35.733  67.019  1.00  0.00     0.010 C 
HETATM   36  C   UNL     1      41.926  35.932  65.536  1.00  0.00     0.010 C 
ENDBRANCH  33  34
ENDBRANCH  30  33
ENDBRANCH   1  27
TORSDOF 6
ENDMDL
MODEL 9
REMARK VINA RESULT:      -7.1      4.435      8.200
REMARK  6 active torsions:
REMARK  status: ('A' for Active; 'I' for Inactive)
REMARK    1  A    between atoms: C_2  and  C_3 
REMARK    2  A    between atoms: C_3  and  C_4 
REMARK    3  A    between atoms: C_7  and  C_8 
REMARK    4  A    between atoms: C_14  and  C_15 
REMARK    5  A    between atoms: C_18  and  N_19 
REMARK       I    between atoms: N_19  and  C_20 
REMARK    6  A    between atoms: C_28  and  N_29 
ROOT
HETATM    1  C   UNL     1      18.377  51.213  48.857  1.00  0.00     0.099 A 
HETATM    2  N   UNL     1      17.870  51.389  50.095  1.00  0.00    -0.172 NA
HETATM    3  N   UNL     1      16.653  51.924  49.901  1.00  0.00    -0.256 N 
HETATM    4  H   UNL     1      16.084  52.156  50.707  1.00  0.00     0.191 HD
HETATM    5  C   UNL     1      16.361  52.095  48.591  1.00  0.00     0.175 A 
HETATM    6  C   UNL     1      17.434  51.626  47.873  1.00  0.00     0.040 A 
HETATM    7  C   UNL     1      17.382  51.652  46.379  1.00  0.00     0.105 C 
HETATM    8  C   UNL     1      16.167  52.455  45.913  1.00  0.00     0.067 C 
HETATM    9  C   UNL     1      16.149  52.928  44.469  1.00  0.00     0.020 C 
HETATM   10  N   UNL     1      16.134  53.322  43.271  1.00  0.00    -0.096 N 
HETATM   11  C   UNL     1      15.189  52.890  46.755  1.00  0.00     0.139 C 
HETATM   12  O   UNL     1      15.234  52.630  48.135  1.00  0.00    -0.279 OA
ENDROOT
BRANCH   7  13
HETATM   13  C   UNL     1      17.332  50.192  45.951  1.00  0.00    -0.044 A 
HETATM   14  C   UNL     1      16.313  49.322  46.376  1.00  0.00     0.010 A 
HETATM   15  C   UNL     1      16.314  47.970  46.014  1.00  0.00     0.030 A 
HETATM   16  C   UNL     1      17.330  47.452  45.215  1.00  0.00     0.034 A 
HETATM   17  C   UNL     1      18.336  48.315  44.766  1.00  0.00     0.030 A 
HETATM   18  C   UNL     1      18.337  49.668  45.125  1.00  0.00     0.010 A 
BRANCH  16  19
HETATM   19  N   UNL     1      17.423  46.097  44.839  1.00  0.00    -0.328 N 
HETATM   20  C   UNL     1      18.207  45.115  45.420  1.00  0.00     0.218 C 
HETATM   21  C   UNL     1      18.082  43.792  44.705  1.00  0.00     0.117 C 
HETATM   22  O   UNL     1      18.920  45.226  46.410  1.00  0.00    -0.274 OA
HETATM   23  H   UNL     1      16.858  45.818  44.047  1.00  0.00     0.169 HD
ENDBRANCH  16  19
ENDBRANCH   7  13
BRANCH  11  24
HETATM   24  N   UNL     1      14.088  53.630  46.390  1.00  0.00    -0.282 NA
HETATM   25  H   UNL     1      13.274  53.094  46.101  1.00  0.00     0.126 HD
HETATM   26  H   UNL     1      13.865  54.345  47.077  1.00  0.00     0.126 HD
ENDBRANCH  11  24
BRANCH   1  27
HETATM   27  C   UNL     1      19.719  50.652  48.692  1.00  0.00    -0.005 A 
HETATM   28  C   UNL     1      20.830  51.506  48.673  1.00  0.00     0.014 A 
HETATM   29  C   UNL     1      22.120  51.002  48.487  1.00  0.00     0.008 A 
HETATM   30  C   UNL     1      22.326  49.628  48.319  1.00  0.00    -0.058 A 
HETATM   31  C   UNL     1      21.219  48.771  48.338  1.00  0.00     0.008 A 
HETATM   32  C   UNL     1      19.925  49.279  48.511  1.00  0.00     0.014 A 
BRANCH  30  33
HETATM   33  C   UNL     1      23.719  49.083  48.111  1.00  0.00     0.042 C 
BRANCH  33  34
HETATM   34  C   UNL     1      24.370  48.532  49.394  1.00  0.00    -0.019 C 
HETATM   35  C   UNL     1      25.899  48.607  49.344  1.00  0.00     0.010 C 
HETATM   36  C   UNL     1      23.937  47.079  49.608  1.00  0.00     0.010 C 
ENDBRANCH  33  34
ENDBRANCH  30  33
ENDBRANCH   1  27
TORSDOF 6
ENDMDL
MODEL 10
REMARK VINA RESULT:      -7.1      2.037      2.601
REMARK  6 active torsions:
REMARK  status: ('A' for Active; 'I' for Inactive)
REMARK    1  A    between atoms: C_2  and  C_3 
REMARK    2  A    between atoms: C_3  and  C_4 
REMARK    3  A    between atoms: C_7  and  C_8 
REMARK    4  A    between atoms: C_14  and  C_15 
REMARK    5  A    between atoms: C_18  and  N_19 
REMARK       I    between atoms: N_19  and  C_20 
REMARK    6  A    between atoms: C_28  and  N_29 
ROOT
HETATM    1  C   UNL     1      22.888  49.711  49.093  1.00  0.00     0.099 A 
HETATM    2  N   UNL     1      23.993  50.466  48.922  1.00  0.00    -0.172 NA
HETATM    3  N   UNL     1      25.006  49.587  48.836  1.00  0.00    -0.256 N 
HETATM    4  H   UNL     1      25.950  49.936  48.717  1.00  0.00     0.191 HD
HETATM    5  C   UNL     1      24.594  48.303  48.943  1.00  0.00     0.175 A 
HETATM    6  C   UNL     1      23.227  48.327  49.085  1.00  0.00     0.040 A 
HETATM    7  C   UNL     1      22.480  47.038  49.189  1.00  0.00     0.105 C 
HETATM    8  C   UNL     1      23.461  45.877  49.360  1.00  0.00     0.067 C 
HETATM    9  C   UNL     1      22.908  44.557  49.871  1.00  0.00     0.020 C 
HETATM   10  N   UNL     1      22.449  43.463  50.296  1.00  0.00    -0.096 N 
HETATM   11  C   UNL     1      24.809  46.012  49.225  1.00  0.00     0.139 C 
HETATM   12  O   UNL     1      25.401  47.249  48.919  1.00  0.00    -0.279 OA
ENDROOT
BRANCH   7  13
HETATM   13  C   UNL     1      21.658  46.941  47.910  1.00  0.00    -0.044 A 
HETATM   14  C   UNL     1      20.403  47.561  47.779  1.00  0.00     0.010 A 
HETATM   15  C   UNL     1      19.641  47.416  46.615  1.00  0.00     0.030 A 
HETATM   16  C   UNL     1      20.113  46.654  45.549  1.00  0.00     0.034 A 
HETATM   17  C   UNL     1      21.372  46.053  45.660  1.00  0.00     0.030 A 
HETATM   18  C   UNL     1      22.139  46.198  46.823  1.00  0.00     0.010 A 
BRANCH  16  19
HETATM   19  N   UNL     1      19.390  46.428  44.360  1.00  0.00    -0.328 N 
HETATM   20  C   UNL     1      18.681  47.356  43.618  1.00  0.00     0.218 C 
HETATM   21  C   UNL     1      17.990  46.727  42.433  1.00  0.00     0.117 C 
HETATM   22  O   UNL     1      18.599  48.561  43.822  1.00  0.00    -0.274 OA
HETATM   23  H   UNL     1      19.385  45.475  44.021  1.00  0.00     0.169 HD
ENDBRANCH  16  19
ENDBRANCH   7  13
BRANCH  11  24
HETATM   24  N   UNL     1      25.735  45.006  49.387  1.00  0.00    -0.282 NA
HETATM   25  H   UNL     1      26.117  44.908  50.325  1.00  0.00     0.126 HD
HETATM   26  H   UNL     1      25.410  44.124  49.000  1.00  0.00     0.126 HD
ENDBRANCH  11  24
BRANCH   1  27
HETATM   27  C   UNL     1      21.581  50.355  49.239  1.00  0.00    -0.005 A 
HETATM   28  C   UNL     1      21.181  51.328  48.313  1.00  0.00     0.014 A 
HETATM   29  C   UNL     1      19.953  51.981  48.443  1.00  0.00     0.008 A 
HETATM   30  C   UNL     1      19.096  51.671  49.505  1.00  0.00    -0.058 A 
HETATM   31  C   UNL     1      19.492  50.701  50.433  1.00  0.00     0.008 A 
HETATM   32  C   UNL     1      20.729  50.056  50.308  1.00  0.00     0.014 A 
BRANCH  30  33
HETATM   33  C   UNL     1      17.771  52.383  49.651  1.00  0.00     0.042 C 
BRANCH  33  34
HETATM   34  C   UNL     1      16.549  51.455  49.516  1.00  0.00    -0.019 C 
HETATM   35  C   UNL     1      16.511  50.742  48.161  1.00  0.00     0.010 C 
HETATM   36  C   UNL     1      15.263  52.266  49.702  1.00  0.00     0.010 C 
ENDBRANCH  33  34
ENDBRANCH  30  33
ENDBRANCH   1  27
TORSDOF 6
ENDMDL
