MODEL 1
REMARK VINA RESULT:      -9.9      0.000      0.000
REMARK  7 active torsions:
REMARK  status: ('A' for Active; 'I' for Inactive)
REMARK    1  A    between atoms: S_2  and  C_3 
REMARK    2  A    between atoms: C_3  and  C_4 
REMARK    3  A    between atoms: C_4  and  C_5 
REMARK    4  A    between atoms: C_5  and  N_6 
REMARK    5  A    between atoms: C_5  and  C_26 
REMARK       I    between atoms: N_6  and  C_7 
REMARK    6  A    between atoms: C_7  and  C_8 
REMARK    7  A    between atoms: C_8  and  N_9 
ROOT
HETATM    1  N   UNL     1      23.564  46.057  49.898  1.00  0.00    -0.348 N 
HETATM    2  C   UNL     1      24.050  44.863  49.409  1.00  0.00     0.236 C 
HETATM    3  O   UNL     1      24.108  44.640  48.197  1.00  0.00    -0.272 OA
HETATM    4  H   UNL     1      23.088  46.031  50.797  1.00  0.00     0.163 HD
ENDROOT
BRANCH   2   5
HETATM    5  C   UNL     1      24.304  43.746  50.419  1.00  0.00     0.239 C 
BRANCH   5   6
HETATM    6  N   UNL     1      25.553  43.817  51.146  1.00  0.00    -0.259 N 
HETATM    7  C   UNL     1      26.746  44.124  50.578  1.00  0.00     0.326 A 
HETATM    8  O   UNL     1      26.975  44.202  49.383  1.00  0.00    -0.247 OA
HETATM    9  N   UNL     1      27.673  44.325  51.565  1.00  0.00    -0.320 N 
HETATM   10  C   UNL     1      27.117  44.174  52.896  1.00  0.00     0.144 A 
HETATM   11  H   UNL     1      28.603  44.664  51.360  1.00  0.00     0.165 HD
HETATM   12  C   UNL     1      27.232  45.481  53.673  1.00  0.00    -0.014 A 
HETATM   13  C   UNL     1      27.765  42.983  53.619  1.00  0.00     0.047 C 
HETATM   14  C   UNL     1      25.661  43.806  52.513  1.00  0.00     0.261 A 
HETATM   15  C   UNL     1      28.181  45.622  54.710  1.00  0.00    -0.049 A 
HETATM   16  C   UNL     1      26.422  46.588  53.354  1.00  0.00     0.011 A 
HETATM   17  C   UNL     1      28.268  46.834  55.417  1.00  0.00     0.007 A 
HETATM   18  C   UNL     1      29.071  44.483  55.144  1.00  0.00     0.039 C 
HETATM   19  C   UNL     1      27.442  47.908  55.097  1.00  0.00     0.001 A 
HETATM   20  C   UNL     1      26.522  47.787  54.063  1.00  0.00     0.001 A 
HETATM   21  C   UNL     1      29.157  43.353  54.125  1.00  0.00     0.008 C 
HETATM   22  O   UNL     1      24.748  43.579  53.295  1.00  0.00    -0.270 OA
ENDBRANCH   5   6
ENDBRANCH   2   5
BRANCH   1  23
HETATM   23  C   UNL     1      23.178  47.127  48.978  1.00  0.00     0.155 C 
BRANCH  23  24
HETATM   24  C   UNL     1      23.641  48.505  49.478  1.00  0.00     0.043 C 
BRANCH  24  25
HETATM   25  C   UNL     1      24.961  48.991  48.881  1.00  0.00     0.076 C 
BRANCH  25  26
HETATM   26  S   UNL     1      26.472  48.198  49.534  1.00  0.00    -0.173 SA
HETATM   27  C   UNL     1      27.711  49.436  49.068  1.00  0.00     0.089 C 
ENDBRANCH  25  26
ENDBRANCH  24  25
ENDBRANCH  23  24
BRANCH  23  28
HETATM   28  C   UNL     1      21.683  47.099  48.787  1.00  0.00     0.128 A 
HETATM   29  N   UNL     1      20.968  46.219  48.112  1.00  0.00    -0.231 NA
HETATM   30  C   UNL     1      19.655  46.552  48.344  1.00  0.00     0.085 A 
HETATM   31  C   UNL     1      19.563  47.684  49.147  1.00  0.00     0.062 A 
HETATM   32  C   UNL     1      18.479  45.922  47.911  1.00  0.00     0.034 A 
HETATM   33  N   UNL     1      20.865  48.013  49.414  1.00  0.00    -0.341 N 
HETATM   34  C   UNL     1      18.347  48.250  49.537  1.00  0.00     0.032 A 
HETATM   35  H   UNL     1      21.196  48.779  49.991  1.00  0.00     0.167 HD
HETATM   36  C   UNL     1      17.183  47.609  49.093  1.00  0.00     0.002 A 
HETATM   37  C   UNL     1      17.245  46.462  48.298  1.00  0.00     0.002 A 
ENDBRANCH  23  28
ENDBRANCH   1  23
TORSDOF 7
ENDMDL
MODEL 2
REMARK VINA RESULT:      -9.8      2.299      3.680
REMARK  7 active torsions:
REMARK  status: ('A' for Active; 'I' for Inactive)
REMARK    1  A    between atoms: S_2  and  C_3 
REMARK    2  A    between atoms: C_3  and  C_4 
REMARK    3  A    between atoms: C_4  and  C_5 
REMARK    4  A    between atoms: C_5  and  N_6 
REMARK    5  A    between atoms: C_5  and  C_26 
REMARK       I    between atoms: N_6  and  C_7 
REMARK    6  A    between atoms: C_7  and  C_8 
REMARK    7  A    between atoms: C_8  and  N_9 
ROOT
HETATM    1  N   UNL     1      23.141  47.419  49.628  1.00  0.00    -0.348 N 
HETATM    2  C   UNL     1      23.850  46.280  49.947  1.00  0.00     0.236 C 
HETATM    3  O   UNL     1      23.452  45.160  49.618  1.00  0.00    -0.272 OA
HETATM    4  H   UNL     1      23.199  48.198  50.280  1.00  0.00     0.163 HD
ENDROOT
BRANCH   2   5
HETATM    5  C   UNL     1      25.025  46.435  50.910  1.00  0.00     0.239 C 
BRANCH   5   6
HETATM    6  N   UNL     1      25.931  45.310  50.997  1.00  0.00    -0.259 N 
HETATM    7  C   UNL     1      27.050  45.177  50.243  1.00  0.00     0.326 A 
HETATM    8  O   UNL     1      27.357  45.864  49.282  1.00  0.00    -0.247 OA
HETATM    9  N   UNL     1      27.792  44.130  50.722  1.00  0.00    -0.320 N 
HETATM   10  C   UNL     1      27.187  43.500  51.880  1.00  0.00     0.144 A 
HETATM   11  H   UNL     1      28.715  43.926  50.365  1.00  0.00     0.165 HD
HETATM   12  C   UNL     1      28.105  43.618  53.091  1.00  0.00    -0.014 A 
HETATM   13  C   UNL     1      26.796  42.049  51.560  1.00  0.00     0.047 C 
HETATM   14  C   UNL     1      25.903  44.361  51.986  1.00  0.00     0.261 A 
HETATM   15  C   UNL     1      28.818  42.497  53.570  1.00  0.00    -0.049 A 
HETATM   16  C   UNL     1      28.292  44.855  53.741  1.00  0.00     0.011 A 
HETATM   17  C   UNL     1      29.655  42.627  54.691  1.00  0.00     0.007 A 
HETATM   18  C   UNL     1      28.659  41.125  52.959  1.00  0.00     0.039 C 
HETATM   19  C   UNL     1      29.808  43.855  55.328  1.00  0.00     0.001 A 
HETATM   20  C   UNL     1      29.130  44.970  54.851  1.00  0.00     0.001 A 
HETATM   21  C   UNL     1      28.025  41.144  51.573  1.00  0.00     0.008 C 
HETATM   22  O   UNL     1      25.027  44.243  52.832  1.00  0.00    -0.270 OA
ENDBRANCH   5   6
ENDBRANCH   2   5
BRANCH   1  23
HETATM   23  C   UNL     1      21.929  47.327  48.813  1.00  0.00     0.155 C 
BRANCH  23  24
HETATM   24  C   UNL     1      22.254  47.073  47.333  1.00  0.00     0.043 C 
BRANCH  24  25
HETATM   25  C   UNL     1      21.216  46.238  46.585  1.00  0.00     0.076 C 
BRANCH  25  26
HETATM   26  S   UNL     1      20.444  44.884  47.538  1.00  0.00    -0.173 SA
HETATM   27  C   UNL     1      18.830  45.625  47.899  1.00  0.00     0.089 C 
ENDBRANCH  25  26
ENDBRANCH  24  25
ENDBRANCH  23  24
BRANCH  23  28
HETATM   28  C   UNL     1      21.127  48.593  48.977  1.00  0.00     0.128 A 
HETATM   29  N   UNL     1      21.280  49.739  48.340  1.00  0.00    -0.231 NA
HETATM   30  C   UNL     1      20.232  50.531  48.745  1.00  0.00     0.085 A 
HETATM   31  C   UNL     1      19.441  49.871  49.679  1.00  0.00     0.062 A 
HETATM   32  C   UNL     1      19.881  51.828  48.345  1.00  0.00     0.034 A 
HETATM   33  N   UNL     1      20.032  48.642  49.811  1.00  0.00    -0.341 N 
HETATM   34  C   UNL     1      18.310  50.442  50.267  1.00  0.00     0.032 A 
HETATM   35  H   UNL     1      19.721  47.875  50.396  1.00  0.00     0.167 HD
HETATM   36  C   UNL     1      17.976  51.739  49.856  1.00  0.00     0.002 A 
HETATM   37  C   UNL     1      18.743  52.421  48.908  1.00  0.00     0.002 A 
ENDBRANCH  23  28
ENDBRANCH   1  23
TORSDOF 7
ENDMDL
MODEL 3
REMARK VINA RESULT:      -9.7      2.269      2.992
REMARK  7 active torsions:
REMARK  status: ('A' for Active; 'I' for Inactive)
REMARK    1  A    between atoms: S_2  and  C_3 
REMARK    2  A    between atoms: C_3  and  C_4 
REMARK    3  A    between atoms: C_4  and  C_5 
REMARK    4  A    between atoms: C_5  and  N_6 
REMARK    5  A    between atoms: C_5  and  C_26 
REMARK       I    between atoms: N_6  and  C_7 
REMARK    6  A    between atoms: C_7  and  C_8 
REMARK    7  A    between atoms: C_8  and  N_9 
ROOT
HETATM    1  N   UNL     1      23.173  44.972  49.116  1.00  0.00    -0.348 N 
HETATM    2  C   UNL     1      23.633  44.433  50.299  1.00  0.00     0.236 C 
HETATM    3  O   UNL     1      23.158  43.392  50.760  1.00  0.00    -0.272 OA
HETATM    4  H   UNL     1      23.203  45.985  49.025  1.00  0.00     0.163 HD
ENDROOT
BRANCH   2   5
HETATM    5  C   UNL     1      24.590  45.286  51.130  1.00  0.00     0.239 C 
BRANCH   5   6
HETATM    6  N   UNL     1      25.823  44.647  51.537  1.00  0.00    -0.259 N 
HETATM    7  C   UNL     1      26.978  44.710  50.831  1.00  0.00     0.326 A 
HETATM    8  O   UNL     1      27.107  45.140  49.696  1.00  0.00    -0.247 OA
HETATM    9  N   UNL     1      27.996  44.198  51.591  1.00  0.00    -0.320 N 
HETATM   10  C   UNL     1      27.553  43.769  52.903  1.00  0.00     0.144 A 
HETATM   11  H   UNL     1      28.960  44.246  51.290  1.00  0.00     0.165 HD
HETATM   12  C   UNL     1      28.260  44.569  53.992  1.00  0.00    -0.014 A 
HETATM   13  C   UNL     1      27.729  42.251  53.061  1.00  0.00     0.047 C 
HETATM   14  C   UNL     1      26.044  44.096  52.772  1.00  0.00     0.261 A 
HETATM   15  C   UNL     1      29.277  43.980  54.776  1.00  0.00    -0.049 A 
HETATM   16  C   UNL     1      27.940  45.922  54.220  1.00  0.00     0.011 A 
HETATM   17  C   UNL     1      29.912  44.735  55.777  1.00  0.00     0.007 A 
HETATM   18  C   UNL     1      29.667  42.529  54.626  1.00  0.00     0.039 C 
HETATM   19  C   UNL     1      29.565  46.065  55.997  1.00  0.00     0.001 A 
HETATM   20  C   UNL     1      28.582  46.660  55.216  1.00  0.00     0.001 A 
HETATM   21  C   UNL     1      29.192  41.902  53.321  1.00  0.00     0.008 C 
HETATM   22  O   UNL     1      25.195  43.926  53.637  1.00  0.00    -0.270 OA
ENDBRANCH   5   6
ENDBRANCH   2   5
BRANCH   1  23
HETATM   23  C   UNL     1      22.159  44.267  48.332  1.00  0.00     0.155 C 
BRANCH  23  24
HETATM   24  C   UNL     1      22.635  43.993  46.896  1.00  0.00     0.043 C 
BRANCH  24  25
HETATM   25  C   UNL     1      22.541  42.532  46.460  1.00  0.00     0.076 C 
BRANCH  25  26
HETATM   26  S   UNL     1      22.842  41.289  47.765  1.00  0.00    -0.173 SA
HETATM   27  C   UNL     1      24.626  41.501  48.004  1.00  0.00     0.089 C 
ENDBRANCH  25  26
ENDBRANCH  24  25
ENDBRANCH  23  24
BRANCH  23  28
HETATM   28  C   UNL     1      20.886  45.075  48.331  1.00  0.00     0.128 A 
HETATM   29  N   UNL     1      19.684  44.695  47.940  1.00  0.00    -0.231 NA
HETATM   30  C   UNL     1      18.845  45.736  48.256  1.00  0.00     0.085 A 
HETATM   31  C   UNL     1      19.553  46.794  48.816  1.00  0.00     0.062 A 
HETATM   32  C   UNL     1      17.455  45.847  48.104  1.00  0.00     0.034 A 
HETATM   33  N   UNL     1      20.847  46.349  48.852  1.00  0.00    -0.341 N 
HETATM   34  C   UNL     1      18.952  47.987  49.226  1.00  0.00     0.032 A 
HETATM   35  H   UNL     1      21.653  46.845  49.217  1.00  0.00     0.167 HD
HETATM   36  C   UNL     1      17.564  48.080  49.065  1.00  0.00     0.002 A 
HETATM   37  C   UNL     1      16.825  47.027  48.519  1.00  0.00     0.002 A 
ENDBRANCH  23  28
ENDBRANCH   1  23
TORSDOF 7
ENDMDL
MODEL 4
REMARK VINA RESULT:      -9.4      2.526      4.140
REMARK  7 active torsions:
REMARK  status: ('A' for Active; 'I' for Inactive)
REMARK    1  A    between atoms: S_2  and  C_3 
REMARK    2  A    between atoms: C_3  and  C_4 
REMARK    3  A    between atoms: C_4  and  C_5 
REMARK    4  A    between atoms: C_5  and  N_6 
REMARK    5  A    between atoms: C_5  and  C_26 
REMARK       I    between atoms: N_6  and  C_7 
REMARK    6  A    between atoms: C_7  and  C_8 
REMARK    7  A    between atoms: C_8  and  N_9 
ROOT
HETATM    1  N   UNL     1      23.539  45.131  48.134  1.00  0.00    -0.348 N 
HETATM    2  C   UNL     1      23.824  43.811  48.414  1.00  0.00     0.236 C 
HETATM    3  O   UNL     1      22.953  42.938  48.359  1.00  0.00    -0.272 OA
HETATM    4  H   UNL     1      24.076  45.837  48.633  1.00  0.00     0.163 HD
ENDROOT
BRANCH   2   5
HETATM    5  C   UNL     1      25.196  43.503  49.011  1.00  0.00     0.239 C 
BRANCH   5   6
HETATM    6  N   UNL     1      25.409  43.937  50.375  1.00  0.00    -0.259 N 
HETATM    7  C   UNL     1      24.746  43.432  51.444  1.00  0.00     0.326 A 
HETATM    8  O   UNL     1      23.773  42.696  51.407  1.00  0.00    -0.247 OA
HETATM    9  N   UNL     1      25.334  43.889  52.593  1.00  0.00    -0.320 N 
HETATM   10  C   UNL     1      26.478  44.742  52.335  1.00  0.00     0.144 A 
HETATM   11  H   UNL     1      25.056  43.549  53.504  1.00  0.00     0.165 HD
HETATM   12  C   UNL     1      27.744  44.127  52.921  1.00  0.00    -0.014 A 
HETATM   13  C   UNL     1      26.211  46.168  52.840  1.00  0.00     0.047 C 
HETATM   14  C   UNL     1      26.444  44.736  50.786  1.00  0.00     0.261 A 
HETATM   15  C   UNL     1      28.333  44.663  54.088  1.00  0.00    -0.049 A 
HETATM   16  C   UNL     1      28.337  42.991  52.335  1.00  0.00     0.011 A 
HETATM   17  C   UNL     1      29.503  44.084  54.609  1.00  0.00     0.007 A 
HETATM   18  C   UNL     1      27.789  45.896  54.768  1.00  0.00     0.039 C 
HETATM   19  C   UNL     1      30.082  42.973  54.001  1.00  0.00     0.001 A 
HETATM   20  C   UNL     1      29.497  42.424  52.866  1.00  0.00     0.001 A 
HETATM   21  C   UNL     1      26.362  46.240  54.357  1.00  0.00     0.008 C 
HETATM   22  O   UNL     1      27.230  45.316  50.048  1.00  0.00    -0.270 OA
ENDBRANCH   5   6
ENDBRANCH   2   5
BRANCH   1  23
HETATM   23  C   UNL     1      22.203  45.515  47.680  1.00  0.00     0.155 C 
BRANCH  23  24
HETATM   24  C   UNL     1      22.039  45.331  46.163  1.00  0.00     0.043 C 
BRANCH  24  25
HETATM   25  C   UNL     1      20.597  45.399  45.663  1.00  0.00     0.076 C 
BRANCH  25  26
HETATM   26  S   UNL     1      19.433  44.213  46.422  1.00  0.00    -0.173 SA
HETATM   27  C   UNL     1      20.119  42.652  45.808  1.00  0.00     0.089 C 
ENDBRANCH  25  26
ENDBRANCH  24  25
ENDBRANCH  23  24
BRANCH  23  28
HETATM   28  C   UNL     1      21.937  46.944  48.080  1.00  0.00     0.128 A 
HETATM   29  N   UNL     1      22.550  48.033  47.653  1.00  0.00    -0.231 NA
HETATM   30  C   UNL     1      21.864  49.086  48.210  1.00  0.00     0.085 A 
HETATM   31  C   UNL     1      20.834  48.634  49.026  1.00  0.00     0.062 A 
HETATM   32  C   UNL     1      22.057  50.466  48.052  1.00  0.00     0.034 A 
HETATM   33  N   UNL     1      20.903  47.269  48.928  1.00  0.00    -0.341 N 
HETATM   34  C   UNL     1      19.978  49.488  49.725  1.00  0.00     0.032 A 
HETATM   35  H   UNL     1      20.292  46.594  49.374  1.00  0.00     0.167 HD
HETATM   36  C   UNL     1      20.187  50.863  49.557  1.00  0.00     0.002 A 
HETATM   37  C   UNL     1      21.205  51.347  48.731  1.00  0.00     0.002 A 
ENDBRANCH  23  28
ENDBRANCH   1  23
TORSDOF 7
ENDMDL
MODEL 5
REMARK VINA RESULT:      -9.1      2.738      8.719
REMARK  7 active torsions:
REMARK  status: ('A' for Active; 'I' for Inactive)
REMARK    1  A    between atoms: S_2  and  C_3 
REMARK    2  A    between atoms: C_3  and  C_4 
REMARK    3  A    between atoms: C_4  and  C_5 
REMARK    4  A    between atoms: C_5  and  N_6 
REMARK    5  A    between atoms: C_5  and  C_26 
REMARK       I    between atoms: N_6  and  C_7 
REMARK    6  A    between atoms: C_7  and  C_8 
REMARK    7  A    between atoms: C_8  and  N_9 
ROOT
HETATM    1  N   UNL     1      26.288  46.160  50.004  1.00  0.00    -0.348 N 
HETATM    2  C   UNL     1      27.062  47.116  49.381  1.00  0.00     0.236 C 
HETATM    3  O   UNL     1      28.085  46.813  48.762  1.00  0.00    -0.272 OA
HETATM    4  H   UNL     1      25.797  46.439  50.851  1.00  0.00     0.163 HD
ENDROOT
BRANCH   2   5
HETATM    5  C   UNL     1      26.733  48.579  49.672  1.00  0.00     0.239 C 
BRANCH   5   6
HETATM    6  N   UNL     1      25.442  49.045  49.213  1.00  0.00    -0.259 N 
HETATM    7  C   UNL     1      25.242  49.689  48.037  1.00  0.00     0.326 A 
HETATM    8  O   UNL     1      26.109  50.124  47.297  1.00  0.00    -0.247 OA
HETATM    9  N   UNL     1      23.896  49.789  47.804  1.00  0.00    -0.320 N 
HETATM   10  C   UNL     1      23.100  49.175  48.849  1.00  0.00     0.144 A 
HETATM   11  H   UNL     1      23.532  50.145  46.931  1.00  0.00     0.165 HD
HETATM   12  C   UNL     1      22.267  48.031  48.281  1.00  0.00    -0.014 A 
HETATM   13  C   UNL     1      22.255  50.233  49.575  1.00  0.00     0.047 C 
HETATM   14  C   UNL     1      24.243  48.706  49.785  1.00  0.00     0.261 A 
HETATM   15  C   UNL     1      20.873  48.174  48.098  1.00  0.00    -0.049 A 
HETATM   16  C   UNL     1      22.871  46.818  47.893  1.00  0.00     0.011 A 
HETATM   17  C   UNL     1      20.124  47.105  47.578  1.00  0.00     0.007 A 
HETATM   18  C   UNL     1      20.134  49.423  48.513  1.00  0.00     0.039 C 
HETATM   19  C   UNL     1      20.740  45.909  47.220  1.00  0.00     0.001 A 
HETATM   20  C   UNL     1      22.114  45.766  47.374  1.00  0.00     0.001 A 
HETATM   21  C   UNL     1      21.044  50.625  48.733  1.00  0.00     0.008 C 
HETATM   22  O   UNL     1      24.105  48.103  50.841  1.00  0.00    -0.270 OA
ENDBRANCH   5   6
ENDBRANCH   2   5
BRANCH   1  23
HETATM   23  C   UNL     1      26.624  44.742  49.873  1.00  0.00     0.155 C 
BRANCH  23  24
HETATM   24  C   UNL     1      25.369  43.872  49.693  1.00  0.00     0.043 C 
BRANCH  24  25
HETATM   25  C   UNL     1      25.607  42.552  48.960  1.00  0.00     0.076 C 
BRANCH  25  26
HETATM   26  S   UNL     1      24.131  41.507  48.700  1.00  0.00    -0.173 SA
HETATM   27  C   UNL     1      22.837  42.625  49.299  1.00  0.00     0.089 C 
ENDBRANCH  25  26
ENDBRANCH  24  25
ENDBRANCH  23  24
BRANCH  23  28
HETATM   28  C   UNL     1      27.410  44.307  51.083  1.00  0.00     0.128 A 
HETATM   29  N   UNL     1      28.419  43.456  51.133  1.00  0.00    -0.231 NA
HETATM   30  C   UNL     1      28.874  43.496  52.429  1.00  0.00     0.085 A 
HETATM   31  C   UNL     1      28.103  44.358  53.201  1.00  0.00     0.062 A 
HETATM   32  C   UNL     1      29.955  42.828  53.021  1.00  0.00     0.034 A 
HETATM   33  N   UNL     1      27.180  44.860  52.323  1.00  0.00    -0.341 N 
HETATM   34  C   UNL     1      28.336  44.586  54.559  1.00  0.00     0.032 A 
HETATM   35  H   UNL     1      26.455  45.541  52.522  1.00  0.00     0.167 HD
HETATM   36  C   UNL     1      29.419  43.909  55.134  1.00  0.00     0.002 A 
HETATM   37  C   UNL     1      30.220  43.048  54.379  1.00  0.00     0.002 A 
ENDBRANCH  23  28
ENDBRANCH   1  23
TORSDOF 7
ENDMDL
MODEL 6
REMARK VINA RESULT:      -8.9      4.876      7.971
REMARK  7 active torsions:
REMARK  status: ('A' for Active; 'I' for Inactive)
REMARK    1  A    between atoms: S_2  and  C_3 
REMARK    2  A    between atoms: C_3  and  C_4 
REMARK    3  A    between atoms: C_4  and  C_5 
REMARK    4  A    between atoms: C_5  and  N_6 
REMARK    5  A    between atoms: C_5  and  C_26 
REMARK       I    between atoms: N_6  and  C_7 
REMARK    6  A    between atoms: C_7  and  C_8 
REMARK    7  A    between atoms: C_8  and  N_9 
ROOT
HETATM    1  N   UNL     1      26.309  41.772  48.199  1.00  0.00    -0.348 N 
HETATM    2  C   UNL     1      25.128  42.273  48.704  1.00  0.00     0.236 C 
HETATM    3  O   UNL     1      24.169  41.537  48.952  1.00  0.00    -0.272 OA
HETATM    4  H   UNL     1      26.843  42.378  47.580  1.00  0.00     0.163 HD
ENDROOT
BRANCH   2   5
HETATM    5  C   UNL     1      24.970  43.792  48.735  1.00  0.00     0.239 C 
BRANCH   5   6
HETATM    6  N   UNL     1      25.138  44.424  50.026  1.00  0.00    -0.259 N 
HETATM    7  C   UNL     1      24.255  44.307  51.049  1.00  0.00     0.326 A 
HETATM    8  O   UNL     1      23.136  43.825  50.983  1.00  0.00    -0.247 OA
HETATM    9  N   UNL     1      24.813  44.831  52.184  1.00  0.00    -0.320 N 
HETATM   10  C   UNL     1      26.159  45.326  51.970  1.00  0.00     0.144 A 
HETATM   11  H   UNL     1      24.360  44.751  53.084  1.00  0.00     0.165 HD
HETATM   12  C   UNL     1      27.153  44.561  52.836  1.00  0.00    -0.014 A 
HETATM   13  C   UNL     1      26.214  46.846  52.188  1.00  0.00     0.047 C 
HETATM   14  C   UNL     1      26.293  45.024  50.456  1.00  0.00     0.261 A 
HETATM   15  C   UNL     1      27.730  45.163  53.977  1.00  0.00    -0.049 A 
HETATM   16  C   UNL     1      27.493  43.226  52.542  1.00  0.00     0.011 A 
HETATM   17  C   UNL     1      28.647  44.441  54.759  1.00  0.00     0.007 A 
HETATM   18  C   UNL     1      27.450  46.598  54.354  1.00  0.00     0.039 C 
HETATM   19  C   UNL     1      28.983  43.129  54.437  1.00  0.00     0.001 A 
HETATM   20  C   UNL     1      28.403  42.520  53.331  1.00  0.00     0.001 A 
HETATM   21  C   UNL     1      26.214  47.177  53.678  1.00  0.00     0.008 C 
HETATM   22  O   UNL     1      27.277  45.248  49.763  1.00  0.00    -0.270 OA
ENDBRANCH   5   6
ENDBRANCH   2   5
BRANCH   1  23
HETATM   23  C   UNL     1      26.480  40.330  48.022  1.00  0.00     0.155 C 
BRANCH  23  24
HETATM   24  C   UNL     1      27.151  39.679  49.242  1.00  0.00     0.043 C 
BRANCH  24  25
HETATM   25  C   UNL     1      28.669  39.845  49.301  1.00  0.00     0.076 C 
BRANCH  25  26
HETATM   26  S   UNL     1      29.645  38.306  49.168  1.00  0.00    -0.173 SA
HETATM   27  C   UNL     1      29.972  37.981  50.920  1.00  0.00     0.089 C 
ENDBRANCH  25  26
ENDBRANCH  24  25
ENDBRANCH  23  24
BRANCH  23  28
HETATM   28  C   UNL     1      27.282  40.078  46.770  1.00  0.00     0.128 A 
HETATM   29  N   UNL     1      27.519  38.922  46.178  1.00  0.00    -0.231 NA
HETATM   30  C   UNL     1      28.180  39.232  45.013  1.00  0.00     0.085 A 
HETATM   31  C   UNL     1      28.387  40.603  44.907  1.00  0.00     0.062 A 
HETATM   32  C   UNL     1      28.626  38.390  43.984  1.00  0.00     0.034 A 
HETATM   33  N   UNL     1      27.808  41.117  46.037  1.00  0.00    -0.341 N 
HETATM   34  C   UNL     1      29.042  41.198  43.827  1.00  0.00     0.032 A 
HETATM   35  H   UNL     1      27.744  42.095  46.299  1.00  0.00     0.167 HD
HETATM   36  C   UNL     1      29.482  40.342  42.809  1.00  0.00     0.002 A 
HETATM   37  C   UNL     1      29.275  38.962  42.881  1.00  0.00     0.002 A 
ENDBRANCH  23  28
ENDBRANCH   1  23
TORSDOF 7
ENDMDL
MODEL 7
REMARK VINA RESULT:      -8.6      2.613      4.119
REMARK  7 active torsions:
REMARK  status: ('A' for Active; 'I' for Inactive)
REMARK    1  A    between atoms: S_2  and  C_3 
REMARK    2  A    between atoms: C_3  and  C_4 
REMARK    3  A    between atoms: C_4  and  C_5 
REMARK    4  A    between atoms: C_5  and  N_6 
REMARK    5  A    between atoms: C_5  and  C_26 
REMARK       I    between atoms: N_6  and  C_7 
REMARK    6  A    between atoms: C_7  and  C_8 
REMARK    7  A    between atoms: C_8  and  N_9 
ROOT
HETATM    1  N   UNL     1      23.131  46.844  49.589  1.00  0.00    -0.348 N 
HETATM    2  C   UNL     1      24.144  47.684  50.000  1.00  0.00     0.236 C 
HETATM    3  O   UNL     1      24.416  48.717  49.381  1.00  0.00    -0.272 OA
HETATM    4  H   UNL     1      23.246  45.851  49.779  1.00  0.00     0.163 HD
ENDROOT
BRANCH   2   5
HETATM    5  C   UNL     1      25.062  47.181  51.112  1.00  0.00     0.239 C 
BRANCH   5   6
HETATM    6  N   UNL     1      25.713  45.910  50.874  1.00  0.00    -0.259 N 
HETATM    7  C   UNL     1      26.762  45.742  50.032  1.00  0.00     0.326 A 
HETATM    8  O   UNL     1      27.185  46.562  49.234  1.00  0.00    -0.247 OA
HETATM    9  N   UNL     1      27.278  44.485  50.205  1.00  0.00    -0.320 N 
HETATM   10  C   UNL     1      26.581  43.730  51.228  1.00  0.00     0.144 A 
HETATM   11  H   UNL     1      28.130  44.192  49.746  1.00  0.00     0.165 HD
HETATM   12  C   UNL     1      27.530  43.371  52.366  1.00  0.00    -0.014 A 
HETATM   13  C   UNL     1      25.887  42.504  50.613  1.00  0.00     0.047 C 
HETATM   14  C   UNL     1      25.509  44.779  51.620  1.00  0.00     0.261 A 
HETATM   15  C   UNL     1      28.002  42.049  52.523  1.00  0.00    -0.049 A 
HETATM   16  C   UNL     1      27.986  44.355  53.266  1.00  0.00     0.011 A 
HETATM   17  C   UNL     1      28.873  41.739  53.582  1.00  0.00     0.007 A 
HETATM   18  C   UNL     1      27.545  40.923  51.628  1.00  0.00     0.039 C 
HETATM   19  C   UNL     1      29.294  42.725  54.471  1.00  0.00     0.001 A 
HETATM   20  C   UNL     1      28.854  44.033  54.311  1.00  0.00     0.001 A 
HETATM   21  C   UNL     1      26.899  41.397  50.332  1.00  0.00     0.008 C 
HETATM   22  O   UNL     1      24.646  44.638  52.477  1.00  0.00    -0.270 OA
ENDBRANCH   5   6
ENDBRANCH   2   5
BRANCH   1  23
HETATM   23  C   UNL     1      22.293  47.206  48.446  1.00  0.00     0.155 C 
BRANCH  23  24
HETATM   24  C   UNL     1      21.114  48.101  48.861  1.00  0.00     0.043 C 
BRANCH  24  25
HETATM   25  C   UNL     1      21.205  49.546  48.373  1.00  0.00     0.076 C 
BRANCH  25  26
HETATM   26  S   UNL     1      21.288  50.824  49.676  1.00  0.00    -0.173 SA
HETATM   27  C   UNL     1      19.576  51.417  49.654  1.00  0.00     0.089 C 
ENDBRANCH  25  26
ENDBRANCH  24  25
ENDBRANCH  23  24
BRANCH  23  28
HETATM   28  C   UNL     1      21.803  45.948  47.775  1.00  0.00     0.128 A 
HETATM   29  N   UNL     1      20.568  45.648  47.416  1.00  0.00    -0.231 NA
HETATM   30  C   UNL     1      20.659  44.459  46.734  1.00  0.00     0.085 A 
HETATM   31  C   UNL     1      21.972  43.999  46.707  1.00  0.00     0.062 A 
HETATM   32  C   UNL     1      19.659  43.713  46.093  1.00  0.00     0.034 A 
HETATM   33  N   UNL     1      22.678  44.963  47.376  1.00  0.00    -0.341 N 
HETATM   34  C   UNL     1      22.354  42.808  46.086  1.00  0.00     0.032 A 
HETATM   35  H   UNL     1      23.678  44.982  47.542  1.00  0.00     0.167 HD
HETATM   36  C   UNL     1      21.342  42.076  45.453  1.00  0.00     0.002 A 
HETATM   37  C   UNL     1      20.017  42.520  45.450  1.00  0.00     0.002 A 
ENDBRANCH  23  28
ENDBRANCH   1  23
TORSDOF 7
ENDMDL
MODEL 8
REMARK VINA RESULT:      -8.6      3.889     10.325
REMARK  7 active torsions:
REMARK  status: ('A' for Active; 'I' for Inactive)
REMARK    1  A    between atoms: S_2  and  C_3 
REMARK    2  A    between atoms: C_3  and  C_4 
REMARK    3  A    between atoms: C_4  and  C_5 
REMARK    4  A    between atoms: C_5  and  N_6 
REMARK    5  A    between atoms: C_5  and  C_26 
REMARK       I    between atoms: N_6  and  C_7 
REMARK    6  A    between atoms: C_7  and  C_8 
REMARK    7  A    between atoms: C_8  and  N_9 
ROOT
HETATM    1  N   UNL     1      22.294  47.907  49.505  1.00  0.00    -0.348 N 
HETATM    2  C   UNL     1      22.225  49.241  49.162  1.00  0.00     0.236 C 
HETATM    3  O   UNL     1      23.159  49.808  48.589  1.00  0.00    -0.272 OA
HETATM    4  H   UNL     1      21.795  47.617  50.343  1.00  0.00     0.163 HD
ENDROOT
BRANCH   2   5
HETATM    5  C   UNL     1      21.049  50.045  49.715  1.00  0.00     0.239 C 
BRANCH   5   6
HETATM    6  N   UNL     1      19.879  50.125  48.867  1.00  0.00    -0.259 N 
HETATM    7  C   UNL     1      18.962  49.134  48.744  1.00  0.00     0.326 A 
HETATM    8  O   UNL     1      19.073  47.994  49.164  1.00  0.00    -0.247 OA
HETATM    9  N   UNL     1      17.879  49.609  48.053  1.00  0.00    -0.320 N 
HETATM   10  C   UNL     1      18.019  51.004  47.683  1.00  0.00     0.144 A 
HETATM   11  H   UNL     1      17.039  49.059  47.940  1.00  0.00     0.165 HD
HETATM   12  C   UNL     1      16.921  51.839  48.332  1.00  0.00    -0.014 A 
HETATM   13  C   UNL     1      18.067  51.154  46.155  1.00  0.00     0.047 C 
HETATM   14  C   UNL     1      19.430  51.272  48.266  1.00  0.00     0.261 A 
HETATM   15  C   UNL     1      15.845  52.339  47.565  1.00  0.00    -0.049 A 
HETATM   16  C   UNL     1      16.934  52.104  49.717  1.00  0.00     0.011 A 
HETATM   17  C   UNL     1      14.846  53.110  48.183  1.00  0.00     0.007 A 
HETATM   18  C   UNL     1      15.761  52.134  46.072  1.00  0.00     0.039 C 
HETATM   19  C   UNL     1      14.890  53.375  49.549  1.00  0.00     0.001 A 
HETATM   20  C   UNL     1      15.932  52.869  50.317  1.00  0.00     0.001 A 
HETATM   21  C   UNL     1      16.669  51.023  45.557  1.00  0.00     0.008 C 
HETATM   22  O   UNL     1      20.031  52.338  48.229  1.00  0.00    -0.270 OA
ENDBRANCH   5   6
ENDBRANCH   2   5
BRANCH   1  23
HETATM   23  C   UNL     1      23.456  47.107  49.118  1.00  0.00     0.155 C 
BRANCH  23  24
HETATM   24  C   UNL     1      23.045  45.825  48.376  1.00  0.00     0.043 C 
BRANCH  24  25
HETATM   25  C   UNL     1      21.547  45.527  48.395  1.00  0.00     0.076 C 
BRANCH  25  26
HETATM   26  S   UNL     1      20.860  44.789  46.871  1.00  0.00    -0.173 SA
HETATM   27  C   UNL     1      19.092  44.831  47.263  1.00  0.00     0.089 C 
ENDBRANCH  25  26
ENDBRANCH  24  25
ENDBRANCH  23  24
BRANCH  23  28
HETATM   28  C   UNL     1      24.262  46.780  50.349  1.00  0.00     0.128 A 
HETATM   29  N   UNL     1      24.966  47.606  51.101  1.00  0.00    -0.231 NA
HETATM   30  C   UNL     1      25.404  46.856  52.166  1.00  0.00     0.085 A 
HETATM   31  C   UNL     1      24.993  45.533  52.046  1.00  0.00     0.062 A 
HETATM   32  C   UNL     1      26.151  47.242  53.288  1.00  0.00     0.034 A 
HETATM   33  N   UNL     1      24.270  45.511  50.883  1.00  0.00    -0.341 N 
HETATM   34  C   UNL     1      25.303  44.546  52.984  1.00  0.00     0.032 A 
HETATM   35  H   UNL     1      23.793  44.714  50.475  1.00  0.00     0.167 HD
HETATM   36  C   UNL     1      26.051  44.948  54.097  1.00  0.00     0.002 A 
HETATM   37  C   UNL     1      26.465  46.274  54.252  1.00  0.00     0.002 A 
ENDBRANCH  23  28
ENDBRANCH   1  23
TORSDOF 7
ENDMDL
MODEL 9
REMARK VINA RESULT:      -8.6      4.000      6.949
REMARK  7 active torsions:
REMARK  status: ('A' for Active; 'I' for Inactive)
REMARK    1  A    between atoms: S_2  and  C_3 
REMARK    2  A    between atoms: C_3  and  C_4 
REMARK    3  A    between atoms: C_4  and  C_5 
REMARK    4  A    between atoms: C_5  and  N_6 
REMARK    5  A    between atoms: C_5  and  C_26 
REMARK       I    between atoms: N_6  and  C_7 
REMARK    6  A    between atoms: C_7  and  C_8 
REMARK    7  A    between atoms: C_8  and  N_9 
ROOT
HETATM    1  N   UNL     1      24.365  42.544  49.192  1.00  0.00    -0.348 N 
HETATM    2  C   UNL     1      24.171  43.909  49.165  1.00  0.00     0.236 C 
HETATM    3  O   UNL     1      23.882  44.499  48.120  1.00  0.00    -0.272 OA
HETATM    4  H   UNL     1      25.036  42.184  49.866  1.00  0.00     0.163 HD
ENDROOT
BRANCH   2   5
HETATM    5  C   UNL     1      24.543  44.692  50.422  1.00  0.00     0.239 C 
BRANCH   5   6
HETATM    6  N   UNL     1      25.797  44.332  51.049  1.00  0.00    -0.259 N 
HETATM    7  C   UNL     1      27.015  44.590  50.513  1.00  0.00     0.326 A 
HETATM    8  O   UNL     1      27.234  44.982  49.379  1.00  0.00    -0.247 OA
HETATM    9  N   UNL     1      27.981  44.328  51.448  1.00  0.00    -0.320 N 
HETATM   10  C   UNL     1      27.429  43.882  52.713  1.00  0.00     0.144 A 
HETATM   11  H   UNL     1      28.953  44.552  51.285  1.00  0.00     0.165 HD
HETATM   12  C   UNL     1      27.793  44.857  53.827  1.00  0.00    -0.014 A 
HETATM   13  C   UNL     1      27.863  42.438  53.010  1.00  0.00     0.047 C 
HETATM   14  C   UNL     1      25.924  43.895  52.342  1.00  0.00     0.261 A 
HETATM   15  C   UNL     1      28.770  44.521  54.790  1.00  0.00    -0.049 A 
HETATM   16  C   UNL     1      27.191  46.130  53.901  1.00  0.00     0.011 A 
HETATM   17  C   UNL     1      29.087  45.434  55.811  1.00  0.00     0.007 A 
HETATM   18  C   UNL     1      29.445  43.172  54.810  1.00  0.00     0.039 C 
HETATM   19  C   UNL     1      28.464  46.677  55.876  1.00  0.00     0.001 A 
HETATM   20  C   UNL     1      27.519  47.027  54.919  1.00  0.00     0.001 A 
HETATM   21  C   UNL     1      29.307  42.401  53.503  1.00  0.00     0.008 C 
HETATM   22  O   UNL     1      24.998  43.602  53.088  1.00  0.00    -0.270 OA
ENDBRANCH   5   6
ENDBRANCH   2   5
BRANCH   1  23
HETATM   23  C   UNL     1      24.150  41.747  47.984  1.00  0.00     0.155 C 
BRANCH  23  24
HETATM   24  C   UNL     1      22.742  41.132  47.948  1.00  0.00     0.043 C 
BRANCH  24  25
HETATM   25  C   UNL     1      21.903  41.528  46.735  1.00  0.00     0.076 C 
BRANCH  25  26
HETATM   26  S   UNL     1      20.800  40.232  46.070  1.00  0.00    -0.173 SA
HETATM   27  C   UNL     1      21.362  38.806  47.037  1.00  0.00     0.089 C 
ENDBRANCH  25  26
ENDBRANCH  24  25
ENDBRANCH  23  24
BRANCH  23  28
HETATM   28  C   UNL     1      25.207  40.675  47.905  1.00  0.00     0.128 A 
HETATM   29  N   UNL     1      25.907  40.301  46.850  1.00  0.00    -0.231 NA
HETATM   30  C   UNL     1      26.822  39.388  47.317  1.00  0.00     0.085 A 
HETATM   31  C   UNL     1      26.655  39.167  48.680  1.00  0.00     0.062 A 
HETATM   32  C   UNL     1      27.843  38.711  46.634  1.00  0.00     0.034 A 
HETATM   33  N   UNL     1      25.622  39.996  49.029  1.00  0.00    -0.341 N 
HETATM   34  C   UNL     1      27.445  38.281  49.415  1.00  0.00     0.032 A 
HETATM   35  H   UNL     1      25.228  40.123  49.955  1.00  0.00     0.167 HD
HETATM   36  C   UNL     1      28.458  37.612  48.716  1.00  0.00     0.002 A 
HETATM   37  C   UNL     1      28.659  37.825  47.350  1.00  0.00     0.002 A 
ENDBRANCH  23  28
ENDBRANCH   1  23
TORSDOF 7
ENDMDL
MODEL 10
REMARK VINA RESULT:      -8.6      2.888      7.955
REMARK  7 active torsions:
REMARK  status: ('A' for Active; 'I' for Inactive)
REMARK    1  A    between atoms: S_2  and  C_3 
REMARK    2  A    between atoms: C_3  and  C_4 
REMARK    3  A    between atoms: C_4  and  C_5 
REMARK    4  A    between atoms: C_5  and  N_6 
REMARK    5  A    between atoms: C_5  and  C_26 
REMARK       I    between atoms: N_6  and  C_7 
REMARK    6  A    between atoms: C_7  and  C_8 
REMARK    7  A    between atoms: C_8  and  N_9 
ROOT
HETATM    1  N   UNL     1      22.740  43.421  48.587  1.00  0.00    -0.348 N 
HETATM    2  C   UNL     1      22.491  43.736  47.267  1.00  0.00     0.236 C 
HETATM    3  O   UNL     1      23.406  43.840  46.446  1.00  0.00    -0.272 OA
HETATM    4  H   UNL     1      22.108  43.809  49.283  1.00  0.00     0.163 HD
ENDROOT
BRANCH   2   5
HETATM    5  C   UNL     1      21.071  44.171  46.909  1.00  0.00     0.239 C 
BRANCH   5   6
HETATM    6  N   UNL     1      20.667  45.478  47.381  1.00  0.00    -0.259 N 
HETATM    7  C   UNL     1      20.187  45.720  48.626  1.00  0.00     0.326 A 
HETATM    8  O   UNL     1      19.859  44.880  49.447  1.00  0.00    -0.247 OA
HETATM    9  N   UNL     1      20.114  47.073  48.822  1.00  0.00    -0.320 N 
HETATM   10  C   UNL     1      20.579  47.831  47.676  1.00  0.00     0.144 A 
HETATM   11  H   UNL     1      19.878  47.468  49.722  1.00  0.00     0.165 HD
HETATM   12  C   UNL     1      21.786  48.682  48.055  1.00  0.00    -0.014 A 
HETATM   13  C   UNL     1      19.429  48.651  47.071  1.00  0.00     0.047 C 
HETATM   14  C   UNL     1      20.921  46.655  46.726  1.00  0.00     0.261 A 
HETATM   15  C   UNL     1      21.664  50.082  48.206  1.00  0.00    -0.049 A 
HETATM   16  C   UNL     1      23.042  48.091  48.296  1.00  0.00     0.011 A 
HETATM   17  C   UNL     1      22.791  50.848  48.551  1.00  0.00     0.007 A 
HETATM   18  C   UNL     1      20.367  50.807  47.939  1.00  0.00     0.039 C 
HETATM   19  C   UNL     1      24.026  50.243  48.765  1.00  0.00     0.001 A 
HETATM   20  C   UNL     1      24.152  48.865  48.642  1.00  0.00     0.001 A 
HETATM   21  C   UNL     1      19.149  49.892  47.915  1.00  0.00     0.008 C 
HETATM   22  O   UNL     1      21.376  46.756  45.594  1.00  0.00    -0.270 OA
ENDBRANCH   5   6
ENDBRANCH   2   5
BRANCH   1  23
HETATM   23  C   UNL     1      24.102  43.120  49.026  1.00  0.00     0.155 C 
BRANCH  23  24
HETATM   24  C   UNL     1      24.292  41.622  49.313  1.00  0.00     0.043 C 
BRANCH  24  25
HETATM   25  C   UNL     1      25.644  41.055  48.883  1.00  0.00     0.076 C 
BRANCH  25  26
HETATM   26  S   UNL     1      26.509  40.028  50.122  1.00  0.00    -0.173 SA
HETATM   27  C   UNL     1      28.229  40.464  49.756  1.00  0.00     0.089 C 
ENDBRANCH  25  26
ENDBRANCH  24  25
ENDBRANCH  23  24
BRANCH  23  28
HETATM   28  C   UNL     1      24.421  43.945  50.247  1.00  0.00     0.128 A 
HETATM   29  N   UNL     1      24.558  43.530  51.494  1.00  0.00    -0.231 NA
HETATM   30  C   UNL     1      24.972  44.630  52.206  1.00  0.00     0.085 A 
HETATM   31  C   UNL     1      25.054  45.752  51.388  1.00  0.00     0.062 A 
HETATM   32  C   UNL     1      25.312  44.745  53.562  1.00  0.00     0.034 A 
HETATM   33  N   UNL     1      24.698  45.290  50.149  1.00  0.00    -0.341 N 
HETATM   34  C   UNL     1      25.443  47.011  51.851  1.00  0.00     0.032 A 
HETATM   35  H   UNL     1      24.660  45.822  49.287  1.00  0.00     0.167 HD
HETATM   36  C   UNL     1      25.777  47.107  53.207  1.00  0.00     0.002 A 
HETATM   37  C   UNL     1      25.719  45.994  54.050  1.00  0.00     0.002 A 
ENDBRANCH  23  28
ENDBRANCH   1  23
TORSDOF 7
ENDMDL
