MODEL 1
REMARK VINA RESULT:     -10.1      0.000      0.000
REMARK  8 active torsions:
REMARK  status: ('A' for Active; 'I' for Inactive)
REMARK    1  A    between atoms: C_2  and  N_3 
REMARK       I    between atoms: N_3  and  C_4 
REMARK       I    between atoms: C_4  and  N_5 
REMARK    2  A    between atoms: N_5  and  C_6 
REMARK    3  A    between atoms: N_5  and  C_22 
REMARK    4  A    between atoms: C_6  and  C_7 
REMARK    5  A    between atoms: C_8  and  O_9 
REMARK    6  A    between atoms: C_22  and  C_23 
REMARK    7  A    between atoms: C_23  and  C_24 
REMARK    8  A    between atoms: C_24  and  N_25 
ROOT
HETATM    1  N   UNL     1      28.606  44.406  53.772  1.00  0.00    -0.309 N 
HETATM    2  C   UNL     1      27.285  44.033  53.726  1.00  0.00     0.323 C 
HETATM    3  N   UNL     1      26.806  43.742  52.445  1.00  0.00    -0.330 N 
HETATM    4  O   UNL     1      26.555  43.903  54.705  1.00  0.00    -0.247 OA
HETATM    5  H   UNL     1      28.940  44.926  52.974  1.00  0.00     0.170 HD
ENDROOT
BRANCH   3   6
HETATM    6  C   UNL     1      25.375  43.433  52.328  1.00  0.00     0.170 C 
BRANCH   6   7
HETATM    7  C   UNL     1      24.643  44.350  51.393  1.00  0.00     0.013 A 
HETATM    8  C   UNL     1      23.639  43.902  50.546  1.00  0.00     0.170 A 
HETATM    9  N   UNL     1      23.021  44.660  49.625  1.00  0.00    -0.224 NA
HETATM   10  C   UNL     1      23.378  45.949  49.518  1.00  0.00     0.072 A 
HETATM   11  C   UNL     1      24.364  46.525  50.348  1.00  0.00    -0.004 A 
HETATM   12  C   UNL     1      22.768  46.747  48.561  1.00  0.00     0.072 A 
HETATM   13  C   UNL     1      24.989  45.702  51.297  1.00  0.00     0.027 A 
HETATM   14  C   UNL     1      24.717  47.876  50.196  1.00  0.00     0.053 A 
HETATM   15  C   UNL     1      24.106  48.649  49.214  1.00  0.00     0.103 A 
HETATM   16  C   UNL     1      23.116  48.089  48.409  1.00  0.00     0.104 A 
HETATM   17  O   UNL     1      24.529  49.946  49.096  1.00  0.00    -0.346 OA
HETATM   18  O   UNL     1      22.452  48.792  47.435  1.00  0.00    -0.346 OA
HETATM   19  C   UNL     1      22.651  50.203  47.575  1.00  0.00     0.202 C 
HETATM   20  C   UNL     1      24.112  50.517  47.847  1.00  0.00     0.202 C 
BRANCH   8  21
HETATM   21  O   UNL     1      23.221  42.605  50.570  1.00  0.00    -0.344 OA
HETATM   22  H   UNL     1      24.030  42.052  50.553  1.00  0.00     0.219 HD
ENDBRANCH   8  21
ENDBRANCH   6   7
ENDBRANCH   3   6
BRANCH   3  23
HETATM   23  C   UNL     1      27.658  43.467  51.285  1.00  0.00     0.129 C 
BRANCH  23  24
HETATM   24  C   UNL     1      27.471  42.051  50.715  1.00  0.00     0.048 C 
BRANCH  24  25
HETATM   25  C   UNL     1      28.322  41.006  51.433  1.00  0.00     0.236 C 
BRANCH  25  26
HETATM   26  N   UNL     1      28.378  39.710  50.650  1.00  0.00    -0.067 N 
HETATM   27  H   UNL     1      27.474  39.231  50.762  1.00  0.00     0.280 HD
HETATM   28  C   UNL     1      28.540  39.987  49.149  1.00  0.00     0.261 C 
HETATM   29  C   UNL     1      28.588  38.664  48.378  1.00  0.00     0.195 C 
HETATM   30  O   UNL     1      29.653  37.836  48.858  1.00  0.00    -0.388 OA
HETATM   31  C   UNL     1      29.480  37.499  50.237  1.00  0.00     0.195 C 
HETATM   32  C   UNL     1      29.478  38.756  51.113  1.00  0.00     0.261 C 
ENDBRANCH  25  26
ENDBRANCH  24  25
ENDBRANCH  23  24
ENDBRANCH   3  23
BRANCH   1  33
HETATM   33  C   UNL     1      29.427  44.480  54.919  1.00  0.00     0.036 A 
HETATM   34  C   UNL     1      29.401  45.548  55.823  1.00  0.00     0.032 A 
HETATM   35  C   UNL     1      30.220  45.535  56.957  1.00  0.00     0.044 A 
HETATM   36  C   UNL     1      31.054  44.451  57.192  1.00  0.00     0.116 A 
HETATM   37  C   UNL     1      31.088  43.378  56.311  1.00  0.00     0.044 A 
HETATM   38  F   UNL     1      31.829  44.435  58.283  1.00  0.00    -0.206 F 
HETATM   39  C   UNL     1      30.275  43.391  55.175  1.00  0.00     0.032 A 
ENDBRANCH   1  33
TORSDOF 8
ENDMDL
MODEL 2
REMARK VINA RESULT:     -10.1      1.762      7.020
REMARK  8 active torsions:
REMARK  status: ('A' for Active; 'I' for Inactive)
REMARK    1  A    between atoms: C_2  and  N_3 
REMARK       I    between atoms: N_3  and  C_4 
REMARK       I    between atoms: C_4  and  N_5 
REMARK    2  A    between atoms: N_5  and  C_6 
REMARK    3  A    between atoms: N_5  and  C_22 
REMARK    4  A    between atoms: C_6  and  C_7 
REMARK    5  A    between atoms: C_8  and  O_9 
REMARK    6  A    between atoms: C_22  and  C_23 
REMARK    7  A    between atoms: C_23  and  C_24 
REMARK    8  A    between atoms: C_24  and  N_25 
ROOT
HETATM    1  N   UNL     1      27.890  45.556  54.718  1.00  0.00    -0.309 N 
HETATM    2  C   UNL     1      26.857  44.721  54.370  1.00  0.00     0.323 C 
HETATM    3  N   UNL     1      26.103  45.150  53.273  1.00  0.00    -0.330 N 
HETATM    4  O   UNL     1      26.603  43.650  54.916  1.00  0.00    -0.247 OA
HETATM    5  H   UNL     1      27.722  46.541  54.569  1.00  0.00     0.170 HD
ENDROOT
BRANCH   3   6
HETATM    6  C   UNL     1      24.927  44.343  52.922  1.00  0.00     0.170 C 
BRANCH   6   7
HETATM    7  C   UNL     1      25.133  43.491  51.706  1.00  0.00     0.013 A 
HETATM    8  C   UNL     1      24.177  43.380  50.705  1.00  0.00     0.170 A 
HETATM    9  N   UNL     1      24.272  42.559  49.646  1.00  0.00    -0.224 NA
HETATM   10  C   UNL     1      25.371  41.800  49.525  1.00  0.00     0.072 A 
HETATM   11  C   UNL     1      26.424  41.850  50.464  1.00  0.00    -0.004 A 
HETATM   12  C   UNL     1      25.482  40.929  48.451  1.00  0.00     0.072 A 
HETATM   13  C   UNL     1      26.290  42.719  51.557  1.00  0.00     0.027 A 
HETATM   14  C   UNL     1      27.554  41.030  50.307  1.00  0.00     0.053 A 
HETATM   15  C   UNL     1      27.631  40.150  49.232  1.00  0.00     0.103 A 
HETATM   16  C   UNL     1      26.603  40.114  48.291  1.00  0.00     0.104 A 
HETATM   17  O   UNL     1      28.742  39.352  49.165  1.00  0.00    -0.346 OA
HETATM   18  O   UNL     1      26.617  39.291  47.194  1.00  0.00    -0.346 OA
HETATM   19  C   UNL     1      27.921  38.746  46.959  1.00  0.00     0.202 C 
HETATM   20  C   UNL     1      28.542  38.259  48.257  1.00  0.00     0.202 C 
BRANCH   8  21
HETATM   21  O   UNL     1      23.020  44.099  50.750  1.00  0.00    -0.344 OA
HETATM   22  H   UNL     1      22.641  44.072  49.846  1.00  0.00     0.219 HD
ENDBRANCH   8  21
ENDBRANCH   6   7
ENDBRANCH   3   6
BRANCH   3  23
HETATM   23  C   UNL     1      26.544  46.164  52.312  1.00  0.00     0.129 C 
BRANCH  23  24
HETATM   24  C   UNL     1      25.422  47.124  51.882  1.00  0.00     0.048 C 
BRANCH  24  25
HETATM   25  C   UNL     1      25.128  47.059  50.386  1.00  0.00     0.236 C 
BRANCH  25  26
HETATM   26  N   UNL     1      25.303  48.414  49.732  1.00  0.00    -0.067 N 
HETATM   27  H   UNL     1      25.248  49.133  50.467  1.00  0.00     0.280 HD
HETATM   28  C   UNL     1      26.700  48.541  49.107  1.00  0.00     0.261 C 
HETATM   29  C   UNL     1      26.857  49.919  48.458  1.00  0.00     0.195 C 
HETATM   30  O   UNL     1      25.840  50.134  47.473  1.00  0.00    -0.388 OA
HETATM   31  C   UNL     1      24.532  50.101  48.048  1.00  0.00     0.195 C 
HETATM   32  C   UNL     1      24.243  48.734  48.678  1.00  0.00     0.261 C 
ENDBRANCH  25  26
ENDBRANCH  24  25
ENDBRANCH  23  24
ENDBRANCH   3  23
BRANCH   1  33
HETATM   33  C   UNL     1      28.971  45.257  55.575  1.00  0.00     0.036 A 
HETATM   34  C   UNL     1      29.196  45.907  56.794  1.00  0.00     0.032 A 
HETATM   35  C   UNL     1      30.271  45.532  57.608  1.00  0.00     0.044 A 
HETATM   36  C   UNL     1      31.110  44.501  57.209  1.00  0.00     0.116 A 
HETATM   37  C   UNL     1      30.898  43.839  56.007  1.00  0.00     0.044 A 
HETATM   38  F   UNL     1      32.131  44.137  57.994  1.00  0.00    -0.206 F 
HETATM   39  C   UNL     1      29.829  44.215  55.191  1.00  0.00     0.032 A 
ENDBRANCH   1  33
TORSDOF 8
ENDMDL
MODEL 3
REMARK VINA RESULT:      -9.7      1.031      1.357
REMARK  8 active torsions:
REMARK  status: ('A' for Active; 'I' for Inactive)
REMARK    1  A    between atoms: C_2  and  N_3 
REMARK       I    between atoms: N_3  and  C_4 
REMARK       I    between atoms: C_4  and  N_5 
REMARK    2  A    between atoms: N_5  and  C_6 
REMARK    3  A    between atoms: N_5  and  C_22 
REMARK    4  A    between atoms: C_6  and  C_7 
REMARK    5  A    between atoms: C_8  and  O_9 
REMARK    6  A    between atoms: C_22  and  C_23 
REMARK    7  A    between atoms: C_23  and  C_24 
REMARK    8  A    between atoms: C_24  and  N_25 
ROOT
HETATM    1  N   UNL     1      28.684  44.461  53.979  1.00  0.00    -0.309 N 
HETATM    2  C   UNL     1      27.368  44.073  53.912  1.00  0.00     0.323 C 
HETATM    3  N   UNL     1      26.926  43.726  52.632  1.00  0.00    -0.330 N 
HETATM    4  O   UNL     1      26.613  43.975  54.876  1.00  0.00    -0.247 OA
HETATM    5  H   UNL     1      29.033  44.953  53.169  1.00  0.00     0.170 HD
ENDROOT
BRANCH   3   6
HETATM    6  C   UNL     1      25.501  43.397  52.490  1.00  0.00     0.170 C 
BRANCH   6   7
HETATM    7  C   UNL     1      24.774  44.303  51.542  1.00  0.00     0.013 A 
HETATM    8  C   UNL     1      23.761  43.849  50.709  1.00  0.00     0.170 A 
HETATM    9  N   UNL     1      23.146  44.596  49.777  1.00  0.00    -0.224 NA
HETATM   10  C   UNL     1      23.515  45.878  49.642  1.00  0.00     0.072 A 
HETATM   11  C   UNL     1      24.513  46.460  50.455  1.00  0.00    -0.004 A 
HETATM   12  C   UNL     1      22.909  46.664  48.673  1.00  0.00     0.072 A 
HETATM   13  C   UNL     1      25.134  45.649  51.417  1.00  0.00     0.027 A 
HETATM   14  C   UNL     1      24.879  47.804  50.274  1.00  0.00     0.053 A 
HETATM   15  C   UNL     1      24.270  48.564  49.280  1.00  0.00     0.103 A 
HETATM   16  C   UNL     1      23.269  47.999  48.492  1.00  0.00     0.104 A 
HETATM   17  O   UNL     1      24.706  49.854  49.135  1.00  0.00    -0.346 OA
HETATM   18  O   UNL     1      22.608  48.689  47.509  1.00  0.00    -0.346 OA
HETATM   19  C   UNL     1      22.822  50.101  47.619  1.00  0.00     0.202 C 
HETATM   20  C   UNL     1      24.288  50.404  47.877  1.00  0.00     0.202 C 
BRANCH   8  21
HETATM   21  O   UNL     1      23.329  42.557  50.761  1.00  0.00    -0.344 OA
HETATM   22  H   UNL     1      22.377  42.573  50.525  1.00  0.00     0.219 HD
ENDBRANCH   8  21
ENDBRANCH   6   7
ENDBRANCH   3   6
BRANCH   3  23
HETATM   23  C   UNL     1      27.812  43.413  51.508  1.00  0.00     0.129 C 
BRANCH  23  24
HETATM   24  C   UNL     1      28.723  42.202  51.771  1.00  0.00     0.048 C 
BRANCH  24  25
HETATM   25  C   UNL     1      28.045  40.871  51.458  1.00  0.00     0.236 C 
BRANCH  25  26
HETATM   26  N   UNL     1      27.501  40.849  50.044  1.00  0.00    -0.067 N 
HETATM   27  H   UNL     1      27.568  41.803  49.662  1.00  0.00     0.280 HD
HETATM   28  C   UNL     1      28.367  39.960  49.140  1.00  0.00     0.261 C 
HETATM   29  C   UNL     1      27.802  39.958  47.717  1.00  0.00     0.195 C 
HETATM   30  O   UNL     1      26.441  39.513  47.712  1.00  0.00    -0.388 OA
HETATM   31  C   UNL     1      25.600  40.375  48.482  1.00  0.00     0.195 C 
HETATM   32  C   UNL     1      26.042  40.404  49.950  1.00  0.00     0.261 C 
ENDBRANCH  25  26
ENDBRANCH  24  25
ENDBRANCH  23  24
ENDBRANCH   3  23
BRANCH   1  33
HETATM   33  C   UNL     1      29.473  44.591  55.143  1.00  0.00     0.036 A 
HETATM   34  C   UNL     1      29.360  45.658  56.041  1.00  0.00     0.032 A 
HETATM   35  C   UNL     1      30.153  45.700  57.192  1.00  0.00     0.044 A 
HETATM   36  C   UNL     1      31.047  44.671  57.451  1.00  0.00     0.116 A 
HETATM   37  C   UNL     1      31.168  43.599  56.577  1.00  0.00     0.044 A 
HETATM   38  F   UNL     1      31.797  44.707  58.559  1.00  0.00    -0.206 F 
HETATM   39  C   UNL     1      30.381  43.558  55.423  1.00  0.00     0.032 A 
ENDBRANCH   1  33
TORSDOF 8
ENDMDL
MODEL 4
REMARK VINA RESULT:      -9.6      2.307      7.480
REMARK  8 active torsions:
REMARK  status: ('A' for Active; 'I' for Inactive)
REMARK    1  A    between atoms: C_2  and  N_3 
REMARK       I    between atoms: N_3  and  C_4 
REMARK       I    between atoms: C_4  and  N_5 
REMARK    2  A    between atoms: N_5  and  C_6 
REMARK    3  A    between atoms: N_5  and  C_22 
REMARK    4  A    between atoms: C_6  and  C_7 
REMARK    5  A    between atoms: C_8  and  O_9 
REMARK    6  A    between atoms: C_22  and  C_23 
REMARK    7  A    between atoms: C_23  and  C_24 
REMARK    8  A    between atoms: C_24  and  N_25 
ROOT
HETATM    1  N   UNL     1      28.326  44.598  53.341  1.00  0.00    -0.309 N 
HETATM    2  C   UNL     1      27.375  43.696  52.931  1.00  0.00     0.323 C 
HETATM    3  N   UNL     1      26.933  43.871  51.616  1.00  0.00    -0.330 N 
HETATM    4  O   UNL     1      26.948  42.765  53.610  1.00  0.00    -0.247 OA
HETATM    5  H   UNL     1      28.242  45.525  52.952  1.00  0.00     0.170 HD
ENDROOT
BRANCH   3   6
HETATM    6  C   UNL     1      25.846  42.994  51.161  1.00  0.00     0.170 C 
BRANCH   6   7
HETATM    7  C   UNL     1      26.319  41.857  50.305  1.00  0.00     0.013 A 
HETATM    8  C   UNL     1      26.771  40.659  50.843  1.00  0.00     0.170 A 
HETATM    9  N   UNL     1      27.292  39.649  50.127  1.00  0.00    -0.224 NA
HETATM   10  C   UNL     1      27.372  39.787  48.795  1.00  0.00     0.072 A 
HETATM   11  C   UNL     1      26.915  40.947  48.133  1.00  0.00    -0.004 A 
HETATM   12  C   UNL     1      27.926  38.766  48.037  1.00  0.00     0.072 A 
HETATM   13  C   UNL     1      26.377  41.982  48.913  1.00  0.00     0.027 A 
HETATM   14  C   UNL     1      27.027  41.057  46.737  1.00  0.00     0.053 A 
HETATM   15  C   UNL     1      27.606  40.027  46.002  1.00  0.00     0.103 A 
HETATM   16  C   UNL     1      28.038  38.872  46.650  1.00  0.00     0.104 A 
HETATM   17  O   UNL     1      27.720  40.220  44.651  1.00  0.00    -0.346 OA
HETATM   18  O   UNL     1      28.597  37.806  45.993  1.00  0.00    -0.346 OA
HETATM   19  C   UNL     1      28.376  37.881  44.580  1.00  0.00     0.202 C 
HETATM   20  C   UNL     1      28.641  39.287  44.069  1.00  0.00     0.202 C 
BRANCH   8  21
HETATM   21  O   UNL     1      26.745  40.434  52.187  1.00  0.00    -0.344 OA
HETATM   22  H   UNL     1      26.364  41.239  52.596  1.00  0.00     0.219 HD
ENDBRANCH   8  21
ENDBRANCH   6   7
ENDBRANCH   3   6
BRANCH   3  23
HETATM   23  C   UNL     1      27.641  44.659  50.604  1.00  0.00     0.129 C 
BRANCH  23  24
HETATM   24  C   UNL     1      26.730  45.645  49.854  1.00  0.00     0.048 C 
BRANCH  24  25
HETATM   25  C   UNL     1      26.098  46.685  50.775  1.00  0.00     0.236 C 
BRANCH  25  26
HETATM   26  N   UNL     1      26.074  48.054  50.125  1.00  0.00    -0.067 N 
HETATM   27  H   UNL     1      26.067  48.762  50.873  1.00  0.00     0.280 HD
HETATM   28  C   UNL     1      27.355  48.294  49.313  1.00  0.00     0.261 C 
HETATM   29  C   UNL     1      27.311  49.684  48.671  1.00  0.00     0.195 C 
HETATM   30  O   UNL     1      26.152  49.824  47.842  1.00  0.00    -0.388 OA
HETATM   31  C   UNL     1      24.944  49.684  48.594  1.00  0.00     0.195 C 
HETATM   32  C   UNL     1      24.855  48.294  49.236  1.00  0.00     0.261 C 
ENDBRANCH  25  26
ENDBRANCH  24  25
ENDBRANCH  23  24
ENDBRANCH   3  23
BRANCH   1  33
HETATM   33  C   UNL     1      29.148  44.502  54.485  1.00  0.00     0.036 A 
HETATM   34  C   UNL     1      30.066  43.467  54.696  1.00  0.00     0.032 A 
HETATM   35  C   UNL     1      30.873  43.458  55.838  1.00  0.00     0.044 A 
HETATM   36  C   UNL     1      30.770  44.489  56.762  1.00  0.00     0.116 A 
HETATM   37  C   UNL     1      29.871  45.529  56.567  1.00  0.00     0.044 A 
HETATM   38  F   UNL     1      31.551  44.485  57.850  1.00  0.00    -0.206 F 
HETATM   39  C   UNL     1      29.061  45.537  55.430  1.00  0.00     0.032 A 
ENDBRANCH   1  33
TORSDOF 8
ENDMDL
MODEL 5
REMARK VINA RESULT:      -9.6      3.627      8.443
REMARK  8 active torsions:
REMARK  status: ('A' for Active; 'I' for Inactive)
REMARK    1  A    between atoms: C_2  and  N_3 
REMARK       I    between atoms: N_3  and  C_4 
REMARK       I    between atoms: C_4  and  N_5 
REMARK    2  A    between atoms: N_5  and  C_6 
REMARK    3  A    between atoms: N_5  and  C_22 
REMARK    4  A    between atoms: C_6  and  C_7 
REMARK    5  A    between atoms: C_8  and  O_9 
REMARK    6  A    between atoms: C_22  and  C_23 
REMARK    7  A    between atoms: C_23  and  C_24 
REMARK    8  A    between atoms: C_24  and  N_25 
ROOT
HETATM    1  N   UNL     1      25.219  46.514  50.446  1.00  0.00    -0.309 N 
HETATM    2  C   UNL     1      26.219  45.608  50.193  1.00  0.00     0.323 C 
HETATM    3  N   UNL     1      26.086  44.389  50.865  1.00  0.00    -0.330 N 
HETATM    4  O   UNL     1      27.151  45.787  49.413  1.00  0.00    -0.247 OA
HETATM    5  H   UNL     1      24.832  46.487  51.379  1.00  0.00     0.170 HD
ENDROOT
BRANCH   3   6
HETATM    6  C   UNL     1      27.180  43.422  50.706  1.00  0.00     0.170 C 
BRANCH   6   7
HETATM    7  C   UNL     1      28.092  43.356  51.894  1.00  0.00     0.013 A 
HETATM    8  C   UNL     1      28.895  42.253  52.155  1.00  0.00     0.170 A 
HETATM    9  N   UNL     1      29.654  42.104  53.253  1.00  0.00    -0.224 NA
HETATM   10  C   UNL     1      29.661  43.090  54.162  1.00  0.00     0.072 A 
HETATM   11  C   UNL     1      28.910  44.273  53.989  1.00  0.00    -0.004 A 
HETATM   12  C   UNL     1      30.422  42.950  55.313  1.00  0.00     0.072 A 
HETATM   13  C   UNL     1      28.127  44.393  52.831  1.00  0.00     0.027 A 
HETATM   14  C   UNL     1      28.935  45.278  54.971  1.00  0.00     0.053 A 
HETATM   15  C   UNL     1      29.690  45.103  56.127  1.00  0.00     0.103 A 
HETATM   16  C   UNL     1      30.450  43.947  56.289  1.00  0.00     0.104 A 
HETATM   17  O   UNL     1      29.635  46.105  57.058  1.00  0.00    -0.346 OA
HETATM   18  O   UNL     1      31.236  43.712  57.388  1.00  0.00    -0.346 OA
HETATM   19  C   UNL     1      31.440  44.904  58.156  1.00  0.00     0.202 C 
HETATM   20  C   UNL     1      30.135  45.662  58.328  1.00  0.00     0.202 C 
BRANCH   8  21
HETATM   21  O   UNL     1      28.941  41.194  51.298  1.00  0.00    -0.344 OA
HETATM   22  H   UNL     1      28.772  40.393  51.837  1.00  0.00     0.219 HD
ENDBRANCH   8  21
ENDBRANCH   6   7
ENDBRANCH   3   6
BRANCH   3  23
HETATM   23  C   UNL     1      24.844  43.915  51.480  1.00  0.00     0.129 C 
BRANCH  23  24
HETATM   24  C   UNL     1      24.230  42.705  50.756  1.00  0.00     0.048 C 
BRANCH  24  25
HETATM   25  C   UNL     1      23.440  43.098  49.510  1.00  0.00     0.236 C 
BRANCH  25  26
HETATM   26  N   UNL     1      23.770  42.193  48.341  1.00  0.00    -0.067 N 
HETATM   27  H   UNL     1      23.885  42.783  47.505  1.00  0.00     0.280 HD
HETATM   28  C   UNL     1      25.115  41.487  48.560  1.00  0.00     0.261 C 
HETATM   29  C   UNL     1      25.430  40.584  47.364  1.00  0.00     0.195 C 
HETATM   30  O   UNL     1      24.384  39.629  47.160  1.00  0.00    -0.388 OA
HETATM   31  C   UNL     1      23.136  40.265  46.872  1.00  0.00     0.195 C 
HETATM   32  C   UNL     1      22.691  41.153  48.040  1.00  0.00     0.261 C 
ENDBRANCH  25  26
ENDBRANCH  24  25
ENDBRANCH  23  24
ENDBRANCH   3  23
BRANCH   1  33
HETATM   33  C   UNL     1      24.933  47.688  49.716  1.00  0.00     0.036 A 
HETATM   34  C   UNL     1      25.908  48.606  49.311  1.00  0.00     0.032 A 
HETATM   35  C   UNL     1      25.553  49.731  48.560  1.00  0.00     0.044 A 
HETATM   36  C   UNL     1      24.226  49.930  48.203  1.00  0.00     0.116 A 
HETATM   37  C   UNL     1      23.245  49.026  48.587  1.00  0.00     0.044 A 
HETATM   38  F   UNL     1      23.889  51.001  47.473  1.00  0.00    -0.206 F 
HETATM   39  C   UNL     1      23.597  47.905  49.343  1.00  0.00     0.032 A 
ENDBRANCH   1  33
TORSDOF 8
ENDMDL
MODEL 6
REMARK VINA RESULT:      -9.4      1.781      2.784
REMARK  8 active torsions:
REMARK  status: ('A' for Active; 'I' for Inactive)
REMARK    1  A    between atoms: C_2  and  N_3 
REMARK       I    between atoms: N_3  and  C_4 
REMARK       I    between atoms: C_4  and  N_5 
REMARK    2  A    between atoms: N_5  and  C_6 
REMARK    3  A    between atoms: N_5  and  C_22 
REMARK    4  A    between atoms: C_6  and  C_7 
REMARK    5  A    between atoms: C_8  and  O_9 
REMARK    6  A    between atoms: C_22  and  C_23 
REMARK    7  A    between atoms: C_23  and  C_24 
REMARK    8  A    between atoms: C_24  and  N_25 
ROOT
HETATM    1  N   UNL     1      28.613  44.438  53.857  1.00  0.00    -0.309 N 
HETATM    2  C   UNL     1      27.242  44.363  53.888  1.00  0.00     0.323 C 
HETATM    3  N   UNL     1      26.647  44.049  52.662  1.00  0.00    -0.330 N 
HETATM    4  O   UNL     1      26.551  44.505  54.894  1.00  0.00    -0.247 OA
HETATM    5  H   UNL     1      29.010  44.783  52.995  1.00  0.00     0.170 HD
ENDROOT
BRANCH   3   6
HETATM    6  C   UNL     1      25.179  44.052  52.618  1.00  0.00     0.170 C 
BRANCH   6   7
HETATM    7  C   UNL     1      24.622  44.715  51.394  1.00  0.00     0.013 A 
HETATM    8  C   UNL     1      24.768  46.075  51.153  1.00  0.00     0.170 A 
HETATM    9  N   UNL     1      24.209  46.732  50.124  1.00  0.00    -0.224 NA
HETATM   10  C   UNL     1      23.468  46.035  49.249  1.00  0.00     0.072 A 
HETATM   11  C   UNL     1      23.275  44.642  49.374  1.00  0.00    -0.004 A 
HETATM   12  C   UNL     1      22.863  46.696  48.190  1.00  0.00     0.072 A 
HETATM   13  C   UNL     1      23.874  43.989  50.462  1.00  0.00     0.027 A 
HETATM   14  C   UNL     1      22.482  43.950  48.443  1.00  0.00     0.053 A 
HETATM   15  C   UNL     1      21.870  44.641  47.402  1.00  0.00     0.103 A 
HETATM   16  C   UNL     1      22.077  46.012  47.263  1.00  0.00     0.104 A 
HETATM   17  O   UNL     1      21.078  43.909  46.557  1.00  0.00    -0.346 OA
HETATM   18  O   UNL     1      21.526  46.757  46.252  1.00  0.00    -0.346 OA
HETATM   19  C   UNL     1      21.015  45.926  45.203  1.00  0.00     0.202 C 
HETATM   20  C   UNL     1      20.228  44.760  45.775  1.00  0.00     0.202 C 
BRANCH   8  21
HETATM   21  O   UNL     1      25.489  46.868  51.995  1.00  0.00    -0.344 OA
HETATM   22  H   UNL     1      24.848  47.253  52.629  1.00  0.00     0.219 HD
ENDBRANCH   8  21
ENDBRANCH   6   7
ENDBRANCH   3   6
BRANCH   3  23
HETATM   23  C   UNL     1      27.360  43.468  51.521  1.00  0.00     0.129 C 
BRANCH  23  24
HETATM   24  C   UNL     1      27.026  41.986  51.286  1.00  0.00     0.048 C 
BRANCH  24  25
HETATM   25  C   UNL     1      28.226  41.067  51.497  1.00  0.00     0.236 C 
BRANCH  25  26
HETATM   26  N   UNL     1      28.710  40.482  50.186  1.00  0.00    -0.067 N 
HETATM   27  H   UNL     1      29.640  40.877  49.985  1.00  0.00     0.280 HD
HETATM   28  C   UNL     1      28.900  38.964  50.302  1.00  0.00     0.261 C 
HETATM   29  C   UNL     1      29.394  38.397  48.968  1.00  0.00     0.195 C 
HETATM   30  O   UNL     1      28.481  38.714  47.912  1.00  0.00    -0.388 OA
HETATM   31  C   UNL     1      28.351  40.126  47.732  1.00  0.00     0.195 C 
HETATM   32  C   UNL     1      27.800  40.793  48.998  1.00  0.00     0.261 C 
ENDBRANCH  25  26
ENDBRANCH  24  25
ENDBRANCH  23  24
ENDBRANCH   3  23
BRANCH   1  33
HETATM   33  C   UNL     1      29.487  44.453  54.966  1.00  0.00     0.036 A 
HETATM   34  C   UNL     1      29.556  45.507  55.884  1.00  0.00     0.032 A 
HETATM   35  C   UNL     1      30.423  45.435  56.979  1.00  0.00     0.044 A 
HETATM   36  C   UNL     1      31.210  44.307  57.161  1.00  0.00     0.116 A 
HETATM   37  C   UNL     1      31.151  43.248  56.266  1.00  0.00     0.044 A 
HETATM   38  F   UNL     1      32.032  44.236  58.216  1.00  0.00    -0.206 F 
HETATM   39  C   UNL     1      30.289  43.319  55.169  1.00  0.00     0.032 A 
ENDBRANCH   1  33
TORSDOF 8
ENDMDL
MODEL 7
REMARK VINA RESULT:      -9.2      3.913      9.275
REMARK  8 active torsions:
REMARK  status: ('A' for Active; 'I' for Inactive)
REMARK    1  A    between atoms: C_2  and  N_3 
REMARK       I    between atoms: N_3  and  C_4 
REMARK       I    between atoms: C_4  and  N_5 
REMARK    2  A    between atoms: N_5  and  C_6 
REMARK    3  A    between atoms: N_5  and  C_22 
REMARK    4  A    between atoms: C_6  and  C_7 
REMARK    5  A    between atoms: C_8  and  O_9 
REMARK    6  A    between atoms: C_22  and  C_23 
REMARK    7  A    between atoms: C_23  and  C_24 
REMARK    8  A    between atoms: C_24  and  N_25 
ROOT
HETATM    1  N   UNL     1      26.965  41.464  47.108  1.00  0.00    -0.309 N 
HETATM    2  C   UNL     1      26.815  40.858  48.331  1.00  0.00     0.323 C 
HETATM    3  N   UNL     1      26.293  41.684  49.332  1.00  0.00    -0.330 N 
HETATM    4  O   UNL     1      27.060  39.678  48.568  1.00  0.00    -0.247 OA
HETATM    5  H   UNL     1      27.204  42.444  47.135  1.00  0.00     0.170 HD
ENDROOT
BRANCH   3   6
HETATM    6  C   UNL     1      26.205  41.113  50.682  1.00  0.00     0.170 C 
BRANCH   6   7
HETATM    7  C   UNL     1      27.222  41.673  51.631  1.00  0.00     0.013 A 
HETATM    8  C   UNL     1      28.429  41.037  51.889  1.00  0.00     0.170 A 
HETATM    9  N   UNL     1      29.329  41.445  52.798  1.00  0.00    -0.224 NA
HETATM   10  C   UNL     1      29.064  42.555  53.503  1.00  0.00     0.072 A 
HETATM   11  C   UNL     1      27.883  43.303  53.306  1.00  0.00    -0.004 A 
HETATM   12  C   UNL     1      29.968  42.985  54.463  1.00  0.00     0.072 A 
HETATM   13  C   UNL     1      26.965  42.846  52.348  1.00  0.00     0.027 A 
HETATM   14  C   UNL     1      27.637  44.455  54.073  1.00  0.00     0.053 A 
HETATM   15  C   UNL     1      28.552  44.852  55.044  1.00  0.00     0.103 A 
HETATM   16  C   UNL     1      29.728  44.128  55.225  1.00  0.00     0.104 A 
HETATM   17  O   UNL     1      28.227  45.959  55.782  1.00  0.00    -0.346 OA
HETATM   18  O   UNL     1      30.686  44.469  56.145  1.00  0.00    -0.346 OA
HETATM   19  C   UNL     1      30.497  45.801  56.635  1.00  0.00     0.202 C 
HETATM   20  C   UNL     1      29.035  46.051  56.964  1.00  0.00     0.202 C 
BRANCH   8  21
HETATM   21  O   UNL     1      28.778  39.893  51.234  1.00  0.00    -0.344 OA
HETATM   22  H   UNL     1      29.668  40.052  50.854  1.00  0.00     0.219 HD
ENDBRANCH   8  21
ENDBRANCH   6   7
ENDBRANCH   3   6
BRANCH   3  23
HETATM   23  C   UNL     1      25.596  42.948  49.080  1.00  0.00     0.129 C 
BRANCH  23  24
HETATM   24  C   UNL     1      24.067  42.833  49.195  1.00  0.00     0.048 C 
BRANCH  24  25
HETATM   25  C   UNL     1      23.456  43.910  50.087  1.00  0.00     0.236 C 
BRANCH  25  26
HETATM   26  N   UNL     1      24.386  45.098  50.230  1.00  0.00    -0.067 N 
HETATM   27  H   UNL     1      25.261  44.880  49.734  1.00  0.00     0.280 HD
HETATM   28  C   UNL     1      23.796  46.337  49.542  1.00  0.00     0.261 C 
HETATM   29  C   UNL     1      24.754  47.523  49.694  1.00  0.00     0.195 C 
HETATM   30  O   UNL     1      25.018  47.788  51.076  1.00  0.00    -0.388 OA
HETATM   31  C   UNL     1      25.642  46.674  51.719  1.00  0.00     0.195 C 
HETATM   32  C   UNL     1      24.736  45.438  51.678  1.00  0.00     0.261 C 
ENDBRANCH  25  26
ENDBRANCH  24  25
ENDBRANCH  23  24
ENDBRANCH   3  23
BRANCH   1  33
HETATM   33  C   UNL     1      27.191  40.827  45.868  1.00  0.00     0.036 A 
HETATM   34  C   UNL     1      28.438  40.782  45.236  1.00  0.00     0.032 A 
HETATM   35  C   UNL     1      28.593  40.102  44.023  1.00  0.00     0.044 A 
HETATM   36  C   UNL     1      27.504  39.458  43.451  1.00  0.00     0.116 A 
HETATM   37  C   UNL     1      26.260  39.485  44.066  1.00  0.00     0.044 A 
HETATM   38  F   UNL     1      27.657  38.799  42.296  1.00  0.00    -0.206 F 
HETATM   39  C   UNL     1      26.102  40.168  45.275  1.00  0.00     0.032 A 
ENDBRANCH   1  33
TORSDOF 8
ENDMDL
MODEL 8
REMARK VINA RESULT:      -8.6      4.122     10.226
REMARK  8 active torsions:
REMARK  status: ('A' for Active; 'I' for Inactive)
REMARK    1  A    between atoms: C_2  and  N_3 
REMARK       I    between atoms: N_3  and  C_4 
REMARK       I    between atoms: C_4  and  N_5 
REMARK    2  A    between atoms: N_5  and  C_6 
REMARK    3  A    between atoms: N_5  and  C_22 
REMARK    4  A    between atoms: C_6  and  C_7 
REMARK    5  A    between atoms: C_8  and  O_9 
REMARK    6  A    between atoms: C_22  and  C_23 
REMARK    7  A    between atoms: C_23  and  C_24 
REMARK    8  A    between atoms: C_24  and  N_25 
ROOT
HETATM    1  N   UNL     1      24.148  44.042  47.855  1.00  0.00    -0.309 N 
HETATM    2  C   UNL     1      23.898  43.879  49.196  1.00  0.00     0.323 C 
HETATM    3  N   UNL     1      24.542  44.802  50.025  1.00  0.00    -0.330 N 
HETATM    4  O   UNL     1      23.142  43.038  49.674  1.00  0.00    -0.247 OA
HETATM    5  H   UNL     1      25.071  44.378  47.622  1.00  0.00     0.170 HD
ENDROOT
BRANCH   3   6
HETATM    6  C   UNL     1      24.387  44.612  51.473  1.00  0.00     0.170 C 
BRANCH   6   7
HETATM    7  C   UNL     1      25.651  44.182  52.155  1.00  0.00     0.013 A 
HETATM    8  C   UNL     1      26.172  42.903  52.018  1.00  0.00     0.170 A 
HETATM    9  N   UNL     1      27.245  42.440  52.681  1.00  0.00    -0.224 NA
HETATM   10  C   UNL     1      27.879  43.268  53.525  1.00  0.00     0.072 A 
HETATM   11  C   UNL     1      27.459  44.601  53.722  1.00  0.00    -0.004 A 
HETATM   12  C   UNL     1      28.977  42.807  54.236  1.00  0.00     0.072 A 
HETATM   13  C   UNL     1      26.334  45.050  53.014  1.00  0.00     0.027 A 
HETATM   14  C   UNL     1      28.143  45.434  54.625  1.00  0.00     0.053 A 
HETATM   15  C   UNL     1      29.228  44.939  55.341  1.00  0.00     0.103 A 
HETATM   16  C   UNL     1      29.659  43.631  55.132  1.00  0.00     0.104 A 
HETATM   17  O   UNL     1      29.821  45.793  56.233  1.00  0.00    -0.346 OA
HETATM   18  O   UNL     1      30.733  43.079  55.783  1.00  0.00    -0.346 OA
HETATM   19  C   UNL     1      31.534  44.080  56.420  1.00  0.00     0.202 C 
HETATM   20  C   UNL     1      30.660  45.083  57.154  1.00  0.00     0.202 C 
BRANCH   8  21
HETATM   21  O   UNL     1      25.588  41.986  51.196  1.00  0.00    -0.344 OA
HETATM   22  H   UNL     1      24.751  41.718  51.631  1.00  0.00     0.219 HD
ENDBRANCH   8  21
ENDBRANCH   6   7
ENDBRANCH   3   6
BRANCH   3  23
HETATM   23  C   UNL     1      25.120  46.067  49.563  1.00  0.00     0.129 C 
BRANCH  23  24
HETATM   24  C   UNL     1      24.563  47.296  50.302  1.00  0.00     0.048 C 
BRANCH  24  25
HETATM   25  C   UNL     1      24.125  48.409  49.354  1.00  0.00     0.236 C 
BRANCH  25  26
HETATM   26  N   UNL     1      22.706  48.852  49.645  1.00  0.00    -0.067 N 
HETATM   27  H   UNL     1      22.534  48.731  50.652  1.00  0.00     0.280 HD
HETATM   28  C   UNL     1      22.532  50.349  49.353  1.00  0.00     0.261 C 
HETATM   29  C   UNL     1      21.093  50.775  49.658  1.00  0.00     0.195 C 
HETATM   30  O   UNL     1      20.161  49.999  48.898  1.00  0.00    -0.388 OA
HETATM   31  C   UNL     1      20.250  48.608  49.214  1.00  0.00     0.195 C 
HETATM   32  C   UNL     1      21.643  48.058  48.886  1.00  0.00     0.261 C 
ENDBRANCH  25  26
ENDBRANCH  24  25
ENDBRANCH  23  24
ENDBRANCH   3  23
BRANCH   1  33
HETATM   33  C   UNL     1      23.435  43.462  46.782  1.00  0.00     0.036 A 
HETATM   34  C   UNL     1      23.672  42.168  46.304  1.00  0.00     0.032 A 
HETATM   35  C   UNL     1      22.902  41.648  45.259  1.00  0.00     0.044 A 
HETATM   36  C   UNL     1      21.888  42.416  44.703  1.00  0.00     0.116 A 
HETATM   37  C   UNL     1      21.631  43.698  45.169  1.00  0.00     0.044 A 
HETATM   38  F   UNL     1      21.144  41.912  43.710  1.00  0.00    -0.206 F 
HETATM   39  C   UNL     1      22.403  44.221  46.209  1.00  0.00     0.032 A 
ENDBRANCH   1  33
TORSDOF 8
ENDMDL
MODEL 9
REMARK VINA RESULT:      -8.5     12.286     15.596
REMARK  8 active torsions:
REMARK  status: ('A' for Active; 'I' for Inactive)
REMARK    1  A    between atoms: C_2  and  N_3 
REMARK       I    between atoms: N_3  and  C_4 
REMARK       I    between atoms: C_4  and  N_5 
REMARK    2  A    between atoms: N_5  and  C_6 
REMARK    3  A    between atoms: N_5  and  C_22 
REMARK    4  A    between atoms: C_6  and  C_7 
REMARK    5  A    between atoms: C_8  and  O_9 
REMARK    6  A    between atoms: C_22  and  C_23 
REMARK    7  A    between atoms: C_23  and  C_24 
REMARK    8  A    between atoms: C_24  and  N_25 
ROOT
HETATM    1  N   UNL     1      26.332  49.228  39.516  1.00  0.00    -0.309 N 
HETATM    2  C   UNL     1      27.083  48.601  40.480  1.00  0.00     0.323 C 
HETATM    3  N   UNL     1      27.930  49.449  41.202  1.00  0.00    -0.330 N 
HETATM    4  O   UNL     1      27.020  47.406  40.758  1.00  0.00    -0.247 OA
HETATM    5  H   UNL     1      26.775  50.013  39.061  1.00  0.00     0.170 HD
ENDROOT
BRANCH   3   6
HETATM    6  C   UNL     1      28.827  48.814  42.177  1.00  0.00     0.170 C 
BRANCH   6   7
HETATM    7  C   UNL     1      30.277  49.096  41.922  1.00  0.00     0.013 A 
HETATM    8  C   UNL     1      31.036  48.344  41.035  1.00  0.00     0.170 A 
HETATM    9  N   UNL     1      32.357  48.493  40.843  1.00  0.00    -0.224 NA
HETATM   10  C   UNL     1      32.998  49.445  41.537  1.00  0.00     0.072 A 
HETATM   11  C   UNL     1      32.326  50.292  42.445  1.00  0.00    -0.004 A 
HETATM   12  C   UNL     1      34.366  49.605  41.371  1.00  0.00     0.072 A 
HETATM   13  C   UNL     1      30.946  50.106  42.620  1.00  0.00     0.027 A 
HETATM   14  C   UNL     1      33.036  51.269  43.162  1.00  0.00     0.053 A 
HETATM   15  C   UNL     1      34.411  51.394  42.991  1.00  0.00     0.103 A 
HETATM   16  C   UNL     1      35.074  50.575  42.080  1.00  0.00     0.104 A 
HETATM   17  O   UNL     1      35.045  52.340  43.753  1.00  0.00    -0.346 OA
HETATM   18  O   UNL     1      36.422  50.653  41.841  1.00  0.00    -0.346 OA
HETATM   19  C   UNL     1      36.983  51.862  42.367  1.00  0.00     0.202 C 
HETATM   20  C   UNL     1      36.463  52.129  43.770  1.00  0.00     0.202 C 
BRANCH   8  21
HETATM   21  O   UNL     1      30.476  47.344  40.297  1.00  0.00    -0.344 OA
HETATM   22  H   UNL     1      30.573  47.605  39.357  1.00  0.00     0.219 HD
ENDBRANCH   8  21
ENDBRANCH   6   7
ENDBRANCH   3   6
BRANCH   3  23
HETATM   23  C   UNL     1      27.798  50.907  41.246  1.00  0.00     0.129 C 
BRANCH  23  24
HETATM   24  C   UNL     1      28.307  51.602  39.972  1.00  0.00     0.048 C 
BRANCH  24  25
HETATM   25  C   UNL     1      29.373  52.656  40.256  1.00  0.00     0.236 C 
BRANCH  25  26
HETATM   26  N   UNL     1      30.757  52.146  39.910  1.00  0.00    -0.067 N 
HETATM   27  H   UNL     1      30.981  51.373  40.553  1.00  0.00     0.280 HD
HETATM   28  C   UNL     1      30.782  51.553  38.495  1.00  0.00     0.261 C 
HETATM   29  C   UNL     1      32.188  51.039  38.170  1.00  0.00     0.195 C 
HETATM   30  O   UNL     1      33.154  52.088  38.297  1.00  0.00    -0.388 OA
HETATM   31  C   UNL     1      33.205  52.600  39.631  1.00  0.00     0.195 C 
HETATM   32  C   UNL     1      31.855  53.201  40.041  1.00  0.00     0.261 C 
ENDBRANCH  25  26
ENDBRANCH  24  25
ENDBRANCH  23  24
ENDBRANCH   3  23
BRANCH   1  33
HETATM   33  C   UNL     1      25.209  48.701  38.841  1.00  0.00     0.036 A 
HETATM   34  C   UNL     1      25.297  47.774  37.797  1.00  0.00     0.032 A 
HETATM   35  C   UNL     1      24.138  47.270  37.198  1.00  0.00     0.044 A 
HETATM   36  C   UNL     1      22.893  47.684  37.651  1.00  0.00     0.116 A 
HETATM   37  C   UNL     1      22.784  48.597  38.692  1.00  0.00     0.044 A 
HETATM   38  F   UNL     1      21.784  47.193  37.084  1.00  0.00    -0.206 F 
HETATM   39  C   UNL     1      23.941  49.105  39.287  1.00  0.00     0.032 A 
ENDBRANCH   1  33
TORSDOF 8
ENDMDL
MODEL 10
REMARK VINA RESULT:      -8.4      3.064      5.987
REMARK  8 active torsions:
REMARK  status: ('A' for Active; 'I' for Inactive)
REMARK    1  A    between atoms: C_2  and  N_3 
REMARK       I    between atoms: N_3  and  C_4 
REMARK       I    between atoms: C_4  and  N_5 
REMARK    2  A    between atoms: N_5  and  C_6 
REMARK    3  A    between atoms: N_5  and  C_22 
REMARK    4  A    between atoms: C_6  and  C_7 
REMARK    5  A    between atoms: C_8  and  O_9 
REMARK    6  A    between atoms: C_22  and  C_23 
REMARK    7  A    between atoms: C_23  and  C_24 
REMARK    8  A    between atoms: C_24  and  N_25 
ROOT
HETATM    1  N   UNL     1      27.730  44.145  52.289  1.00  0.00    -0.309 N 
HETATM    2  C   UNL     1      26.908  43.161  51.795  1.00  0.00     0.323 C 
HETATM    3  N   UNL     1      26.342  43.445  50.548  1.00  0.00    -0.330 N 
HETATM    4  O   UNL     1      26.693  42.083  52.342  1.00  0.00    -0.247 OA
HETATM    5  H   UNL     1      27.467  45.091  52.053  1.00  0.00     0.170 HD
ENDROOT
BRANCH   3   6
HETATM    6  C   UNL     1      25.379  42.470  50.021  1.00  0.00     0.170 C 
BRANCH   6   7
HETATM    7  C   UNL     1      24.238  43.102  49.282  1.00  0.00     0.013 A 
HETATM    8  C   UNL     1      23.262  43.854  49.922  1.00  0.00     0.170 A 
HETATM    9  N   UNL     1      22.171  44.360  49.323  1.00  0.00    -0.224 NA
HETATM   10  C   UNL     1      22.009  44.145  48.009  1.00  0.00     0.072 A 
HETATM   11  C   UNL     1      22.951  43.421  47.246  1.00  0.00    -0.004 A 
HETATM   12  C   UNL     1      20.880  44.639  47.371  1.00  0.00     0.072 A 
HETATM   13  C   UNL     1      24.078  42.907  47.906  1.00  0.00     0.027 A 
HETATM   14  C   UNL     1      22.739  43.207  45.874  1.00  0.00     0.053 A 
HETATM   15  C   UNL     1      21.587  43.696  45.264  1.00  0.00     0.103 A 
HETATM   16  C   UNL     1      20.667  44.430  46.009  1.00  0.00     0.104 A 
HETATM   17  O   UNL     1      21.427  43.415  43.933  1.00  0.00    -0.346 OA
HETATM   18  O   UNL     1      19.521  44.962  45.475  1.00  0.00    -0.346 OA
HETATM   19  C   UNL     1      19.558  44.965  44.043  1.00  0.00     0.202 C 
HETATM   20  C   UNL     1      20.072  43.636  43.515  1.00  0.00     0.202 C 
BRANCH   8  21
HETATM   21  O   UNL     1      23.332  44.112  51.259  1.00  0.00    -0.344 OA
HETATM   22  H   UNL     1      22.713  43.489  51.694  1.00  0.00     0.219 HD
ENDBRANCH   8  21
ENDBRANCH   6   7
ENDBRANCH   3   6
BRANCH   3  23
HETATM   23  C   UNL     1      26.831  44.482  49.635  1.00  0.00     0.129 C 
BRANCH  23  24
HETATM   24  C   UNL     1      25.904  45.707  49.554  1.00  0.00     0.048 C 
BRANCH  24  25
HETATM   25  C   UNL     1      26.242  46.775  50.590  1.00  0.00     0.236 C 
BRANCH  25  26
HETATM   26  N   UNL     1      26.142  48.166  49.999  1.00  0.00    -0.067 N 
HETATM   27  H   UNL     1      26.134  48.842  50.775  1.00  0.00     0.280 HD
HETATM   28  C   UNL     1      27.383  48.490  49.156  1.00  0.00     0.261 C 
HETATM   29  C   UNL     1      27.264  49.902  48.574  1.00  0.00     0.195 C 
HETATM   30  O   UNL     1      26.072  50.029  47.791  1.00  0.00    -0.388 OA
HETATM   31  C   UNL     1      24.898  49.811  48.577  1.00  0.00     0.195 C 
HETATM   32  C   UNL     1      24.884  48.394  49.162  1.00  0.00     0.261 C 
ENDBRANCH  25  26
ENDBRANCH  24  25
ENDBRANCH  23  24
ENDBRANCH   3  23
BRANCH   1  33
HETATM   33  C   UNL     1      28.645  44.028  53.358  1.00  0.00     0.036 A 
HETATM   34  C   UNL     1      29.703  43.113  53.377  1.00  0.00     0.032 A 
HETATM   35  C   UNL     1      30.591  43.079  54.457  1.00  0.00     0.044 A 
HETATM   36  C   UNL     1      30.427  43.968  55.510  1.00  0.00     0.116 A 
HETATM   37  C   UNL     1      29.389  44.890  55.507  1.00  0.00     0.044 A 
HETATM   38  F   UNL     1      31.285  43.942  56.538  1.00  0.00    -0.206 F 
HETATM   39  C   UNL     1      28.498  44.922  54.431  1.00  0.00     0.032 A 
ENDBRANCH   1  33
TORSDOF 8
ENDMDL
