MODEL 1
REMARK VINA RESULT:      -9.0      0.000      0.000
REMARK  5 active torsions:
REMARK  status: ('A' for Active; 'I' for Inactive)
REMARK    1  A    between atoms: C_3  and  O_4 
REMARK    2  A    between atoms: O_4  and  C_5 
REMARK    3  A    between atoms: C_8  and  N_9 
REMARK       I    between atoms: N_9  and  C_10 
REMARK    4  A    between atoms: C_10  and  C_11 
REMARK    5  A    between atoms: C_11  and  C_12 
ROOT
HETATM    1  C   UNL     1      28.843  45.809  55.195  1.00  0.00     0.004 A 
HETATM    2  C   UNL     1      28.313  44.983  54.203  1.00  0.00     0.037 A 
HETATM    3  C   UNL     1      28.825  43.697  54.015  1.00  0.00     0.077 A 
HETATM    4  C   UNL     1      29.848  43.221  54.838  1.00  0.00     0.059 A 
HETATM    5  C   UNL     1      30.376  44.046  55.838  1.00  0.00     0.047 A 
HETATM    6  C   UNL     1      31.416  43.559  56.695  1.00  0.00     0.099 C 
HETATM    7  N   UNL     1      32.258  43.169  57.393  1.00  0.00    -0.191 NA
HETATM    8  C   UNL     1      29.874  45.342  56.012  1.00  0.00     0.023 A 
ENDROOT
BRANCH   3   9
HETATM    9  O   UNL     1      28.206  42.921  53.060  1.00  0.00    -0.311 OA
BRANCH   9  10
HETATM   10  C   UNL     1      27.290  43.558  52.260  1.00  0.00     0.076 A 
HETATM   11  C   UNL     1      25.988  43.716  52.726  1.00  0.00     0.039 A 
HETATM   12  C   UNL     1      25.049  44.405  51.952  1.00  0.00     0.032 A 
HETATM   13  C   UNL     1      25.415  44.966  50.726  1.00  0.00     0.034 A 
HETATM   14  C   UNL     1      26.739  44.826  50.284  1.00  0.00     0.032 A 
HETATM   15  C   UNL     1      27.676  44.123  51.047  1.00  0.00     0.039 A 
BRANCH  13  16
HETATM   16  N   UNL     1      24.533  45.697  49.900  1.00  0.00    -0.327 N 
HETATM   17  C   UNL     1      24.257  47.057  49.957  1.00  0.00     0.227 C 
HETATM   18  O   UNL     1      24.683  47.836  50.805  1.00  0.00    -0.273 OA
HETATM   19  H   UNL     1      24.024  45.156  49.211  1.00  0.00     0.169 HD
BRANCH  17  20
HETATM   20  C   UNL     1      23.282  47.488  48.855  1.00  0.00     0.159 C 
BRANCH  20  21
HETATM   21  C   UNL     1      22.913  48.942  48.881  1.00  0.00     0.017 A 
HETATM   22  N   UNL     1      22.160  49.511  49.885  1.00  0.00    -0.369 N 
HETATM   23  H   UNL     1      21.825  49.009  50.703  1.00  0.00     0.165 HD
HETATM   24  C   UNL     1      21.969  50.842  49.625  1.00  0.00     0.088 A 
HETATM   25  C   UNL     1      22.600  51.138  48.440  1.00  0.00     0.019 A 
HETATM   26  C   UNL     1      23.195  49.943  47.969  1.00  0.00     0.027 A 
ENDBRANCH  20  21
ENDBRANCH  17  20
ENDBRANCH  13  16
ENDBRANCH   9  10
ENDBRANCH   3   9
TORSDOF 5
ENDMDL
MODEL 2
REMARK VINA RESULT:      -8.7      1.567      2.080
REMARK  5 active torsions:
REMARK  status: ('A' for Active; 'I' for Inactive)
REMARK    1  A    between atoms: C_3  and  O_4 
REMARK    2  A    between atoms: O_4  and  C_5 
REMARK    3  A    between atoms: C_8  and  N_9 
REMARK       I    between atoms: N_9  and  C_10 
REMARK    4  A    between atoms: C_10  and  C_11 
REMARK    5  A    between atoms: C_11  and  C_12 
ROOT
HETATM    1  C   UNL     1      30.332  43.005  54.125  1.00  0.00     0.004 A 
HETATM    2  C   UNL     1      29.002  42.991  53.704  1.00  0.00     0.037 A 
HETATM    3  C   UNL     1      28.054  43.790  54.347  1.00  0.00     0.077 A 
HETATM    4  C   UNL     1      28.440  44.629  55.396  1.00  0.00     0.059 A 
HETATM    5  C   UNL     1      29.775  44.649  55.815  1.00  0.00     0.047 A 
HETATM    6  C   UNL     1      30.179  45.517  56.881  1.00  0.00     0.099 C 
HETATM    7  N   UNL     1      30.511  46.221  57.743  1.00  0.00    -0.191 NA
HETATM    8  C   UNL     1      30.718  43.832  55.180  1.00  0.00     0.023 A 
ENDROOT
BRANCH   3   9
HETATM    9  O   UNL     1      26.778  43.769  53.831  1.00  0.00    -0.311 OA
BRANCH   9  10
HETATM   10  C   UNL     1      26.463  44.771  52.947  1.00  0.00     0.076 A 
HETATM   11  C   UNL     1      26.523  44.506  51.582  1.00  0.00     0.039 A 
HETATM   12  C   UNL     1      26.159  45.494  50.663  1.00  0.00     0.032 A 
HETATM   13  C   UNL     1      25.705  46.740  51.103  1.00  0.00     0.034 A 
HETATM   14  C   UNL     1      25.619  46.982  52.483  1.00  0.00     0.032 A 
HETATM   15  C   UNL     1      25.999  46.002  53.405  1.00  0.00     0.039 A 
BRANCH  13  16
HETATM   16  N   UNL     1      25.295  47.779  50.240  1.00  0.00    -0.327 N 
HETATM   17  C   UNL     1      24.174  47.802  49.420  1.00  0.00     0.227 C 
HETATM   18  O   UNL     1      23.393  46.869  49.254  1.00  0.00    -0.273 OA
HETATM   19  H   UNL     1      25.910  48.583  50.194  1.00  0.00     0.169 HD
BRANCH  17  20
HETATM   20  C   UNL     1      24.043  49.132  48.668  1.00  0.00     0.159 C 
BRANCH  20  21
HETATM   21  C   UNL     1      22.744  49.849  48.889  1.00  0.00     0.017 A 
HETATM   22  N   UNL     1      21.734  49.352  49.684  1.00  0.00    -0.369 N 
HETATM   23  H   UNL     1      21.796  48.486  50.213  1.00  0.00     0.165 HD
HETATM   24  C   UNL     1      20.669  50.213  49.675  1.00  0.00     0.088 A 
HETATM   25  C   UNL     1      20.989  51.276  48.864  1.00  0.00     0.019 A 
HETATM   26  C   UNL     1      22.294  51.049  48.367  1.00  0.00     0.027 A 
ENDBRANCH  20  21
ENDBRANCH  17  20
ENDBRANCH  13  16
ENDBRANCH   9  10
ENDBRANCH   3   9
TORSDOF 5
ENDMDL
MODEL 3
REMARK VINA RESULT:      -8.7      0.917      1.377
REMARK  5 active torsions:
REMARK  status: ('A' for Active; 'I' for Inactive)
REMARK    1  A    between atoms: C_3  and  O_4 
REMARK    2  A    between atoms: O_4  and  C_5 
REMARK    3  A    between atoms: C_8  and  N_9 
REMARK       I    between atoms: N_9  and  C_10 
REMARK    4  A    between atoms: C_10  and  C_11 
REMARK    5  A    between atoms: C_11  and  C_12 
ROOT
HETATM    1  C   UNL     1      28.278  46.194  55.142  1.00  0.00     0.004 A 
HETATM    2  C   UNL     1      27.698  45.440  54.121  1.00  0.00     0.037 A 
HETATM    3  C   UNL     1      28.219  44.187  53.792  1.00  0.00     0.077 A 
HETATM    4  C   UNL     1      29.305  43.670  54.503  1.00  0.00     0.059 A 
HETATM    5  C   UNL     1      29.883  44.422  55.532  1.00  0.00     0.047 A 
HETATM    6  C   UNL     1      30.989  43.891  56.274  1.00  0.00     0.099 C 
HETATM    7  N   UNL     1      31.883  43.465  56.880  1.00  0.00    -0.191 NA
HETATM    8  C   UNL     1      29.371  45.686  55.847  1.00  0.00     0.023 A 
ENDROOT
BRANCH   3   9
HETATM    9  O   UNL     1      27.552  43.478  52.818  1.00  0.00    -0.311 OA
BRANCH   9  10
HETATM   10  C   UNL     1      26.689  44.196  52.028  1.00  0.00     0.076 A 
HETATM   11  C   UNL     1      27.165  44.743  50.840  1.00  0.00     0.039 A 
HETATM   12  C   UNL     1      26.294  45.435  49.992  1.00  0.00     0.032 A 
HETATM   13  C   UNL     1      24.940  45.557  50.313  1.00  0.00     0.034 A 
HETATM   14  C   UNL     1      24.468  44.972  51.499  1.00  0.00     0.032 A 
HETATM   15  C   UNL     1      25.339  44.294  52.356  1.00  0.00     0.039 A 
BRANCH  13  16
HETATM   16  N   UNL     1      23.994  46.217  49.499  1.00  0.00    -0.327 N 
HETATM   17  C   UNL     1      23.759  47.584  49.418  1.00  0.00     0.227 C 
HETATM   18  O   UNL     1      24.292  48.442  50.117  1.00  0.00    -0.273 OA
HETATM   19  H   UNL     1      23.401  45.618  48.937  1.00  0.00     0.169 HD
BRANCH  17  20
HETATM   20  C   UNL     1      22.683  47.917  48.378  1.00  0.00     0.159 C 
BRANCH  20  21
HETATM   21  C   UNL     1      21.943  49.197  48.634  1.00  0.00     0.017 A 
HETATM   22  N   UNL     1      21.781  49.736  49.891  1.00  0.00    -0.369 N 
HETATM   23  H   UNL     1      22.176  49.339  50.739  1.00  0.00     0.165 HD
HETATM   24  C   UNL     1      21.047  50.889  49.811  1.00  0.00     0.088 A 
HETATM   25  C   UNL     1      20.725  51.098  48.491  1.00  0.00     0.019 A 
HETATM   26  C   UNL     1      21.288  50.033  47.747  1.00  0.00     0.027 A 
ENDBRANCH  20  21
ENDBRANCH  17  20
ENDBRANCH  13  16
ENDBRANCH   9  10
ENDBRANCH   3   9
TORSDOF 5
ENDMDL
MODEL 4
REMARK VINA RESULT:      -8.2      2.531      9.327
REMARK  5 active torsions:
REMARK  status: ('A' for Active; 'I' for Inactive)
REMARK    1  A    between atoms: C_3  and  O_4 
REMARK    2  A    between atoms: O_4  and  C_5 
REMARK    3  A    between atoms: C_8  and  N_9 
REMARK       I    between atoms: N_9  and  C_10 
REMARK    4  A    between atoms: C_10  and  C_11 
REMARK    5  A    between atoms: C_11  and  C_12 
ROOT
HETATM    1  C   UNL     1      23.462  50.715  48.186  1.00  0.00     0.004 A 
HETATM    2  C   UNL     1      23.735  49.347  48.171  1.00  0.00     0.037 A 
HETATM    3  C   UNL     1      22.812  48.443  48.701  1.00  0.00     0.077 A 
HETATM    4  C   UNL     1      21.599  48.901  49.221  1.00  0.00     0.059 A 
HETATM    5  C   UNL     1      21.321  50.272  49.230  1.00  0.00     0.047 A 
HETATM    6  C   UNL     1      20.072  50.748  49.749  1.00  0.00     0.099 C 
HETATM    7  N   UNL     1      19.062  51.138  50.166  1.00  0.00    -0.191 NA
HETATM    8  C   UNL     1      22.256  51.178  48.715  1.00  0.00     0.023 A 
ENDROOT
BRANCH   3   9
HETATM    9  O   UNL     1      23.126  47.106  48.591  1.00  0.00    -0.311 OA
BRANCH   9  10
HETATM   10  C   UNL     1      23.910  46.582  49.589  1.00  0.00     0.076 A 
HETATM   11  C   UNL     1      24.564  47.453  50.456  1.00  0.00     0.039 A 
HETATM   12  C   UNL     1      25.329  46.945  51.510  1.00  0.00     0.032 A 
HETATM   13  C   UNL     1      25.417  45.566  51.722  1.00  0.00     0.034 A 
HETATM   14  C   UNL     1      24.726  44.701  50.859  1.00  0.00     0.032 A 
HETATM   15  C   UNL     1      23.975  45.206  49.794  1.00  0.00     0.039 A 
BRANCH  13  16
HETATM   16  N   UNL     1      26.146  44.977  52.778  1.00  0.00    -0.327 N 
HETATM   17  C   UNL     1      25.636  44.372  53.920  1.00  0.00     0.227 C 
HETATM   18  O   UNL     1      24.450  44.330  54.236  1.00  0.00    -0.273 OA
HETATM   19  H   UNL     1      27.154  45.032  52.702  1.00  0.00     0.169 HD
BRANCH  17  20
HETATM   20  C   UNL     1      26.748  43.804  54.809  1.00  0.00     0.159 C 
BRANCH  20  21
HETATM   21  C   UNL     1      27.797  43.023  54.074  1.00  0.00     0.017 A 
HETATM   22  N   UNL     1      27.556  41.797  53.492  1.00  0.00    -0.369 N 
HETATM   23  H   UNL     1      26.648  41.340  53.479  1.00  0.00     0.165 HD
HETATM   24  C   UNL     1      28.703  41.321  52.916  1.00  0.00     0.088 A 
HETATM   25  C   UNL     1      29.700  42.244  53.130  1.00  0.00     0.019 A 
HETATM   26  C   UNL     1      29.132  43.316  53.859  1.00  0.00     0.027 A 
ENDBRANCH  20  21
ENDBRANCH  17  20
ENDBRANCH  13  16
ENDBRANCH   9  10
ENDBRANCH   3   9
TORSDOF 5
ENDMDL
MODEL 5
REMARK VINA RESULT:      -8.2      2.456      2.950
REMARK  5 active torsions:
REMARK  status: ('A' for Active; 'I' for Inactive)
REMARK    1  A    between atoms: C_3  and  O_4 
REMARK    2  A    between atoms: O_4  and  C_5 
REMARK    3  A    between atoms: C_8  and  N_9 
REMARK       I    between atoms: N_9  and  C_10 
REMARK    4  A    between atoms: C_10  and  C_11 
REMARK    5  A    between atoms: C_11  and  C_12 
ROOT
HETATM    1  C   UNL     1      29.792  43.077  53.353  1.00  0.00     0.004 A 
HETATM    2  C   UNL     1      28.816  44.073  53.357  1.00  0.00     0.037 A 
HETATM    3  C   UNL     1      28.663  44.900  54.472  1.00  0.00     0.077 A 
HETATM    4  C   UNL     1      29.505  44.752  55.576  1.00  0.00     0.059 A 
HETATM    5  C   UNL     1      30.490  43.757  55.571  1.00  0.00     0.047 A 
HETATM    6  C   UNL     1      31.366  43.609  56.695  1.00  0.00     0.099 C 
HETATM    7  N   UNL     1      32.080  43.487  57.602  1.00  0.00    -0.191 NA
HETATM    8  C   UNL     1      30.628  42.918  54.459  1.00  0.00     0.023 A 
ENDROOT
BRANCH   3   9
HETATM    9  O   UNL     1      27.721  45.900  54.373  1.00  0.00    -0.311 OA
BRANCH   9  10
HETATM   10  C   UNL     1      26.665  45.660  53.529  1.00  0.00     0.076 A 
HETATM   11  C   UNL     1      26.335  46.619  52.577  1.00  0.00     0.039 A 
HETATM   12  C   UNL     1      25.296  46.376  51.673  1.00  0.00     0.032 A 
HETATM   13  C   UNL     1      24.605  45.162  51.696  1.00  0.00     0.034 A 
HETATM   14  C   UNL     1      24.971  44.191  52.641  1.00  0.00     0.032 A 
HETATM   15  C   UNL     1      25.998  44.438  53.558  1.00  0.00     0.039 A 
BRANCH  13  16
HETATM   16  N   UNL     1      23.564  44.831  50.802  1.00  0.00    -0.327 N 
HETATM   17  C   UNL     1      23.680  44.496  49.459  1.00  0.00     0.227 C 
HETATM   18  O   UNL     1      24.720  44.516  48.807  1.00  0.00    -0.273 OA
HETATM   19  H   UNL     1      22.626  44.877  51.182  1.00  0.00     0.169 HD
BRANCH  17  20
HETATM   20  C   UNL     1      22.322  44.151  48.837  1.00  0.00     0.159 C 
BRANCH  20  21
HETATM   21  C   UNL     1      21.430  45.332  48.590  1.00  0.00     0.017 A 
HETATM   22  N   UNL     1      20.185  45.471  49.164  1.00  0.00    -0.369 N 
HETATM   23  H   UNL     1      19.784  44.811  49.825  1.00  0.00     0.165 HD
HETATM   24  C   UNL     1      19.602  46.634  48.736  1.00  0.00     0.088 A 
HETATM   25  C   UNL     1      20.475  47.253  47.873  1.00  0.00     0.019 A 
HETATM   26  C   UNL     1      21.627  46.436  47.779  1.00  0.00     0.027 A 
ENDBRANCH  20  21
ENDBRANCH  17  20
ENDBRANCH  13  16
ENDBRANCH   9  10
ENDBRANCH   3   9
TORSDOF 5
ENDMDL
MODEL 6
REMARK VINA RESULT:      -8.0      2.070      9.481
REMARK  5 active torsions:
REMARK  status: ('A' for Active; 'I' for Inactive)
REMARK    1  A    between atoms: C_3  and  O_4 
REMARK    2  A    between atoms: O_4  and  C_5 
REMARK    3  A    between atoms: C_8  and  N_9 
REMARK       I    between atoms: N_9  and  C_10 
REMARK    4  A    between atoms: C_10  and  C_11 
REMARK    5  A    between atoms: C_11  and  C_12 
ROOT
HETATM    1  C   UNL     1      21.719  50.897  49.635  1.00  0.00     0.004 A 
HETATM    2  C   UNL     1      22.783  50.051  49.319  1.00  0.00     0.037 A 
HETATM    3  C   UNL     1      22.550  48.700  49.057  1.00  0.00     0.077 A 
HETATM    4  C   UNL     1      21.248  48.195  49.079  1.00  0.00     0.059 A 
HETATM    5  C   UNL     1      20.179  49.043  49.388  1.00  0.00     0.047 A 
HETATM    6  C   UNL     1      18.839  48.534  49.399  1.00  0.00     0.099 C 
HETATM    7  N   UNL     1      17.752  48.128  49.407  1.00  0.00    -0.191 NA
HETATM    8  C   UNL     1      20.418  50.394  49.670  1.00  0.00     0.023 A 
ENDROOT
BRANCH   3   9
HETATM    9  O   UNL     1      23.643  47.945  48.691  1.00  0.00    -0.311 OA
BRANCH   9  10
HETATM   10  C   UNL     1      24.139  47.092  49.645  1.00  0.00     0.076 A 
HETATM   11  C   UNL     1      23.849  45.734  49.547  1.00  0.00     0.039 A 
HETATM   12  C   UNL     1      24.384  44.838  50.478  1.00  0.00     0.032 A 
HETATM   13  C   UNL     1      25.235  45.290  51.490  1.00  0.00     0.034 A 
HETATM   14  C   UNL     1      25.544  46.657  51.556  1.00  0.00     0.032 A 
HETATM   15  C   UNL     1      24.997  47.558  50.638  1.00  0.00     0.039 A 
BRANCH  13  16
HETATM   16  N   UNL     1      25.834  44.446  52.450  1.00  0.00    -0.327 N 
HETATM   17  C   UNL     1      27.124  43.930  52.432  1.00  0.00     0.227 C 
HETATM   18  O   UNL     1      27.933  44.065  51.517  1.00  0.00    -0.273 OA
HETATM   19  H   UNL     1      25.240  44.162  53.220  1.00  0.00     0.169 HD
BRANCH  17  20
HETATM   20  C   UNL     1      27.422  43.094  53.681  1.00  0.00     0.159 C 
BRANCH  20  21
HETATM   21  C   UNL     1      28.618  43.547  54.466  1.00  0.00     0.017 A 
HETATM   22  N   UNL     1      28.681  44.763  55.110  1.00  0.00    -0.369 N 
HETATM   23  H   UNL     1      27.918  45.433  55.142  1.00  0.00     0.165 HD
HETATM   24  C   UNL     1      29.899  44.904  55.719  1.00  0.00     0.088 A 
HETATM   25  C   UNL     1      30.636  43.772  55.463  1.00  0.00     0.019 A 
HETATM   26  C   UNL     1      29.832  42.916  54.673  1.00  0.00     0.027 A 
ENDBRANCH  20  21
ENDBRANCH  17  20
ENDBRANCH  13  16
ENDBRANCH   9  10
ENDBRANCH   3   9
TORSDOF 5
ENDMDL
MODEL 7
REMARK VINA RESULT:      -7.9      3.235      5.338
REMARK  5 active torsions:
REMARK  status: ('A' for Active; 'I' for Inactive)
REMARK    1  A    between atoms: C_3  and  O_4 
REMARK    2  A    between atoms: O_4  and  C_5 
REMARK    3  A    between atoms: C_8  and  N_9 
REMARK       I    between atoms: N_9  and  C_10 
REMARK    4  A    between atoms: C_10  and  C_11 
REMARK    5  A    between atoms: C_11  and  C_12 
ROOT
HETATM    1  C   UNL     1      26.738  44.458  52.771  1.00  0.00     0.004 A 
HETATM    2  C   UNL     1      26.601  44.904  51.456  1.00  0.00     0.037 A 
HETATM    3  C   UNL     1      26.282  46.239  51.199  1.00  0.00     0.077 A 
HETATM    4  C   UNL     1      26.128  47.140  52.255  1.00  0.00     0.059 A 
HETATM    5  C   UNL     1      26.271  46.695  53.574  1.00  0.00     0.047 A 
HETATM    6  C   UNL     1      26.127  47.617  54.662  1.00  0.00     0.099 C 
HETATM    7  N   UNL     1      26.014  48.361  55.547  1.00  0.00    -0.191 NA
HETATM    8  C   UNL     1      26.572  45.352  53.830  1.00  0.00     0.023 A 
ENDROOT
BRANCH   3   9
HETATM    9  O   UNL     1      26.229  46.616  49.875  1.00  0.00    -0.311 OA
BRANCH   9  10
HETATM   10  C   UNL     1      25.242  47.510  49.538  1.00  0.00     0.076 A 
HETATM   11  C   UNL     1      25.608  48.770  49.073  1.00  0.00     0.039 A 
HETATM   12  C   UNL     1      24.623  49.679  48.675  1.00  0.00     0.032 A 
HETATM   13  C   UNL     1      23.272  49.323  48.711  1.00  0.00     0.034 A 
HETATM   14  C   UNL     1      22.921  48.037  49.151  1.00  0.00     0.032 A 
HETATM   15  C   UNL     1      23.902  47.132  49.566  1.00  0.00     0.039 A 
BRANCH  13  16
HETATM   16  N   UNL     1      22.222  50.174  48.303  1.00  0.00    -0.327 N 
HETATM   17  C   UNL     1      21.382  50.926  49.114  1.00  0.00     0.227 C 
HETATM   18  O   UNL     1      21.368  50.902  50.342  1.00  0.00    -0.273 OA
HETATM   19  H   UNL     1      22.047  50.211  47.306  1.00  0.00     0.169 HD
BRANCH  17  20
HETATM   20  C   UNL     1      20.397  51.766  48.293  1.00  0.00     0.159 C 
BRANCH  20  21
HETATM   21  C   UNL     1      18.957  51.592  48.677  1.00  0.00     0.017 A 
HETATM   22  N   UNL     1      18.428  52.069  49.856  1.00  0.00    -0.369 N 
HETATM   23  H   UNL     1      18.952  52.606  50.542  1.00  0.00     0.165 HD
HETATM   24  C   UNL     1      17.101  51.741  49.937  1.00  0.00     0.088 A 
HETATM   25  C   UNL     1      16.767  51.040  48.803  1.00  0.00     0.019 A 
HETATM   26  C   UNL     1      17.934  50.944  48.007  1.00  0.00     0.027 A 
ENDBRANCH  20  21
ENDBRANCH  17  20
ENDBRANCH  13  16
ENDBRANCH   9  10
ENDBRANCH   3   9
TORSDOF 5
ENDMDL
MODEL 8
REMARK VINA RESULT:      -7.8     12.789     15.946
REMARK  5 active torsions:
REMARK  status: ('A' for Active; 'I' for Inactive)
REMARK    1  A    between atoms: C_3  and  O_4 
REMARK    2  A    between atoms: O_4  and  C_5 
REMARK    3  A    between atoms: C_8  and  N_9 
REMARK       I    between atoms: N_9  and  C_10 
REMARK    4  A    between atoms: C_10  and  C_11 
REMARK    5  A    between atoms: C_11  and  C_12 
ROOT
HETATM    1  C   UNL     1      30.046  53.616  40.428  1.00  0.00     0.004 A 
HETATM    2  C   UNL     1      30.600  52.796  41.411  1.00  0.00     0.037 A 
HETATM    3  C   UNL     1      30.222  51.455  41.500  1.00  0.00     0.077 A 
HETATM    4  C   UNL     1      29.311  50.921  40.586  1.00  0.00     0.059 A 
HETATM    5  C   UNL     1      28.760  51.741  39.595  1.00  0.00     0.047 A 
HETATM    6  C   UNL     1      27.834  51.195  38.646  1.00  0.00     0.099 C 
HETATM    7  N   UNL     1      27.086  50.758  37.873  1.00  0.00    -0.191 NA
HETATM    8  C   UNL     1      29.126  53.090  39.521  1.00  0.00     0.023 A 
ENDROOT
BRANCH   3   9
HETATM    9  O   UNL     1      30.861  50.696  42.455  1.00  0.00    -0.311 OA
BRANCH   9  10
HETATM   10  C   UNL     1      32.154  51.053  42.750  1.00  0.00     0.076 A 
HETATM   11  C   UNL     1      32.415  51.692  43.958  1.00  0.00     0.039 A 
HETATM   12  C   UNL     1      33.730  52.021  44.304  1.00  0.00     0.032 A 
HETATM   13  C   UNL     1      34.791  51.684  43.459  1.00  0.00     0.034 A 
HETATM   14  C   UNL     1      34.515  51.010  42.259  1.00  0.00     0.032 A 
HETATM   15  C   UNL     1      33.200  50.696  41.902  1.00  0.00     0.039 A 
BRANCH  13  16
HETATM   16  N   UNL     1      36.145  51.957  43.748  1.00  0.00    -0.327 N 
HETATM   17  C   UNL     1      36.924  52.990  43.241  1.00  0.00     0.227 C 
HETATM   18  O   UNL     1      36.572  53.793  42.380  1.00  0.00    -0.273 OA
HETATM   19  H   UNL     1      36.603  51.305  44.373  1.00  0.00     0.169 HD
BRANCH  17  20
HETATM   20  C   UNL     1      38.337  52.984  43.836  1.00  0.00     0.159 C 
BRANCH  20  21
HETATM   21  C   UNL     1      38.412  53.420  45.270  1.00  0.00     0.017 A 
HETATM   22  N   UNL     1      39.037  52.682  46.250  1.00  0.00    -0.369 N 
HETATM   23  H   UNL     1      39.528  51.808  46.083  1.00  0.00     0.165 HD
HETATM   24  C   UNL     1      38.923  53.320  47.457  1.00  0.00     0.088 A 
HETATM   25  C   UNL     1      38.214  54.481  47.258  1.00  0.00     0.019 A 
HETATM   26  C   UNL     1      37.890  54.546  45.882  1.00  0.00     0.027 A 
ENDBRANCH  20  21
ENDBRANCH  17  20
ENDBRANCH  13  16
ENDBRANCH   9  10
ENDBRANCH   3   9
TORSDOF 5
ENDMDL
MODEL 9
REMARK VINA RESULT:      -7.5      2.677      9.971
REMARK  5 active torsions:
REMARK  status: ('A' for Active; 'I' for Inactive)
REMARK    1  A    between atoms: C_3  and  O_4 
REMARK    2  A    between atoms: O_4  and  C_5 
REMARK    3  A    between atoms: C_8  and  N_9 
REMARK       I    between atoms: N_9  and  C_10 
REMARK    4  A    between atoms: C_10  and  C_11 
REMARK    5  A    between atoms: C_11  and  C_12 
ROOT
HETATM    1  C   UNL     1      20.665  51.158  50.285  1.00  0.00     0.004 A 
HETATM    2  C   UNL     1      21.850  50.749  49.674  1.00  0.00     0.037 A 
HETATM    3  C   UNL     1      21.873  50.470  48.306  1.00  0.00     0.077 A 
HETATM    4  C   UNL     1      20.717  50.630  47.537  1.00  0.00     0.059 A 
HETATM    5  C   UNL     1      19.530  51.048  48.148  1.00  0.00     0.047 A 
HETATM    6  C   UNL     1      18.344  51.227  47.363  1.00  0.00     0.099 C 
HETATM    7  N   UNL     1      17.382  51.376  46.731  1.00  0.00    -0.191 NA
HETATM    8  C   UNL     1      19.505  51.308  49.523  1.00  0.00     0.023 A 
ENDROOT
BRANCH   3   9
HETATM    9  O   UNL     1      23.094  50.134  47.765  1.00  0.00    -0.311 OA
BRANCH   9  10
HETATM   10  C   UNL     1      23.843  49.227  48.474  1.00  0.00     0.076 A 
HETATM   11  C   UNL     1      23.248  48.035  48.876  1.00  0.00     0.039 A 
HETATM   12  C   UNL     1      24.003  47.073  49.555  1.00  0.00     0.032 A 
HETATM   13  C   UNL     1      25.362  47.286  49.807  1.00  0.00     0.034 A 
HETATM   14  C   UNL     1      25.955  48.479  49.366  1.00  0.00     0.032 A 
HETATM   15  C   UNL     1      25.199  49.449  48.702  1.00  0.00     0.039 A 
BRANCH  13  16
HETATM   16  N   UNL     1      26.196  46.354  50.462  1.00  0.00    -0.327 N 
HETATM   17  C   UNL     1      26.413  45.026  50.115  1.00  0.00     0.227 C 
HETATM   18  O   UNL     1      25.837  44.421  49.215  1.00  0.00    -0.273 OA
HETATM   19  H   UNL     1      26.661  46.690  51.297  1.00  0.00     0.169 HD
BRANCH  17  20
HETATM   20  C   UNL     1      27.430  44.353  51.044  1.00  0.00     0.159 C 
BRANCH  20  21
HETATM   21  C   UNL     1      27.027  44.316  52.489  1.00  0.00     0.017 A 
HETATM   22  N   UNL     1      27.921  44.474  53.526  1.00  0.00    -0.369 N 
HETATM   23  H   UNL     1      28.912  44.664  53.402  1.00  0.00     0.165 HD
HETATM   24  C   UNL     1      27.266  44.370  54.724  1.00  0.00     0.088 A 
HETATM   25  C   UNL     1      25.936  44.139  54.463  1.00  0.00     0.019 A 
HETATM   26  C   UNL     1      25.783  44.103  53.056  1.00  0.00     0.027 A 
ENDBRANCH  20  21
ENDBRANCH  17  20
ENDBRANCH  13  16
ENDBRANCH   9  10
ENDBRANCH   3   9
TORSDOF 5
ENDMDL
MODEL 10
REMARK VINA RESULT:      -7.4     16.532     19.461
REMARK  5 active torsions:
REMARK  status: ('A' for Active; 'I' for Inactive)
REMARK    1  A    between atoms: C_3  and  O_4 
REMARK    2  A    between atoms: O_4  and  C_5 
REMARK    3  A    between atoms: C_8  and  N_9 
REMARK       I    between atoms: N_9  and  C_10 
REMARK    4  A    between atoms: C_10  and  C_11 
REMARK    5  A    between atoms: C_11  and  C_12 
ROOT
HETATM    1  C   UNL     1      37.636  49.188  64.919  1.00  0.00     0.004 A 
HETATM    2  C   UNL     1      37.016  48.128  64.256  1.00  0.00     0.037 A 
HETATM    3  C   UNL     1      36.616  46.995  64.968  1.00  0.00     0.077 A 
HETATM    4  C   UNL     1      36.807  46.930  66.350  1.00  0.00     0.059 A 
HETATM    5  C   UNL     1      37.422  47.996  67.017  1.00  0.00     0.047 A 
HETATM    6  C   UNL     1      37.608  47.941  68.437  1.00  0.00     0.099 C 
HETATM    7  N   UNL     1      37.759  47.903  69.587  1.00  0.00    -0.191 NA
HETATM    8  C   UNL     1      37.839  49.123  66.298  1.00  0.00     0.023 A 
ENDROOT
BRANCH   3   9
HETATM    9  O   UNL     1      35.955  46.021  64.254  1.00  0.00    -0.311 OA
BRANCH   9  10
HETATM   10  C   UNL     1      36.637  44.847  64.052  1.00  0.00     0.076 A 
HETATM   11  C   UNL     1      36.242  43.711  64.753  1.00  0.00     0.039 A 
HETATM   12  C   UNL     1      36.888  42.492  64.528  1.00  0.00     0.032 A 
HETATM   13  C   UNL     1      37.910  42.396  63.579  1.00  0.00     0.034 A 
HETATM   14  C   UNL     1      38.276  43.542  62.856  1.00  0.00     0.032 A 
HETATM   15  C   UNL     1      37.643  44.766  63.092  1.00  0.00     0.039 A 
BRANCH  13  16
HETATM   16  N   UNL     1      38.593  41.197  63.276  1.00  0.00    -0.327 N 
HETATM   17  C   UNL     1      39.795  40.752  63.812  1.00  0.00     0.227 C 
HETATM   18  O   UNL     1      40.506  41.384  64.589  1.00  0.00    -0.273 OA
HETATM   19  H   UNL     1      38.168  40.616  62.563  1.00  0.00     0.169 HD
BRANCH  17  20
HETATM   20  C   UNL     1      40.187  39.374  63.268  1.00  0.00     0.159 C 
BRANCH  20  21
HETATM   21  C   UNL     1      40.642  38.397  64.311  1.00  0.00     0.017 A 
HETATM   22  N   UNL     1      41.745  37.587  64.156  1.00  0.00    -0.369 N 
HETATM   23  H   UNL     1      42.360  37.608  63.347  1.00  0.00     0.165 HD
HETATM   24  C   UNL     1      41.896  36.790  65.259  1.00  0.00     0.088 A 
HETATM   25  C   UNL     1      40.878  37.082  66.137  1.00  0.00     0.019 A 
HETATM   26  C   UNL     1      40.086  38.093  65.542  1.00  0.00     0.027 A 
ENDBRANCH  20  21
ENDBRANCH  17  20
ENDBRANCH  13  16
ENDBRANCH   9  10
ENDBRANCH   3   9
TORSDOF 5
ENDMDL
