MODEL 1
REMARK VINA RESULT:      -8.5      0.000      0.000
REMARK  7 active torsions:
REMARK  status: ('A' for Active; 'I' for Inactive)
REMARK    1  A    between atoms: C_7  and  C_8 
REMARK    2  A    between atoms: C_8  and  N_9 
REMARK       I    between atoms: N_9  and  C_10 
REMARK       I    between atoms: C_10  and  N_11 
REMARK    3  A    between atoms: N_11  and  C_12 
REMARK    4  A    between atoms: C_12  and  C_13 
REMARK    5  A    between atoms: C_13  and  C_14 
REMARK    6  A    between atoms: C_14  and  O_15 
REMARK    7  A    between atoms: C_14  and  C_16 
ROOT
HETATM    1  N   UNL     1      25.637  44.382  51.376  1.00  0.00    -0.337 N 
HETATM    2  C   UNL     1      26.016  43.906  52.609  1.00  0.00     0.316 C 
HETATM    3  N   UNL     1      27.252  43.328  52.545  1.00  0.00    -0.339 N 
HETATM    4  O   UNL     1      25.314  43.998  53.610  1.00  0.00    -0.247 OA
HETATM    5  H   UNL     1      26.432  44.614  50.796  1.00  0.00     0.164 HD
HETATM    6  H   UNL     1      27.426  42.877  51.656  1.00  0.00     0.164 HD
ENDROOT
BRANCH   1   7
HETATM    7  C   UNL     1      24.474  45.234  51.222  1.00  0.00     0.183 C 
BRANCH   7   8
HETATM    8  C   UNL     1      24.797  46.471  50.468  1.00  0.00     0.044 A 
HETATM    9  N   UNL     1      26.093  46.951  50.343  1.00  0.00    -0.343 N 
HETATM   10  C   UNL     1      26.129  48.053  49.611  1.00  0.00     0.112 A 
HETATM   11  H   UNL     1      26.887  46.524  50.836  1.00  0.00     0.167 HD
HETATM   12  N   UNL     1      24.864  48.336  49.239  1.00  0.00    -0.311 N 
HETATM   13  C   UNL     1      27.272  48.902  49.206  1.00  0.00     0.049 A 
HETATM   14  C   UNL     1      24.545  49.448  48.461  1.00  0.00     0.014 A 
HETATM   15  C   UNL     1      24.020  47.364  49.763  1.00  0.00     0.125 A 
HETATM   16  C   UNL     1      23.125  49.746  48.084  1.00  0.00     0.068 C 
HETATM   17  C   UNL     1      25.581  50.230  48.083  1.00  0.00     0.025 A 
HETATM   18  C   UNL     1      26.970  49.968  48.446  1.00  0.00     0.006 A 
ENDBRANCH   7   8
ENDBRANCH   1   7
BRANCH   3  19
HETATM   19  C   UNL     1      27.898  42.638  53.662  1.00  0.00     0.085 C 
HETATM   20  C   UNL     1      27.977  41.123  53.458  1.00  0.00     0.032 C 
BRANCH  19  21
HETATM   21  C   UNL     1      29.283  43.224  53.995  1.00  0.00     0.063 C 
BRANCH  21  22
HETATM   22  C   UNL     1      29.265  44.526  54.808  1.00  0.00     0.177 C 
BRANCH  22  23
HETATM   23  O   UNL     1      27.929  44.841  55.217  1.00  0.00    -0.389 OA
HETATM   24  H   UNL     1      27.942  44.816  56.191  1.00  0.00     0.210 HD
ENDBRANCH  22  23
BRANCH  22  25
HETATM   25  C   UNL     1      30.115  44.477  56.031  1.00  0.00     0.081 A 
HETATM   26  O   UNL     1      29.878  45.442  56.967  1.00  0.00    -0.324 OA
HETATM   27  C   UNL     1      30.753  45.238  57.985  1.00  0.00     0.142 A 
HETATM   28  C   UNL     1      31.550  44.150  57.723  1.00  0.00     0.027 A 
HETATM   29  C   UNL     1      31.139  43.655  56.461  1.00  0.00     0.037 A 
ENDBRANCH  22  25
ENDBRANCH  21  22
ENDBRANCH  19  21
ENDBRANCH   3  19
TORSDOF 7
ENDMDL
MODEL 2
REMARK VINA RESULT:      -8.3      2.966      9.200
REMARK  7 active torsions:
REMARK  status: ('A' for Active; 'I' for Inactive)
REMARK    1  A    between atoms: C_7  and  C_8 
REMARK    2  A    between atoms: C_8  and  N_9 
REMARK       I    between atoms: N_9  and  C_10 
REMARK       I    between atoms: C_10  and  N_11 
REMARK    3  A    between atoms: N_11  and  C_12 
REMARK    4  A    between atoms: C_12  and  C_13 
REMARK    5  A    between atoms: C_13  and  C_14 
REMARK    6  A    between atoms: C_14  and  O_15 
REMARK    7  A    between atoms: C_14  and  C_16 
ROOT
HETATM    1  N   UNL     1      26.074  45.357  51.584  1.00  0.00    -0.337 N 
HETATM    2  C   UNL     1      25.771  46.691  51.449  1.00  0.00     0.316 C 
HETATM    3  N   UNL     1      25.885  47.083  50.145  1.00  0.00    -0.339 N 
HETATM    4  O   UNL     1      25.452  47.406  52.391  1.00  0.00    -0.247 OA
HETATM    5  H   UNL     1      25.900  44.838  50.733  1.00  0.00     0.164 HD
HETATM    6  H   UNL     1      26.616  46.588  49.651  1.00  0.00     0.164 HD
ENDROOT
BRANCH   1   7
HETATM    7  C   UNL     1      25.812  44.646  52.821  1.00  0.00     0.183 C 
BRANCH   7   8
HETATM    8  C   UNL     1      27.024  44.568  53.674  1.00  0.00     0.044 A 
HETATM    9  N   UNL     1      28.061  43.684  53.418  1.00  0.00    -0.343 N 
HETATM   10  C   UNL     1      29.036  43.816  54.303  1.00  0.00     0.112 A 
HETATM   11  H   UNL     1      28.009  42.976  52.674  1.00  0.00     0.167 HD
HETATM   12  N   UNL     1      28.670  44.781  55.170  1.00  0.00    -0.311 N 
HETATM   13  C   UNL     1      30.328  43.103  54.426  1.00  0.00     0.049 A 
HETATM   14  C   UNL     1      29.473  45.166  56.243  1.00  0.00     0.014 A 
HETATM   15  C   UNL     1      27.421  45.261  54.797  1.00  0.00     0.125 A 
HETATM   16  C   UNL     1      29.025  46.227  57.203  1.00  0.00     0.068 C 
HETATM   17  C   UNL     1      30.656  44.523  56.365  1.00  0.00     0.025 A 
HETATM   18  C   UNL     1      31.110  43.479  55.452  1.00  0.00     0.006 A 
ENDBRANCH   7   8
ENDBRANCH   1   7
BRANCH   3  19
HETATM   19  C   UNL     1      25.727  48.462  49.681  1.00  0.00     0.085 C 
HETATM   20  C   UNL     1      26.902  48.936  48.821  1.00  0.00     0.032 C 
BRANCH  19  21
HETATM   21  C   UNL     1      24.386  48.693  48.962  1.00  0.00     0.063 C 
BRANCH  21  22
HETATM   22  C   UNL     1      24.079  50.155  48.604  1.00  0.00     0.177 C 
BRANCH  22  23
HETATM   23  O   UNL     1      24.253  50.372  47.199  1.00  0.00    -0.389 OA
HETATM   24  H   UNL     1      25.187  50.161  47.017  1.00  0.00     0.210 HD
ENDBRANCH  22  23
BRANCH  22  25
HETATM   25  C   UNL     1      22.695  50.578  48.961  1.00  0.00     0.081 A 
HETATM   26  O   UNL     1      22.409  50.636  50.294  1.00  0.00    -0.324 OA
HETATM   27  C   UNL     1      21.113  51.021  50.412  1.00  0.00     0.142 A 
HETATM   28  C   UNL     1      20.556  51.219  49.171  1.00  0.00     0.027 A 
HETATM   29  C   UNL     1      21.577  50.935  48.232  1.00  0.00     0.037 A 
ENDBRANCH  22  25
ENDBRANCH  21  22
ENDBRANCH  19  21
ENDBRANCH   3  19
TORSDOF 7
ENDMDL
MODEL 3
REMARK VINA RESULT:      -8.3      2.618      8.457
REMARK  7 active torsions:
REMARK  status: ('A' for Active; 'I' for Inactive)
REMARK    1  A    between atoms: C_7  and  C_8 
REMARK    2  A    between atoms: C_8  and  N_9 
REMARK       I    between atoms: N_9  and  C_10 
REMARK       I    between atoms: C_10  and  N_11 
REMARK    3  A    between atoms: N_11  and  C_12 
REMARK    4  A    between atoms: C_12  and  C_13 
REMARK    5  A    between atoms: C_13  and  C_14 
REMARK    6  A    between atoms: C_14  and  O_15 
REMARK    7  A    between atoms: C_14  and  C_16 
ROOT
HETATM    1  N   UNL     1      27.403  43.722  52.270  1.00  0.00    -0.337 N 
HETATM    2  C   UNL     1      27.029  44.402  51.135  1.00  0.00     0.316 C 
HETATM    3  N   UNL     1      25.726  44.806  51.222  1.00  0.00    -0.339 N 
HETATM    4  O   UNL     1      27.783  44.597  50.189  1.00  0.00    -0.247 OA
HETATM    5  H   UNL     1      26.863  44.002  53.078  1.00  0.00     0.164 HD
HETATM    6  H   UNL     1      25.150  44.156  51.741  1.00  0.00     0.164 HD
ENDROOT
BRANCH   1   7
HETATM    7  C   UNL     1      28.791  43.388  52.524  1.00  0.00     0.183 C 
BRANCH   7   8
HETATM    8  C   UNL     1      29.232  43.858  53.861  1.00  0.00     0.044 A 
HETATM    9  N   UNL     1      28.626  44.921  54.515  1.00  0.00    -0.343 N 
HETATM   10  C   UNL     1      29.180  45.137  55.698  1.00  0.00     0.112 A 
HETATM   11  H   UNL     1      27.896  45.494  54.073  1.00  0.00     0.167 HD
HETATM   12  N   UNL     1      30.168  44.233  55.856  1.00  0.00    -0.311 N 
HETATM   13  C   UNL     1      28.867  46.143  56.737  1.00  0.00     0.049 A 
HETATM   14  C   UNL     1      30.966  44.190  56.998  1.00  0.00     0.014 A 
HETATM   15  C   UNL     1      30.217  43.428  54.724  1.00  0.00     0.125 A 
HETATM   16  C   UNL     1      32.071  43.186  57.132  1.00  0.00     0.068 C 
HETATM   17  C   UNL     1      30.688  45.103  57.956  1.00  0.00     0.025 A 
HETATM   18  C   UNL     1      29.626  46.097  57.845  1.00  0.00     0.006 A 
ENDBRANCH   7   8
ENDBRANCH   1   7
BRANCH   3  19
HETATM   19  C   UNL     1      24.994  45.466  50.140  1.00  0.00     0.085 C 
HETATM   20  C   UNL     1      24.013  44.529  49.430  1.00  0.00     0.032 C 
BRANCH  19  21
HETATM   21  C   UNL     1      24.291  46.754  50.604  1.00  0.00     0.063 C 
BRANCH  21  22
HETATM   22  C   UNL     1      24.243  47.884  49.565  1.00  0.00     0.177 C 
BRANCH  22  23
HETATM   23  O   UNL     1      23.343  48.915  49.989  1.00  0.00    -0.389 OA
HETATM   24  H   UNL     1      23.497  49.661  49.382  1.00  0.00     0.210 HD
ENDBRANCH  22  23
BRANCH  22  25
HETATM   25  C   UNL     1      25.569  48.515  49.310  1.00  0.00     0.081 A 
HETATM   26  O   UNL     1      25.564  49.622  48.511  1.00  0.00    -0.324 OA
HETATM   27  C   UNL     1      26.851  50.036  48.388  1.00  0.00     0.142 A 
HETATM   28  C   UNL     1      27.690  49.213  49.103  1.00  0.00     0.027 A 
HETATM   29  C   UNL     1      26.863  48.231  49.700  1.00  0.00     0.037 A 
ENDBRANCH  22  25
ENDBRANCH  21  22
ENDBRANCH  19  21
ENDBRANCH   3  19
TORSDOF 7
ENDMDL
MODEL 4
REMARK VINA RESULT:      -8.3      2.969      9.165
REMARK  7 active torsions:
REMARK  status: ('A' for Active; 'I' for Inactive)
REMARK    1  A    between atoms: C_7  and  C_8 
REMARK    2  A    between atoms: C_8  and  N_9 
REMARK       I    between atoms: N_9  and  C_10 
REMARK       I    between atoms: C_10  and  N_11 
REMARK    3  A    between atoms: N_11  and  C_12 
REMARK    4  A    between atoms: C_12  and  C_13 
REMARK    5  A    between atoms: C_13  and  C_14 
REMARK    6  A    between atoms: C_14  and  O_15 
REMARK    7  A    between atoms: C_14  and  C_16 
ROOT
HETATM    1  N   UNL     1      25.453  46.281  53.192  1.00  0.00    -0.337 N 
HETATM    2  C   UNL     1      25.492  46.722  51.891  1.00  0.00     0.316 C 
HETATM    3  N   UNL     1      24.603  46.030  51.119  1.00  0.00    -0.339 N 
HETATM    4  O   UNL     1      26.240  47.613  51.505  1.00  0.00    -0.247 OA
HETATM    5  H   UNL     1      24.554  45.886  53.434  1.00  0.00     0.164 HD
HETATM    6  H   UNL     1      24.493  45.068  51.416  1.00  0.00     0.164 HD
ENDROOT
BRANCH   1   7
HETATM    7  C   UNL     1      26.132  47.000  54.252  1.00  0.00     0.183 C 
BRANCH   7   8
HETATM    8  C   UNL     1      27.309  46.249  54.757  1.00  0.00     0.044 A 
HETATM    9  N   UNL     1      27.800  45.118  54.122  1.00  0.00    -0.343 N 
HETATM   10  C   UNL     1      28.863  44.639  54.748  1.00  0.00     0.112 A 
HETATM   11  H   UNL     1      27.325  44.689  53.317  1.00  0.00     0.167 HD
HETATM   12  N   UNL     1      29.101  45.431  55.812  1.00  0.00    -0.311 N 
HETATM   13  C   UNL     1      29.715  43.469  54.438  1.00  0.00     0.049 A 
HETATM   14  C   UNL     1      30.152  45.198  56.698  1.00  0.00     0.014 A 
HETATM   15  C   UNL     1      28.143  46.438  55.837  1.00  0.00     0.125 A 
HETATM   16  C   UNL     1      30.374  46.086  57.885  1.00  0.00     0.068 C 
HETATM   17  C   UNL     1      30.939  44.133  56.424  1.00  0.00     0.025 A 
HETATM   18  C   UNL     1      30.738  43.248  55.282  1.00  0.00     0.006 A 
ENDBRANCH   7   8
ENDBRANCH   1   7
BRANCH   3  19
HETATM   19  C   UNL     1      24.469  46.188  49.670  1.00  0.00     0.085 C 
HETATM   20  C   UNL     1      24.343  44.851  48.936  1.00  0.00     0.032 C 
BRANCH  19  21
HETATM   21  C   UNL     1      23.324  47.142  49.284  1.00  0.00     0.063 C 
BRANCH  21  22
HETATM   22  C   UNL     1      23.524  48.607  49.698  1.00  0.00     0.177 C 
BRANCH  22  23
HETATM   23  O   UNL     1      24.807  49.077  49.267  1.00  0.00    -0.389 OA
HETATM   24  H   UNL     1      25.452  48.447  49.635  1.00  0.00     0.210 HD
ENDBRANCH  22  23
BRANCH  22  25
HETATM   25  C   UNL     1      22.492  49.529  49.144  1.00  0.00     0.081 A 
HETATM   26  O   UNL     1      21.360  48.942  48.659  1.00  0.00    -0.324 OA
HETATM   27  C   UNL     1      20.560  49.935  48.192  1.00  0.00     0.142 A 
HETATM   28  C   UNL     1      21.159  51.159  48.373  1.00  0.00     0.027 A 
HETATM   29  C   UNL     1      22.407  50.900  48.989  1.00  0.00     0.037 A 
ENDBRANCH  22  25
ENDBRANCH  21  22
ENDBRANCH  19  21
ENDBRANCH   3  19
TORSDOF 7
ENDMDL
MODEL 5
REMARK VINA RESULT:      -8.3      2.651      7.956
REMARK  7 active torsions:
REMARK  status: ('A' for Active; 'I' for Inactive)
REMARK    1  A    between atoms: C_7  and  C_8 
REMARK    2  A    between atoms: C_8  and  N_9 
REMARK       I    between atoms: N_9  and  C_10 
REMARK       I    between atoms: C_10  and  N_11 
REMARK    3  A    between atoms: N_11  and  C_12 
REMARK    4  A    between atoms: C_12  and  C_13 
REMARK    5  A    between atoms: C_13  and  C_14 
REMARK    6  A    between atoms: C_14  and  O_15 
REMARK    7  A    between atoms: C_14  and  C_16 
ROOT
HETATM    1  N   UNL     1      26.407  42.506  51.873  1.00  0.00    -0.337 N 
HETATM    2  C   UNL     1      26.398  43.184  50.676  1.00  0.00     0.316 C 
HETATM    3  N   UNL     1      25.230  43.876  50.522  1.00  0.00    -0.339 N 
HETATM    4  O   UNL     1      27.325  43.145  49.875  1.00  0.00    -0.247 OA
HETATM    5  H   UNL     1      25.819  42.950  52.566  1.00  0.00     0.164 HD
HETATM    6  H   UNL     1      24.439  43.407  50.944  1.00  0.00     0.164 HD
ENDROOT
BRANCH   1   7
HETATM    7  C   UNL     1      27.616  41.882  52.375  1.00  0.00     0.183 C 
BRANCH   7   8
HETATM    8  C   UNL     1      28.295  42.736  53.382  1.00  0.00     0.044 A 
HETATM    9  N   UNL     1      29.370  42.288  54.135  1.00  0.00    -0.343 N 
HETATM   10  C   UNL     1      29.816  43.234  54.947  1.00  0.00     0.112 A 
HETATM   11  H   UNL     1      29.700  41.316  54.098  1.00  0.00     0.167 HD
HETATM   12  N   UNL     1      29.047  44.326  54.760  1.00  0.00    -0.311 N 
HETATM   13  C   UNL     1      30.932  43.221  55.918  1.00  0.00     0.049 A 
HETATM   14  C   UNL     1      29.242  45.508  55.472  1.00  0.00     0.014 A 
HETATM   15  C   UNL     1      28.094  44.036  53.791  1.00  0.00     0.125 A 
HETATM   16  C   UNL     1      28.354  46.697  55.256  1.00  0.00     0.068 C 
HETATM   17  C   UNL     1      30.261  45.509  56.361  1.00  0.00     0.025 A 
HETATM   18  C   UNL     1      31.131  44.363  56.599  1.00  0.00     0.006 A 
ENDBRANCH   7   8
ENDBRANCH   1   7
BRANCH   3  19
HETATM   19  C   UNL     1      24.865  44.618  49.315  1.00  0.00     0.085 C 
HETATM   20  C   UNL     1      23.600  44.075  48.645  1.00  0.00     0.032 C 
BRANCH  19  21
HETATM   21  C   UNL     1      24.751  46.133  49.566  1.00  0.00     0.063 C 
BRANCH  21  22
HETATM   22  C   UNL     1      26.074  46.846  49.882  1.00  0.00     0.177 C 
BRANCH  22  23
HETATM   23  O   UNL     1      27.184  46.062  49.428  1.00  0.00    -0.389 OA
HETATM   24  H   UNL     1      27.688  46.645  48.832  1.00  0.00     0.210 HD
ENDBRANCH  22  23
BRANCH  22  25
HETATM   25  C   UNL     1      26.187  48.196  49.261  1.00  0.00     0.081 A 
HETATM   26  O   UNL     1      25.015  48.782  48.878  1.00  0.00    -0.324 OA
HETATM   27  C   UNL     1      25.326  49.983  48.328  1.00  0.00     0.142 A 
HETATM   28  C   UNL     1      26.685  50.186  48.356  1.00  0.00     0.027 A 
HETATM   29  C   UNL     1      27.244  49.034  48.959  1.00  0.00     0.037 A 
ENDBRANCH  22  25
ENDBRANCH  21  22
ENDBRANCH  19  21
ENDBRANCH   3  19
TORSDOF 7
ENDMDL
MODEL 6
REMARK VINA RESULT:      -7.9      3.459      7.585
REMARK  7 active torsions:
REMARK  status: ('A' for Active; 'I' for Inactive)
REMARK    1  A    between atoms: C_7  and  C_8 
REMARK    2  A    between atoms: C_8  and  N_9 
REMARK       I    between atoms: N_9  and  C_10 
REMARK       I    between atoms: C_10  and  N_11 
REMARK    3  A    between atoms: N_11  and  C_12 
REMARK    4  A    between atoms: C_12  and  C_13 
REMARK    5  A    between atoms: C_13  and  C_14 
REMARK    6  A    between atoms: C_14  and  O_15 
REMARK    7  A    between atoms: C_14  and  C_16 
ROOT
HETATM    1  N   UNL     1      27.129  41.077  52.268  1.00  0.00    -0.337 N 
HETATM    2  C   UNL     1      26.825  41.517  51.002  1.00  0.00     0.316 C 
HETATM    3  N   UNL     1      25.474  41.662  50.852  1.00  0.00    -0.339 N 
HETATM    4  O   UNL     1      27.673  41.734  50.144  1.00  0.00    -0.247 OA
HETATM    5  H   UNL     1      26.426  41.345  52.944  1.00  0.00     0.164 HD
HETATM    6  H   UNL     1      24.947  40.983  51.387  1.00  0.00     0.164 HD
ENDROOT
BRANCH   1   7
HETATM    7  C   UNL     1      28.496  41.060  52.752  1.00  0.00     0.183 C 
BRANCH   7   8
HETATM    8  C   UNL     1      28.799  42.255  53.578  1.00  0.00     0.044 A 
HETATM    9  N   UNL     1      28.050  43.420  53.507  1.00  0.00    -0.343 N 
HETATM   10  C   UNL     1      28.502  44.334  54.351  1.00  0.00     0.112 A 
HETATM   11  H   UNL     1      27.297  43.549  52.819  1.00  0.00     0.167 HD
HETATM   12  N   UNL     1      29.561  43.806  54.995  1.00  0.00    -0.311 N 
HETATM   13  C   UNL     1      28.023  45.707  54.628  1.00  0.00     0.049 A 
HETATM   14  C   UNL     1      30.284  44.515  55.953  1.00  0.00     0.014 A 
HETATM   15  C   UNL     1      29.764  42.513  54.527  1.00  0.00     0.125 A 
HETATM   16  C   UNL     1      31.472  43.905  56.634  1.00  0.00     0.068 C 
HETATM   17  C   UNL     1      29.855  45.770  56.216  1.00  0.00     0.025 A 
HETATM   18  C   UNL     1      28.709  46.391  55.560  1.00  0.00     0.006 A 
ENDBRANCH   7   8
ENDBRANCH   1   7
BRANCH   3  19
HETATM   19  C   UNL     1      24.818  42.019  49.594  1.00  0.00     0.085 C 
HETATM   20  C   UNL     1      24.830  40.877  48.573  1.00  0.00     0.032 C 
BRANCH  19  21
HETATM   21  C   UNL     1      23.391  42.557  49.805  1.00  0.00     0.063 C 
BRANCH  21  22
HETATM   22  C   UNL     1      23.244  44.082  49.701  1.00  0.00     0.177 C 
BRANCH  22  23
HETATM   23  O   UNL     1      21.893  44.473  49.972  1.00  0.00    -0.389 OA
HETATM   24  H   UNL     1      21.652  44.018  50.799  1.00  0.00     0.210 HD
ENDBRANCH  22  23
BRANCH  22  25
HETATM   25  C   UNL     1      24.131  44.831  50.636  1.00  0.00     0.081 A 
HETATM   26  O   UNL     1      24.212  44.343  51.908  1.00  0.00    -0.324 OA
HETATM   27  C   UNL     1      25.046  45.161  52.600  1.00  0.00     0.142 A 
HETATM   28  C   UNL     1      25.512  46.169  51.789  1.00  0.00     0.027 A 
HETATM   29  C   UNL     1      24.924  45.957  50.519  1.00  0.00     0.037 A 
ENDBRANCH  22  25
ENDBRANCH  21  22
ENDBRANCH  19  21
ENDBRANCH   3  19
TORSDOF 7
ENDMDL
MODEL 7
REMARK VINA RESULT:      -7.8      3.184      8.037
REMARK  7 active torsions:
REMARK  status: ('A' for Active; 'I' for Inactive)
REMARK    1  A    between atoms: C_7  and  C_8 
REMARK    2  A    between atoms: C_8  and  N_9 
REMARK       I    between atoms: N_9  and  C_10 
REMARK       I    between atoms: C_10  and  N_11 
REMARK    3  A    between atoms: N_11  and  C_12 
REMARK    4  A    between atoms: C_12  and  C_13 
REMARK    5  A    between atoms: C_13  and  C_14 
REMARK    6  A    between atoms: C_14  and  O_15 
REMARK    7  A    between atoms: C_14  and  C_16 
ROOT
HETATM    1  N   UNL     1      23.516  44.524  50.562  1.00  0.00    -0.337 N 
HETATM    2  C   UNL     1      23.562  45.227  49.381  1.00  0.00     0.316 C 
HETATM    3  N   UNL     1      22.922  46.428  49.509  1.00  0.00    -0.339 N 
HETATM    4  O   UNL     1      24.104  44.804  48.368  1.00  0.00    -0.247 OA
HETATM    5  H   UNL     1      23.433  45.133  51.365  1.00  0.00     0.164 HD
HETATM    6  H   UNL     1      22.135  46.385  50.145  1.00  0.00     0.164 HD
ENDROOT
BRANCH   1   7
HETATM    7  C   UNL     1      24.310  43.326  50.757  1.00  0.00     0.183 C 
BRANCH   7   8
HETATM    8  C   UNL     1      25.406  43.549  51.733  1.00  0.00     0.044 A 
HETATM    9  N   UNL     1      26.336  42.568  52.045  1.00  0.00    -0.343 N 
HETATM   10  C   UNL     1      27.223  43.010  52.923  1.00  0.00     0.112 A 
HETATM   11  H   UNL     1      26.267  41.609  51.683  1.00  0.00     0.167 HD
HETATM   12  N   UNL     1      26.902  44.285  53.219  1.00  0.00    -0.311 N 
HETATM   13  C   UNL     1      28.388  42.334  53.536  1.00  0.00     0.049 A 
HETATM   14  C   UNL     1      27.634  45.048  54.128  1.00  0.00     0.014 A 
HETATM   15  C   UNL     1      25.773  44.639  52.490  1.00  0.00     0.125 A 
HETATM   16  C   UNL     1      27.236  46.456  54.453  1.00  0.00     0.068 C 
HETATM   17  C   UNL     1      28.702  44.442  54.694  1.00  0.00     0.025 A 
HETATM   18  C   UNL     1      29.104  43.069  54.404  1.00  0.00     0.006 A 
ENDBRANCH   7   8
ENDBRANCH   1   7
BRANCH   3  19
HETATM   19  C   UNL     1      22.707  47.369  48.409  1.00  0.00     0.085 C 
HETATM   20  C   UNL     1      21.438  47.064  47.608  1.00  0.00     0.032 C 
BRANCH  19  21
HETATM   21  C   UNL     1      22.727  48.836  48.875  1.00  0.00     0.063 C 
BRANCH  21  22
HETATM   22  C   UNL     1      23.764  49.729  48.179  1.00  0.00     0.177 C 
BRANCH  22  23
HETATM   23  O   UNL     1      23.509  51.109  48.466  1.00  0.00    -0.389 OA
HETATM   24  H   UNL     1      23.365  51.533  47.601  1.00  0.00     0.210 HD
ENDBRANCH  22  23
BRANCH  22  25
HETATM   25  C   UNL     1      25.169  49.434  48.579  1.00  0.00     0.081 A 
HETATM   26  O   UNL     1      25.330  48.515  49.575  1.00  0.00    -0.324 OA
HETATM   27  C   UNL     1      26.664  48.397  49.802  1.00  0.00     0.142 A 
HETATM   28  C   UNL     1      27.369  49.224  48.960  1.00  0.00     0.027 A 
HETATM   29  C   UNL     1      26.406  49.894  48.168  1.00  0.00     0.037 A 
ENDBRANCH  22  25
ENDBRANCH  21  22
ENDBRANCH  19  21
ENDBRANCH   3  19
TORSDOF 7
ENDMDL
MODEL 8
REMARK VINA RESULT:      -7.7      3.172      7.347
REMARK  7 active torsions:
REMARK  status: ('A' for Active; 'I' for Inactive)
REMARK    1  A    between atoms: C_7  and  C_8 
REMARK    2  A    between atoms: C_8  and  N_9 
REMARK       I    between atoms: N_9  and  C_10 
REMARK       I    between atoms: C_10  and  N_11 
REMARK    3  A    between atoms: N_11  and  C_12 
REMARK    4  A    between atoms: C_12  and  C_13 
REMARK    5  A    between atoms: C_13  and  C_14 
REMARK    6  A    between atoms: C_14  and  O_15 
REMARK    7  A    between atoms: C_14  and  C_16 
ROOT
HETATM    1  N   UNL     1      27.136  41.401  52.569  1.00  0.00    -0.337 N 
HETATM    2  C   UNL     1      27.036  41.799  51.256  1.00  0.00     0.316 C 
HETATM    3  N   UNL     1      25.770  42.228  50.977  1.00  0.00    -0.339 N 
HETATM    4  O   UNL     1      27.973  41.754  50.467  1.00  0.00    -0.247 OA
HETATM    5  H   UNL     1      26.465  41.872  53.161  1.00  0.00     0.164 HD
HETATM    6  H   UNL     1      25.063  41.728  51.501  1.00  0.00     0.164 HD
ENDROOT
BRANCH   1   7
HETATM    7  C   UNL     1      28.424  41.118  53.174  1.00  0.00     0.183 C 
BRANCH   7   8
HETATM    8  C   UNL     1      28.915  42.264  53.978  1.00  0.00     0.044 A 
HETATM    9  N   UNL     1      28.350  43.528  53.897  1.00  0.00    -0.343 N 
HETATM   10  C   UNL     1      28.946  44.375  54.723  1.00  0.00     0.112 A 
HETATM   11  H   UNL     1      27.618  43.761  53.214  1.00  0.00     0.167 HD
HETATM   12  N   UNL     1      29.920  43.700  55.364  1.00  0.00    -0.311 N 
HETATM   13  C   UNL     1      28.685  45.808  54.984  1.00  0.00     0.049 A 
HETATM   14  C   UNL     1      30.753  44.304  56.305  1.00  0.00     0.014 A 
HETATM   15  C   UNL     1      29.918  42.385  54.914  1.00  0.00     0.125 A 
HETATM   16  C   UNL     1      31.843  43.530  56.984  1.00  0.00     0.068 C 
HETATM   17  C   UNL     1      30.523  45.613  56.554  1.00  0.00     0.025 A 
HETATM   18  C   UNL     1      29.477  46.392  55.898  1.00  0.00     0.006 A 
ENDBRANCH   7   8
ENDBRANCH   1   7
BRANCH   3  19
HETATM   19  C   UNL     1      25.308  42.624  49.646  1.00  0.00     0.085 C 
HETATM   20  C   UNL     1      23.899  42.114  49.331  1.00  0.00     0.032 C 
BRANCH  19  21
HETATM   21  C   UNL     1      25.412  44.142  49.412  1.00  0.00     0.063 C 
BRANCH  21  22
HETATM   22  C   UNL     1      26.587  44.834  50.118  1.00  0.00     0.177 C 
BRANCH  22  23
HETATM   23  O   UNL     1      27.258  45.722  49.216  1.00  0.00    -0.389 OA
HETATM   24  H   UNL     1      28.078  45.986  49.672  1.00  0.00     0.210 HD
ENDBRANCH  22  23
BRANCH  22  25
HETATM   25  C   UNL     1      26.182  45.624  51.315  1.00  0.00     0.081 A 
HETATM   26  O   UNL     1      25.924  44.908  52.448  1.00  0.00    -0.324 OA
HETATM   27  C   UNL     1      25.561  45.794  53.410  1.00  0.00     0.142 A 
HETATM   28  C   UNL     1      25.587  47.077  52.916  1.00  0.00     0.027 A 
HETATM   29  C   UNL     1      25.989  46.970  51.563  1.00  0.00     0.037 A 
ENDBRANCH  22  25
ENDBRANCH  21  22
ENDBRANCH  19  21
ENDBRANCH   3  19
TORSDOF 7
ENDMDL
MODEL 9
REMARK VINA RESULT:      -7.6      3.460      7.455
REMARK  7 active torsions:
REMARK  status: ('A' for Active; 'I' for Inactive)
REMARK    1  A    between atoms: C_7  and  C_8 
REMARK    2  A    between atoms: C_8  and  N_9 
REMARK       I    between atoms: N_9  and  C_10 
REMARK       I    between atoms: C_10  and  N_11 
REMARK    3  A    between atoms: N_11  and  C_12 
REMARK    4  A    between atoms: C_12  and  C_13 
REMARK    5  A    between atoms: C_13  and  C_14 
REMARK    6  A    between atoms: C_14  and  O_15 
REMARK    7  A    between atoms: C_14  and  C_16 
ROOT
HETATM    1  N   UNL     1      25.608  46.249  52.072  1.00  0.00    -0.337 N 
HETATM    2  C   UNL     1      24.884  45.164  51.638  1.00  0.00     0.316 C 
HETATM    3  N   UNL     1      24.973  45.035  50.280  1.00  0.00    -0.339 N 
HETATM    4  O   UNL     1      24.250  44.434  52.391  1.00  0.00    -0.247 OA
HETATM    5  H   UNL     1      26.372  46.472  51.447  1.00  0.00     0.164 HD
HETATM    6  H   UNL     1      25.046  45.927  49.807  1.00  0.00     0.164 HD
ENDROOT
BRANCH   1   7
HETATM    7  C   UNL     1      25.860  46.471  53.482  1.00  0.00     0.183 C 
BRANCH   7   8
HETATM    8  C   UNL     1      27.080  45.759  53.939  1.00  0.00     0.044 A 
HETATM    9  N   UNL     1      27.818  46.175  55.038  1.00  0.00    -0.343 N 
HETATM   10  C   UNL     1      28.846  45.370  55.259  1.00  0.00     0.112 A 
HETATM   11  H   UNL     1      27.610  47.045  55.543  1.00  0.00     0.167 HD
HETATM   12  N   UNL     1      28.821  44.409  54.313  1.00  0.00    -0.311 N 
HETATM   13  C   UNL     1      29.890  45.409  56.306  1.00  0.00     0.049 A 
HETATM   14  C   UNL     1      29.778  43.398  54.250  1.00  0.00     0.014 A 
HETATM   15  C   UNL     1      27.730  44.635  53.482  1.00  0.00     0.125 A 
HETATM   16  C   UNL     1      29.734  42.358  53.171  1.00  0.00     0.068 C 
HETATM   17  C   UNL     1      30.737  43.422  55.203  1.00  0.00     0.025 A 
HETATM   18  C   UNL     1      30.808  44.429  56.256  1.00  0.00     0.006 A 
ENDBRANCH   7   8
ENDBRANCH   1   7
BRANCH   3  19
HETATM   19  C   UNL     1      24.239  44.042  49.496  1.00  0.00     0.085 C 
HETATM   20  C   UNL     1      23.497  44.656  48.306  1.00  0.00     0.032 C 
BRANCH  19  21
HETATM   21  C   UNL     1      25.129  42.868  49.047  1.00  0.00     0.063 C 
BRANCH  21  22
HETATM   22  C   UNL     1      26.288  42.526  49.996  1.00  0.00     0.177 C 
BRANCH  22  23
HETATM   23  O   UNL     1      25.785  41.984  51.223  1.00  0.00    -0.389 OA
HETATM   24  H   UNL     1      26.551  41.565  51.655  1.00  0.00     0.210 HD
ENDBRANCH  22  23
BRANCH  22  25
HETATM   25  C   UNL     1      27.253  41.543  49.427  1.00  0.00     0.081 A 
HETATM   26  O   UNL     1      27.553  41.693  48.103  1.00  0.00    -0.324 OA
HETATM   27  C   UNL     1      28.426  40.706  47.775  1.00  0.00     0.142 A 
HETATM   28  C   UNL     1      28.701  39.923  48.871  1.00  0.00     0.027 A 
HETATM   29  C   UNL     1      27.946  40.463  49.940  1.00  0.00     0.037 A 
ENDBRANCH  22  25
ENDBRANCH  21  22
ENDBRANCH  19  21
ENDBRANCH   3  19
TORSDOF 7
ENDMDL
MODEL 10
REMARK VINA RESULT:      -7.6      3.607      9.473
REMARK  7 active torsions:
REMARK  status: ('A' for Active; 'I' for Inactive)
REMARK    1  A    between atoms: C_7  and  C_8 
REMARK    2  A    between atoms: C_8  and  N_9 
REMARK       I    between atoms: N_9  and  C_10 
REMARK       I    between atoms: C_10  and  N_11 
REMARK    3  A    between atoms: N_11  and  C_12 
REMARK    4  A    between atoms: C_12  and  C_13 
REMARK    5  A    between atoms: C_13  and  C_14 
REMARK    6  A    between atoms: C_14  and  O_15 
REMARK    7  A    between atoms: C_14  and  C_16 
ROOT
HETATM    1  N   UNL     1      24.331  45.728  50.769  1.00  0.00    -0.337 N 
HETATM    2  C   UNL     1      23.780  45.978  49.534  1.00  0.00     0.316 C 
HETATM    3  N   UNL     1      23.232  47.229  49.494  1.00  0.00    -0.339 N 
HETATM    4  O   UNL     1      23.788  45.165  48.617  1.00  0.00    -0.247 OA
HETATM    5  H   UNL     1      24.618  46.577  51.237  1.00  0.00     0.164 HD
HETATM    6  H   UNL     1      22.846  47.515  50.386  1.00  0.00     0.164 HD
ENDROOT
BRANCH   1   7
HETATM    7  C   UNL     1      25.169  44.567  50.999  1.00  0.00     0.183 C 
BRANCH   7   8
HETATM    8  C   UNL     1      26.141  44.801  52.095  1.00  0.00     0.044 A 
HETATM    9  N   UNL     1      26.120  45.946  52.878  1.00  0.00    -0.343 N 
HETATM   10  C   UNL     1      27.070  45.915  53.800  1.00  0.00     0.112 A 
HETATM   11  H   UNL     1      25.486  46.731  52.687  1.00  0.00     0.167 HD
HETATM   12  N   UNL     1      27.746  44.759  53.649  1.00  0.00    -0.311 N 
HETATM   13  C   UNL     1      27.422  46.896  54.850  1.00  0.00     0.049 A 
HETATM   14  C   UNL     1      28.827  44.414  54.460  1.00  0.00     0.014 A 
HETATM   15  C   UNL     1      27.185  44.052  52.593  1.00  0.00     0.125 A 
HETATM   16  C   UNL     1      29.572  43.130  54.250  1.00  0.00     0.068 C 
HETATM   17  C   UNL     1      29.157  45.302  55.425  1.00  0.00     0.025 A 
HETATM   18  C   UNL     1      28.456  46.562  55.642  1.00  0.00     0.006 A 
ENDBRANCH   7   8
ENDBRANCH   1   7
BRANCH   3  19
HETATM   19  C   UNL     1      22.480  47.764  48.359  1.00  0.00     0.085 C 
HETATM   20  C   UNL     1      21.014  47.322  48.357  1.00  0.00     0.032 C 
BRANCH  19  21
HETATM   21  C   UNL     1      22.596  49.295  48.242  1.00  0.00     0.063 C 
BRANCH  21  22
HETATM   22  C   UNL     1      22.133  50.082  49.476  1.00  0.00     0.177 C 
BRANCH  22  23
HETATM   23  O   UNL     1      23.158  50.984  49.907  1.00  0.00    -0.389 OA
HETATM   24  H   UNL     1      23.675  50.493  50.571  1.00  0.00     0.210 HD
ENDBRANCH  22  23
BRANCH  22  25
HETATM   25  C   UNL     1      20.894  50.879  49.244  1.00  0.00     0.081 A 
HETATM   26  O   UNL     1      20.086  51.062  50.328  1.00  0.00    -0.324 OA
HETATM   27  C   UNL     1      19.017  51.790  49.914  1.00  0.00     0.142 A 
HETATM   28  C   UNL     1      19.126  52.085  48.576  1.00  0.00     0.027 A 
HETATM   29  C   UNL     1      20.339  51.499  48.141  1.00  0.00     0.037 A 
ENDBRANCH  22  25
ENDBRANCH  21  22
ENDBRANCH  19  21
ENDBRANCH   3  19
TORSDOF 7
ENDMDL
