MODEL 1
REMARK VINA RESULT:      -9.1      0.000      0.000
REMARK  4 active torsions:
REMARK  status: ('A' for Active; 'I' for Inactive)
REMARK    1  A    between atoms: C_5  and  N_6 
REMARK       I    between atoms: N_6  and  C_7 
REMARK       I    between atoms: C_7  and  N_8 
REMARK    2  A    between atoms: N_8  and  C_9 
REMARK    3  A    between atoms: C_9  and  C_10 
REMARK    4  A    between atoms: C_13  and  C_14 
ROOT
HETATM    1  N   UNL     1      22.996  48.581  49.536  1.00  0.00    -0.309 N 
HETATM    2  C   UNL     1      24.354  48.702  49.444  1.00  0.00     0.321 C 
HETATM    3  N   UNL     1      25.084  47.673  49.972  1.00  0.00    -0.335 N 
HETATM    4  O   UNL     1      24.977  49.635  48.947  1.00  0.00    -0.247 OA
HETATM    5  H   UNL     1      22.649  47.645  49.709  1.00  0.00     0.170 HD
HETATM    6  H   UNL     1      26.076  47.856  49.898  1.00  0.00     0.164 HD
ENDROOT
BRANCH   3   7
HETATM    7  C   UNL     1      24.658  46.650  50.913  1.00  0.00     0.213 C 
BRANCH   7   8
HETATM    8  C   UNL     1      25.518  46.639  52.122  1.00  0.00     0.190 A 
HETATM    9  O   UNL     1      25.290  47.589  53.071  1.00  0.00    -0.194 OA
HETATM   10  N   UNL     1      26.204  47.348  54.096  1.00  0.00    -0.106 NA
HETATM   11  C   UNL     1      26.906  46.288  53.661  1.00  0.00     0.189 A 
HETATM   12  N   UNL     1      26.481  45.802  52.441  1.00  0.00    -0.202 NA
BRANCH  11  13
HETATM   13  C   UNL     1      28.010  45.674  54.391  1.00  0.00     0.014 A 
HETATM   14  C   UNL     1      28.647  46.347  55.444  1.00  0.00     0.015 A 
HETATM   15  C   UNL     1      29.696  45.740  56.141  1.00  0.00     0.001 A 
HETATM   16  C   UNL     1      30.122  44.460  55.789  1.00  0.00     0.000 A 
HETATM   17  C   UNL     1      29.504  43.784  54.739  1.00  0.00     0.001 A 
HETATM   18  C   UNL     1      28.454  44.389  54.044  1.00  0.00     0.015 A 
ENDBRANCH  11  13
ENDBRANCH   7   8
ENDBRANCH   3   7
BRANCH   1  19
HETATM   19  C   UNL     1      22.013  49.507  49.135  1.00  0.00     0.036 A 
HETATM   20  C   UNL     1      21.478  49.576  47.849  1.00  0.00     0.030 A 
HETATM   21  C   UNL     1      20.484  50.514  47.545  1.00  0.00     0.009 A 
HETATM   22  C   UNL     1      20.024  51.410  48.516  1.00  0.00    -0.062 A 
HETATM   23  C   UNL     1      18.927  52.382  48.203  1.00  0.00     0.048 C 
HETATM   24  C   UNL     1      20.564  51.345  49.803  1.00  0.00     0.009 A 
HETATM   25  C   UNL     1      21.554  50.407  50.106  1.00  0.00     0.030 A 
ENDBRANCH   1  19
TORSDOF 4
ENDMDL
MODEL 2
REMARK VINA RESULT:      -9.0      1.727      9.952
REMARK  4 active torsions:
REMARK  status: ('A' for Active; 'I' for Inactive)
REMARK    1  A    between atoms: C_5  and  N_6 
REMARK       I    between atoms: N_6  and  C_7 
REMARK       I    between atoms: C_7  and  N_8 
REMARK    2  A    between atoms: N_8  and  C_9 
REMARK    3  A    between atoms: C_9  and  C_10 
REMARK    4  A    between atoms: C_13  and  C_14 
ROOT
HETATM    1  N   UNL     1      27.802  44.876  53.314  1.00  0.00    -0.309 N 
HETATM    2  C   UNL     1      26.453  44.975  53.501  1.00  0.00     0.321 C 
HETATM    3  N   UNL     1      25.719  45.318  52.400  1.00  0.00    -0.335 N 
HETATM    4  O   UNL     1      25.840  44.794  54.549  1.00  0.00    -0.247 OA
HETATM    5  H   UNL     1      28.107  44.776  52.353  1.00  0.00     0.170 HD
HETATM    6  H   UNL     1      24.738  45.407  52.629  1.00  0.00     0.164 HD
ENDROOT
BRANCH   3   7
HETATM    7  C   UNL     1      26.176  45.927  51.161  1.00  0.00     0.213 C 
BRANCH   7   8
HETATM    8  C   UNL     1      25.045  46.513  50.400  1.00  0.00     0.190 A 
HETATM    9  O   UNL     1      24.292  45.673  49.637  1.00  0.00    -0.194 OA
HETATM   10  N   UNL     1      23.298  46.458  49.052  1.00  0.00    -0.106 NA
HETATM   11  C   UNL     1      23.555  47.697  49.506  1.00  0.00     0.189 A 
HETATM   12  N   UNL     1      24.625  47.759  50.376  1.00  0.00    -0.202 NA
BRANCH  11  13
HETATM   13  C   UNL     1      22.787  48.883  49.144  1.00  0.00     0.014 A 
HETATM   14  C   UNL     1      21.386  48.857  49.107  1.00  0.00     0.015 A 
HETATM   15  C   UNL     1      20.665  50.006  48.770  1.00  0.00     0.001 A 
HETATM   16  C   UNL     1      21.336  51.189  48.462  1.00  0.00     0.000 A 
HETATM   17  C   UNL     1      22.728  51.226  48.488  1.00  0.00     0.001 A 
HETATM   18  C   UNL     1      23.450  50.079  48.826  1.00  0.00     0.015 A 
ENDBRANCH  11  13
ENDBRANCH   7   8
ENDBRANCH   3   7
BRANCH   1  19
HETATM   19  C   UNL     1      28.795  44.600  54.275  1.00  0.00     0.036 A 
HETATM   20  C   UNL     1      29.125  45.452  55.329  1.00  0.00     0.030 A 
HETATM   21  C   UNL     1      30.109  45.085  56.254  1.00  0.00     0.009 A 
HETATM   22  C   UNL     1      30.793  43.872  56.129  1.00  0.00    -0.062 A 
HETATM   23  C   UNL     1      31.813  43.458  57.147  1.00  0.00     0.048 C 
HETATM   24  C   UNL     1      30.467  43.020  55.070  1.00  0.00     0.009 A 
HETATM   25  C   UNL     1      29.482  43.385  54.149  1.00  0.00     0.030 A 
ENDBRANCH   1  19
TORSDOF 4
ENDMDL
MODEL 3
REMARK VINA RESULT:      -9.0      1.695      2.371
REMARK  4 active torsions:
REMARK  status: ('A' for Active; 'I' for Inactive)
REMARK    1  A    between atoms: C_5  and  N_6 
REMARK       I    between atoms: N_6  and  C_7 
REMARK       I    between atoms: C_7  and  N_8 
REMARK    2  A    between atoms: N_8  and  C_9 
REMARK    3  A    between atoms: C_9  and  C_10 
REMARK    4  A    between atoms: C_13  and  C_14 
ROOT
HETATM    1  N   UNL     1      21.684  49.180  49.546  1.00  0.00    -0.309 N 
HETATM    2  C   UNL     1      21.900  48.046  48.816  1.00  0.00     0.321 C 
HETATM    3  N   UNL     1      23.119  47.450  48.981  1.00  0.00    -0.335 N 
HETATM    4  O   UNL     1      21.118  47.518  48.030  1.00  0.00    -0.247 OA
HETATM    5  H   UNL     1      22.300  49.316  50.339  1.00  0.00     0.170 HD
HETATM    6  H   UNL     1      23.213  46.642  48.380  1.00  0.00     0.164 HD
ENDROOT
BRANCH   3   7
HETATM    7  C   UNL     1      24.336  48.017  49.538  1.00  0.00     0.213 C 
BRANCH   7   8
HETATM    8  C   UNL     1      24.853  47.188  50.655  1.00  0.00     0.190 A 
HETATM    9  O   UNL     1      24.360  45.926  50.789  1.00  0.00    -0.194 OA
HETATM   10  N   UNL     1      25.015  45.362  51.883  1.00  0.00    -0.106 NA
HETATM   11  C   UNL     1      25.829  46.341  52.314  1.00  0.00     0.189 A 
HETATM   12  N   UNL     1      25.773  47.487  51.546  1.00  0.00    -0.202 NA
BRANCH  11  13
HETATM   13  C   UNL     1      26.711  46.232  53.469  1.00  0.00     0.014 A 
HETATM   14  C   UNL     1      26.985  47.342  54.281  1.00  0.00     0.015 A 
HETATM   15  C   UNL     1      27.824  47.218  55.392  1.00  0.00     0.001 A 
HETATM   16  C   UNL     1      28.401  45.987  55.700  1.00  0.00     0.000 A 
HETATM   17  C   UNL     1      28.144  44.878  54.898  1.00  0.00     0.001 A 
HETATM   18  C   UNL     1      27.304  45.000  53.788  1.00  0.00     0.015 A 
ENDBRANCH  11  13
ENDBRANCH   7   8
ENDBRANCH   3   7
BRANCH   1  19
HETATM   19  C   UNL     1      20.555  50.023  49.529  1.00  0.00     0.036 A 
HETATM   20  C   UNL     1      19.365  49.755  50.206  1.00  0.00     0.030 A 
HETATM   21  C   UNL     1      18.302  50.662  50.153  1.00  0.00     0.009 A 
HETATM   22  C   UNL     1      18.402  51.842  49.407  1.00  0.00    -0.062 A 
HETATM   23  C   UNL     1      17.280  52.836  49.390  1.00  0.00     0.048 C 
HETATM   24  C   UNL     1      19.592  52.108  48.725  1.00  0.00     0.009 A 
HETATM   25  C   UNL     1      20.655  51.203  48.780  1.00  0.00     0.030 A 
ENDBRANCH   1  19
TORSDOF 4
ENDMDL
MODEL 4
REMARK VINA RESULT:      -8.7      2.851      9.501
REMARK  4 active torsions:
REMARK  status: ('A' for Active; 'I' for Inactive)
REMARK    1  A    between atoms: C_5  and  N_6 
REMARK       I    between atoms: N_6  and  C_7 
REMARK       I    between atoms: C_7  and  N_8 
REMARK    2  A    between atoms: N_8  and  C_9 
REMARK    3  A    between atoms: C_9  and  C_10 
REMARK    4  A    between atoms: C_13  and  C_14 
ROOT
HETATM    1  N   UNL     1      28.400  44.130  53.683  1.00  0.00    -0.309 N 
HETATM    2  C   UNL     1      28.658  43.482  52.509  1.00  0.00     0.321 C 
HETATM    3  N   UNL     1      27.647  43.485  51.589  1.00  0.00    -0.335 N 
HETATM    4  O   UNL     1      29.692  42.897  52.204  1.00  0.00    -0.247 OA
HETATM    5  H   UNL     1      27.629  44.787  53.663  1.00  0.00     0.170 HD
HETATM    6  H   UNL     1      27.902  42.954  50.766  1.00  0.00     0.164 HD
ENDROOT
BRANCH   3   7
HETATM    7  C   UNL     1      26.235  43.766  51.795  1.00  0.00     0.213 C 
BRANCH   7   8
HETATM    8  C   UNL     1      25.920  45.185  51.495  1.00  0.00     0.190 A 
HETATM    9  O   UNL     1      25.487  45.968  52.520  1.00  0.00    -0.194 OA
HETATM   10  N   UNL     1      25.284  47.240  51.985  1.00  0.00    -0.106 NA
HETATM   11  C   UNL     1      25.600  47.099  50.687  1.00  0.00     0.189 A 
HETATM   12  N   UNL     1      26.031  45.830  50.354  1.00  0.00    -0.202 NA
BRANCH  11  13
HETATM   13  C   UNL     1      25.520  48.168  49.697  1.00  0.00     0.014 A 
HETATM   14  C   UNL     1      26.676  48.793  49.210  1.00  0.00     0.015 A 
HETATM   15  C   UNL     1      26.584  49.808  48.253  1.00  0.00     0.001 A 
HETATM   16  C   UNL     1      25.336  50.211  47.778  1.00  0.00     0.000 A 
HETATM   17  C   UNL     1      24.179  49.603  48.260  1.00  0.00     0.001 A 
HETATM   18  C   UNL     1      24.271  48.588  49.215  1.00  0.00     0.015 A 
ENDBRANCH  11  13
ENDBRANCH   7   8
ENDBRANCH   3   7
BRANCH   1  19
HETATM   19  C   UNL     1      29.228  44.232  54.819  1.00  0.00     0.036 A 
HETATM   20  C   UNL     1      30.168  43.273  55.194  1.00  0.00     0.030 A 
HETATM   21  C   UNL     1      30.966  43.469  56.326  1.00  0.00     0.009 A 
HETATM   22  C   UNL     1      30.824  44.616  57.114  1.00  0.00    -0.062 A 
HETATM   23  C   UNL     1      31.712  44.848  58.299  1.00  0.00     0.048 C 
HETATM   24  C   UNL     1      29.878  45.575  56.742  1.00  0.00     0.009 A 
HETATM   25  C   UNL     1      29.083  45.380  55.609  1.00  0.00     0.030 A 
ENDBRANCH   1  19
TORSDOF 4
ENDMDL
MODEL 5
REMARK VINA RESULT:      -8.7      1.755      9.621
REMARK  4 active torsions:
REMARK  status: ('A' for Active; 'I' for Inactive)
REMARK    1  A    between atoms: C_5  and  N_6 
REMARK       I    between atoms: N_6  and  C_7 
REMARK       I    between atoms: C_7  and  N_8 
REMARK    2  A    between atoms: N_8  and  C_9 
REMARK    3  A    between atoms: C_9  and  C_10 
REMARK    4  A    between atoms: C_13  and  C_14 
ROOT
HETATM    1  N   UNL     1      26.813  44.068  52.362  1.00  0.00    -0.309 N 
HETATM    2  C   UNL     1      25.484  44.249  52.623  1.00  0.00     0.321 C 
HETATM    3  N   UNL     1      24.683  44.455  51.535  1.00  0.00    -0.335 N 
HETATM    4  O   UNL     1      24.945  44.252  53.726  1.00  0.00    -0.247 OA
HETATM    5  H   UNL     1      27.043  43.814  51.409  1.00  0.00     0.170 HD
HETATM    6  H   UNL     1      23.724  44.617  51.815  1.00  0.00     0.164 HD
ENDROOT
BRANCH   3   7
HETATM    7  C   UNL     1      25.066  44.853  50.190  1.00  0.00     0.213 C 
BRANCH   7   8
HETATM    8  C   UNL     1      24.658  46.251  49.906  1.00  0.00     0.190 A 
HETATM    9  O   UNL     1      25.551  47.241  50.184  1.00  0.00    -0.194 OA
HETATM   10  N   UNL     1      24.940  48.438  49.811  1.00  0.00    -0.106 NA
HETATM   11  C   UNL     1      23.733  48.058  49.360  1.00  0.00     0.189 A 
HETATM   12  N   UNL     1      23.537  46.692  49.378  1.00  0.00    -0.202 NA
BRANCH  11  13
HETATM   13  C   UNL     1      22.707  48.975  48.875  1.00  0.00     0.014 A 
HETATM   14  C   UNL     1      21.585  48.506  48.179  1.00  0.00     0.015 A 
HETATM   15  C   UNL     1      20.605  49.396  47.731  1.00  0.00     0.001 A 
HETATM   16  C   UNL     1      20.739  50.763  47.970  1.00  0.00     0.000 A 
HETATM   17  C   UNL     1      21.853  51.244  48.654  1.00  0.00     0.001 A 
HETATM   18  C   UNL     1      22.833  50.355  49.103  1.00  0.00     0.015 A 
ENDBRANCH  11  13
ENDBRANCH   7   8
ENDBRANCH   3   7
BRANCH   1  19
HETATM   19  C   UNL     1      27.864  43.898  53.285  1.00  0.00     0.036 A 
HETATM   20  C   UNL     1      28.643  42.745  53.383  1.00  0.00     0.030 A 
HETATM   21  C   UNL     1      29.685  42.673  54.314  1.00  0.00     0.009 A 
HETATM   22  C   UNL     1      29.952  43.741  55.176  1.00  0.00    -0.062 A 
HETATM   23  C   UNL     1      31.098  43.681  56.141  1.00  0.00     0.048 C 
HETATM   24  C   UNL     1      29.168  44.894  55.082  1.00  0.00     0.009 A 
HETATM   25  C   UNL     1      28.130  44.967  54.150  1.00  0.00     0.030 A 
ENDBRANCH   1  19
TORSDOF 4
ENDMDL
MODEL 6
REMARK VINA RESULT:      -8.4      1.808      9.943
REMARK  4 active torsions:
REMARK  status: ('A' for Active; 'I' for Inactive)
REMARK    1  A    between atoms: C_5  and  N_6 
REMARK       I    between atoms: N_6  and  C_7 
REMARK       I    between atoms: C_7  and  N_8 
REMARK    2  A    between atoms: N_8  and  C_9 
REMARK    3  A    between atoms: C_9  and  C_10 
REMARK    4  A    between atoms: C_13  and  C_14 
ROOT
HETATM    1  N   UNL     1      26.128  46.036  51.187  1.00  0.00    -0.309 N 
HETATM    2  C   UNL     1      26.363  46.524  49.933  1.00  0.00     0.321 C 
HETATM    3  N   UNL     1      25.378  47.310  49.403  1.00  0.00    -0.335 N 
HETATM    4  O   UNL     1      27.355  46.323  49.240  1.00  0.00    -0.247 OA
HETATM    5  H   UNL     1      25.412  46.517  51.720  1.00  0.00     0.170 HD
HETATM    6  H   UNL     1      25.611  47.599  48.461  1.00  0.00     0.164 HD
ENDROOT
BRANCH   3   7
HETATM    7  C   UNL     1      23.989  47.424  49.815  1.00  0.00     0.213 C 
BRANCH   7   8
HETATM    8  C   UNL     1      23.274  48.451  49.019  1.00  0.00     0.190 A 
HETATM    9  O   UNL     1      23.957  49.063  48.013  1.00  0.00    -0.194 OA
HETATM   10  N   UNL     1      23.066  49.955  47.417  1.00  0.00    -0.106 NA
HETATM   11  C   UNL     1      21.936  49.808  48.129  1.00  0.00     0.189 A 
HETATM   12  N   UNL     1      22.025  48.851  49.120  1.00  0.00    -0.202 NA
BRANCH  11  13
HETATM   13  C   UNL     1      20.709  50.560  47.894  1.00  0.00     0.014 A 
HETATM   14  C   UNL     1      19.827  50.207  46.862  1.00  0.00     0.015 A 
HETATM   15  C   UNL     1      18.649  50.931  46.658  1.00  0.00     0.001 A 
HETATM   16  C   UNL     1      18.343  52.017  47.477  1.00  0.00     0.000 A 
HETATM   17  C   UNL     1      19.214  52.383  48.500  1.00  0.00     0.001 A 
HETATM   18  C   UNL     1      20.391  51.659  48.707  1.00  0.00     0.015 A 
ENDBRANCH  11  13
ENDBRANCH   7   8
ENDBRANCH   3   7
BRANCH   1  19
HETATM   19  C   UNL     1      26.933  45.161  51.944  1.00  0.00     0.036 A 
HETATM   20  C   UNL     1      27.613  44.065  51.414  1.00  0.00     0.030 A 
HETATM   21  C   UNL     1      28.411  43.262  52.236  1.00  0.00     0.009 A 
HETATM   22  C   UNL     1      28.527  43.530  53.604  1.00  0.00    -0.062 A 
HETATM   23  C   UNL     1      29.421  42.699  54.475  1.00  0.00     0.048 C 
HETATM   24  C   UNL     1      27.842  44.625  54.137  1.00  0.00     0.009 A 
HETATM   25  C   UNL     1      27.047  45.428  53.314  1.00  0.00     0.030 A 
ENDBRANCH   1  19
TORSDOF 4
ENDMDL
MODEL 7
REMARK VINA RESULT:      -8.3      5.647      9.676
REMARK  4 active torsions:
REMARK  status: ('A' for Active; 'I' for Inactive)
REMARK    1  A    between atoms: C_5  and  N_6 
REMARK       I    between atoms: N_6  and  C_7 
REMARK       I    between atoms: C_7  and  N_8 
REMARK    2  A    between atoms: N_8  and  C_9 
REMARK    3  A    between atoms: C_9  and  C_10 
REMARK    4  A    between atoms: C_13  and  C_14 
ROOT
HETATM    1  N   UNL     1      27.954  44.104  53.491  1.00  0.00    -0.309 N 
HETATM    2  C   UNL     1      26.597  44.153  53.640  1.00  0.00     0.321 C 
HETATM    3  N   UNL     1      25.868  44.154  52.483  1.00  0.00    -0.335 N 
HETATM    4  O   UNL     1      25.974  44.203  54.696  1.00  0.00    -0.247 OA
HETATM    5  H   UNL     1      28.287  43.785  52.589  1.00  0.00     0.170 HD
HETATM    6  H   UNL     1      24.878  44.230  52.678  1.00  0.00     0.164 HD
ENDROOT
BRANCH   3   7
HETATM    7  C   UNL     1      26.312  44.458  51.133  1.00  0.00     0.213 C 
BRANCH   7   8
HETATM    8  C   UNL     1      26.716  43.227  50.410  1.00  0.00     0.190 A 
HETATM    9  O   UNL     1      26.868  43.306  49.059  1.00  0.00    -0.194 OA
HETATM   10  N   UNL     1      27.265  42.039  48.633  1.00  0.00    -0.106 NA
HETATM   11  C   UNL     1      27.300  41.313  49.763  1.00  0.00     0.189 A 
HETATM   12  N   UNL     1      26.990  42.036  50.897  1.00  0.00    -0.202 NA
BRANCH  11  13
HETATM   13  C   UNL     1      27.642  39.897  49.824  1.00  0.00     0.014 A 
HETATM   14  C   UNL     1      28.861  39.467  50.369  1.00  0.00     0.015 A 
HETATM   15  C   UNL     1      29.169  38.105  50.431  1.00  0.00     0.001 A 
HETATM   16  C   UNL     1      28.266  37.160  49.945  1.00  0.00     0.000 A 
HETATM   17  C   UNL     1      27.056  37.574  49.393  1.00  0.00     0.001 A 
HETATM   18  C   UNL     1      26.746  38.934  49.332  1.00  0.00     0.015 A 
ENDBRANCH  11  13
ENDBRANCH   7   8
ENDBRANCH   3   7
BRANCH   1  19
HETATM   19  C   UNL     1      28.940  44.152  54.497  1.00  0.00     0.036 A 
HETATM   20  C   UNL     1      29.156  45.247  55.333  1.00  0.00     0.030 A 
HETATM   21  C   UNL     1      30.143  45.197  56.323  1.00  0.00     0.009 A 
HETATM   22  C   UNL     1      30.945  44.062  56.480  1.00  0.00    -0.062 A 
HETATM   23  C   UNL     1      31.971  43.992  57.571  1.00  0.00     0.048 C 
HETATM   24  C   UNL     1      30.734  42.967  55.638  1.00  0.00     0.009 A 
HETATM   25  C   UNL     1      29.745  43.016  54.651  1.00  0.00     0.030 A 
ENDBRANCH   1  19
TORSDOF 4
ENDMDL
MODEL 8
REMARK VINA RESULT:      -8.2      2.125      2.671
REMARK  4 active torsions:
REMARK  status: ('A' for Active; 'I' for Inactive)
REMARK    1  A    between atoms: C_5  and  N_6 
REMARK       I    between atoms: N_6  and  C_7 
REMARK       I    between atoms: C_7  and  N_8 
REMARK    2  A    between atoms: N_8  and  C_9 
REMARK    3  A    between atoms: C_9  and  C_10 
REMARK    4  A    between atoms: C_13  and  C_14 
ROOT
HETATM    1  N   UNL     1      21.732  49.164  49.062  1.00  0.00    -0.309 N 
HETATM    2  C   UNL     1      23.066  49.362  49.281  1.00  0.00     0.321 C 
HETATM    3  N   UNL     1      23.859  48.253  49.186  1.00  0.00    -0.335 N 
HETATM    4  O   UNL     1      23.616  50.423  49.558  1.00  0.00    -0.247 OA
HETATM    5  H   UNL     1      21.488  48.310  48.575  1.00  0.00     0.170 HD
HETATM    6  H   UNL     1      24.823  48.476  49.398  1.00  0.00     0.164 HD
ENDROOT
BRANCH   3   7
HETATM    7  C   UNL     1      23.468  46.853  49.232  1.00  0.00     0.213 C 
BRANCH   7   8
HETATM    8  C   UNL     1      24.553  46.010  49.792  1.00  0.00     0.190 A 
HETATM    9  O   UNL     1      25.323  45.305  48.917  1.00  0.00    -0.194 OA
HETATM   10  N   UNL     1      26.266  44.623  49.685  1.00  0.00    -0.106 NA
HETATM   11  C   UNL     1      25.967  44.968  50.949  1.00  0.00     0.189 A 
HETATM   12  N   UNL     1      24.917  45.860  51.047  1.00  0.00    -0.202 NA
BRANCH  11  13
HETATM   13  C   UNL     1      26.672  44.478  52.128  1.00  0.00     0.014 A 
HETATM   14  C   UNL     1      26.050  44.446  53.384  1.00  0.00     0.015 A 
HETATM   15  C   UNL     1      26.735  43.963  54.502  1.00  0.00     0.001 A 
HETATM   16  C   UNL     1      28.048  43.512  54.377  1.00  0.00     0.000 A 
HETATM   17  C   UNL     1      28.681  43.546  53.137  1.00  0.00     0.001 A 
HETATM   18  C   UNL     1      27.996  44.027  52.018  1.00  0.00     0.015 A 
ENDBRANCH  11  13
ENDBRANCH   7   8
ENDBRANCH   3   7
BRANCH   1  19
HETATM   19  C   UNL     1      20.687  50.106  49.153  1.00  0.00     0.036 A 
HETATM   20  C   UNL     1      20.628  51.286  48.412  1.00  0.00     0.030 A 
HETATM   21  C   UNL     1      19.538  52.153  48.549  1.00  0.00     0.009 A 
HETATM   22  C   UNL     1      18.502  51.866  49.443  1.00  0.00    -0.062 A 
HETATM   23  C   UNL     1      17.312  52.771  49.553  1.00  0.00     0.048 C 
HETATM   24  C   UNL     1      18.563  50.687  50.189  1.00  0.00     0.009 A 
HETATM   25  C   UNL     1      19.650  49.820  50.051  1.00  0.00     0.030 A 
ENDBRANCH   1  19
TORSDOF 4
ENDMDL
MODEL 9
REMARK VINA RESULT:      -8.1      7.713     10.117
REMARK  4 active torsions:
REMARK  status: ('A' for Active; 'I' for Inactive)
REMARK    1  A    between atoms: C_5  and  N_6 
REMARK       I    between atoms: N_6  and  C_7 
REMARK       I    between atoms: C_7  and  N_8 
REMARK    2  A    between atoms: N_8  and  C_9 
REMARK    3  A    between atoms: C_9  and  C_10 
REMARK    4  A    between atoms: C_13  and  C_14 
ROOT
HETATM    1  N   UNL     1      27.959  39.189  49.989  1.00  0.00    -0.309 N 
HETATM    2  C   UNL     1      28.920  39.230  50.959  1.00  0.00     0.321 C 
HETATM    3  N   UNL     1      28.926  40.346  51.748  1.00  0.00    -0.335 N 
HETATM    4  O   UNL     1      29.773  38.378  51.185  1.00  0.00    -0.247 OA
HETATM    5  H   UNL     1      27.176  39.819  50.118  1.00  0.00     0.170 HD
HETATM    6  H   UNL     1      29.688  40.317  52.413  1.00  0.00     0.164 HD
ENDROOT
BRANCH   3   7
HETATM    7  C   UNL     1      28.302  41.635  51.499  1.00  0.00     0.213 C 
BRANCH   7   8
HETATM    8  C   UNL     1      28.617  42.603  52.580  1.00  0.00     0.190 A 
HETATM    9  O   UNL     1      28.028  43.829  52.524  1.00  0.00    -0.194 OA
HETATM   10  N   UNL     1      28.466  44.528  53.648  1.00  0.00    -0.106 NA
HETATM   11  C   UNL     1      29.288  43.663  54.267  1.00  0.00     0.189 A 
HETATM   12  N   UNL     1      29.380  42.437  53.638  1.00  0.00    -0.202 NA
BRANCH  11  13
HETATM   13  C   UNL     1      30.019  43.954  55.495  1.00  0.00     0.014 A 
HETATM   14  C   UNL     1      30.970  43.057  56.003  1.00  0.00     0.015 A 
HETATM   15  C   UNL     1      31.670  43.356  57.175  1.00  0.00     0.001 A 
HETATM   16  C   UNL     1      31.425  44.549  57.853  1.00  0.00     0.000 A 
HETATM   17  C   UNL     1      30.477  45.445  57.363  1.00  0.00     0.001 A 
HETATM   18  C   UNL     1      29.778  45.148  56.191  1.00  0.00     0.015 A 
ENDBRANCH  11  13
ENDBRANCH   7   8
ENDBRANCH   3   7
BRANCH   1  19
HETATM   19  C   UNL     1      27.759  38.200  49.005  1.00  0.00     0.036 A 
HETATM   20  C   UNL     1      28.469  38.130  47.807  1.00  0.00     0.030 A 
HETATM   21  C   UNL     1      28.221  37.097  46.896  1.00  0.00     0.009 A 
HETATM   22  C   UNL     1      27.247  36.128  47.159  1.00  0.00    -0.062 A 
HETATM   23  C   UNL     1      27.015  34.995  46.206  1.00  0.00     0.048 C 
HETATM   24  C   UNL     1      26.531  36.201  48.357  1.00  0.00     0.009 A 
HETATM   25  C   UNL     1      26.781  37.231  49.267  1.00  0.00     0.030 A 
ENDBRANCH   1  19
TORSDOF 4
ENDMDL
MODEL 10
REMARK VINA RESULT:      -8.1      4.610      7.953
REMARK  4 active torsions:
REMARK  status: ('A' for Active; 'I' for Inactive)
REMARK    1  A    between atoms: C_5  and  N_6 
REMARK       I    between atoms: N_6  and  C_7 
REMARK       I    between atoms: C_7  and  N_8 
REMARK    2  A    between atoms: N_8  and  C_9 
REMARK    3  A    between atoms: C_9  and  C_10 
REMARK    4  A    between atoms: C_13  and  C_14 
ROOT
HETATM    1  N   UNL     1      26.474  42.745  48.939  1.00  0.00    -0.309 N 
HETATM    2  C   UNL     1      25.113  42.856  48.888  1.00  0.00     0.321 C 
HETATM    3  N   UNL     1      24.610  44.121  49.015  1.00  0.00    -0.335 N 
HETATM    4  O   UNL     1      24.306  41.943  48.748  1.00  0.00    -0.247 OA
HETATM    5  H   UNL     1      26.991  43.600  48.774  1.00  0.00     0.170 HD
HETATM    6  H   UNL     1      23.599  44.113  49.005  1.00  0.00     0.164 HD
ENDROOT
BRANCH   3   7
HETATM    7  C   UNL     1      25.266  45.308  49.537  1.00  0.00     0.213 C 
BRANCH   7   8
HETATM    8  C   UNL     1      25.885  45.044  50.860  1.00  0.00     0.190 A 
HETATM    9  O   UNL     1      25.121  45.244  51.968  1.00  0.00    -0.194 OA
HETATM   10  N   UNL     1      25.918  44.909  53.062  1.00  0.00    -0.106 NA
HETATM   11  C   UNL     1      27.091  44.553  52.511  1.00  0.00     0.189 A 
HETATM   12  N   UNL     1      27.093  44.598  51.131  1.00  0.00    -0.202 NA
BRANCH  11  13
HETATM   13  C   UNL     1      28.267  44.140  53.267  1.00  0.00     0.014 A 
HETATM   14  C   UNL     1      28.543  44.679  54.532  1.00  0.00     0.015 A 
HETATM   15  C   UNL     1      29.668  44.264  55.250  1.00  0.00     0.001 A 
HETATM   16  C   UNL     1      30.531  43.311  54.710  1.00  0.00     0.000 A 
HETATM   17  C   UNL     1      30.273  42.773  53.451  1.00  0.00     0.001 A 
HETATM   18  C   UNL     1      29.148  43.186  52.733  1.00  0.00     0.015 A 
ENDBRANCH  11  13
ENDBRANCH   7   8
ENDBRANCH   3   7
BRANCH   1  19
HETATM   19  C   UNL     1      27.252  41.571  48.897  1.00  0.00     0.036 A 
HETATM   20  C   UNL     1      27.647  40.934  47.721  1.00  0.00     0.030 A 
HETATM   21  C   UNL     1      28.442  39.784  47.772  1.00  0.00     0.009 A 
HETATM   22  C   UNL     1      28.837  39.240  48.999  1.00  0.00    -0.062 A 
HETATM   23  C   UNL     1      29.729  38.035  49.052  1.00  0.00     0.048 C 
HETATM   24  C   UNL     1      28.437  39.875  50.177  1.00  0.00     0.009 A 
HETATM   25  C   UNL     1      27.645  41.025  50.126  1.00  0.00     0.030 A 
ENDBRANCH   1  19
TORSDOF 4
ENDMDL
