MODEL 1
REMARK VINA RESULT:      -7.5      0.000      0.000
REMARK  6 active torsions:
REMARK  status: ('A' for Active; 'I' for Inactive)
REMARK    1  A    between atoms: C_2  and  C_3 
REMARK    2  A    between atoms: C_3  and  N_4 
REMARK    3  A    between atoms: C_3  and  C_15 
REMARK       I    between atoms: N_4  and  C_5 
REMARK    4  A    between atoms: C_5  and  C_6 
REMARK    5  A    between atoms: C_6  and  C_7 
REMARK    6  A    between atoms: C_16  and  O_17 
ROOT
HETATM    1  C   UNL     1      26.545  43.962  51.722  1.00  0.00     0.128 C 
ENDROOT
BRANCH   1   2
HETATM    2  C   UNL     1      26.120  42.722  50.843  1.00  0.00    -0.026 C 
HETATM    3  C   UNL     1      26.630  41.379  51.399  1.00  0.00     0.016 C 
HETATM    4  C   UNL     1      26.680  42.878  49.411  1.00  0.00     0.016 C 
HETATM    5  C   UNL     1      24.582  42.646  50.721  1.00  0.00     0.016 C 
ENDBRANCH   1   2
BRANCH   1   6
HETATM    6  N   UNL     1      26.745  45.177  50.922  1.00  0.00    -0.351 N 
HETATM    7  C   UNL     1      26.124  46.378  51.201  1.00  0.00     0.222 C 
HETATM    8  O   UNL     1      25.294  46.521  52.092  1.00  0.00    -0.273 OA
HETATM    9  H   UNL     1      27.390  45.133  50.148  1.00  0.00     0.163 HD
BRANCH   7  10
HETATM   10  C   UNL     1      26.548  47.495  50.258  1.00  0.00     0.142 C 
BRANCH  10  11
HETATM   11  C   UNL     1      25.442  48.197  49.509  1.00  0.00    -0.032 A 
HETATM   12  C   UNL     1      24.110  47.794  49.583  1.00  0.00     0.126 A 
HETATM   13  N   UNL     1      23.083  48.446  48.987  1.00  0.00    -0.248 NA
HETATM   14  C   UNL     1      23.401  49.547  48.281  1.00  0.00     0.125 A 
HETATM   15 CL   UNL     1      22.070  50.337  47.543  1.00  0.00    -0.063 Cl
HETATM   16  C   UNL     1      24.684  50.046  48.149  1.00  0.00     0.045 A 
HETATM   17  C   UNL     1      25.717  49.361  48.781  1.00  0.00     0.012 A 
ENDBRANCH  10  11
ENDBRANCH   7  10
ENDBRANCH   1   6
BRANCH   1  18
HETATM   18  C   UNL     1      27.774  43.735  52.614  1.00  0.00    -0.001 A 
HETATM   19  C   UNL     1      27.738  44.056  53.990  1.00  0.00     0.076 A 
HETATM   20  C   UNL     1      28.872  43.846  54.786  1.00  0.00     0.037 A 
HETATM   21  C   UNL     1      30.042  43.322  54.236  1.00  0.00     0.003 A 
HETATM   22  C   UNL     1      30.091  43.000  52.887  1.00  0.00     0.001 A 
HETATM   23  C   UNL     1      28.968  43.203  52.083  1.00  0.00     0.012 A 
BRANCH  19  24
HETATM   24  O   UNL     1      26.551  44.547  54.467  1.00  0.00    -0.355 OA
HETATM   25  C   UNL     1      25.649  43.631  55.075  1.00  0.00     0.210 C 
ENDBRANCH  19  24
ENDBRANCH   1  18
TORSDOF 6
ENDMDL
MODEL 2
REMARK VINA RESULT:      -7.4     11.570     13.295
REMARK  6 active torsions:
REMARK  status: ('A' for Active; 'I' for Inactive)
REMARK    1  A    between atoms: C_2  and  C_3 
REMARK    2  A    between atoms: C_3  and  N_4 
REMARK    3  A    between atoms: C_3  and  C_15 
REMARK       I    between atoms: N_4  and  C_5 
REMARK    4  A    between atoms: C_5  and  C_6 
REMARK    5  A    between atoms: C_6  and  C_7 
REMARK    6  A    between atoms: C_16  and  O_17 
ROOT
HETATM    1  C   UNL     1      33.228  50.511  40.659  1.00  0.00     0.128 C 
ENDROOT
BRANCH   1   2
HETATM    2  C   UNL     1      33.371  51.578  39.506  1.00  0.00    -0.026 C 
HETATM    3  C   UNL     1      32.887  52.983  39.913  1.00  0.00     0.016 C 
HETATM    4  C   UNL     1      32.544  51.137  38.277  1.00  0.00     0.016 C 
HETATM    5  C   UNL     1      34.842  51.686  39.046  1.00  0.00     0.016 C 
ENDBRANCH   1   2
BRANCH   1   6
HETATM    6  N   UNL     1      32.242  49.469  40.342  1.00  0.00    -0.351 N 
HETATM    7  C   UNL     1      32.385  48.150  40.725  1.00  0.00     0.222 C 
HETATM    8  O   UNL     1      33.378  47.714  41.296  1.00  0.00    -0.273 OA
HETATM    9  H   UNL     1      31.409  49.743  39.844  1.00  0.00     0.163 HD
BRANCH   7  10
HETATM   10  C   UNL     1      31.195  47.289  40.326  1.00  0.00     0.142 C 
BRANCH  10  11
HETATM   11  C   UNL     1      29.888  48.010  40.108  1.00  0.00    -0.032 A 
HETATM   12  C   UNL     1      29.494  48.497  38.863  1.00  0.00     0.126 A 
HETATM   13  N   UNL     1      28.297  49.079  38.616  1.00  0.00    -0.248 NA
HETATM   14  C   UNL     1      27.456  49.185  39.661  1.00  0.00     0.125 A 
HETATM   15 CL   UNL     1      25.954  49.931  39.302  1.00  0.00    -0.063 Cl
HETATM   16  C   UNL     1      27.733  48.729  40.936  1.00  0.00     0.045 A 
HETATM   17  C   UNL     1      28.967  48.125  41.158  1.00  0.00     0.012 A 
ENDBRANCH  10  11
ENDBRANCH   7  10
ENDBRANCH   1   6
BRANCH   1  18
HETATM   18  C   UNL     1      32.923  51.091  42.048  1.00  0.00    -0.001 A 
HETATM   19  C   UNL     1      31.597  51.392  42.431  1.00  0.00     0.076 A 
HETATM   20  C   UNL     1      31.340  51.925  43.701  1.00  0.00     0.037 A 
HETATM   21  C   UNL     1      32.382  52.166  44.596  1.00  0.00     0.003 A 
HETATM   22  C   UNL     1      33.690  51.873  44.234  1.00  0.00     0.001 A 
HETATM   23  C   UNL     1      33.958  51.340  42.973  1.00  0.00     0.012 A 
BRANCH  19  24
HETATM   24  O   UNL     1      30.621  51.111  41.510  1.00  0.00    -0.355 OA
HETATM   25  C   UNL     1      29.527  52.012  41.405  1.00  0.00     0.210 C 
ENDBRANCH  19  24
ENDBRANCH   1  18
TORSDOF 6
ENDMDL
MODEL 3
REMARK VINA RESULT:      -7.3     11.345     14.115
REMARK  6 active torsions:
REMARK  status: ('A' for Active; 'I' for Inactive)
REMARK    1  A    between atoms: C_2  and  C_3 
REMARK    2  A    between atoms: C_3  and  N_4 
REMARK    3  A    between atoms: C_3  and  C_15 
REMARK       I    between atoms: N_4  and  C_5 
REMARK    4  A    between atoms: C_5  and  C_6 
REMARK    5  A    between atoms: C_6  and  C_7 
REMARK    6  A    between atoms: C_16  and  O_17 
ROOT
HETATM    1  C   UNL     1      28.907  51.187  40.169  1.00  0.00     0.128 C 
ENDROOT
BRANCH   1   2
HETATM    2  C   UNL     1      29.555  52.351  39.323  1.00  0.00    -0.026 C 
HETATM    3  C   UNL     1      28.924  52.511  37.927  1.00  0.00     0.016 C 
HETATM    4  C   UNL     1      31.064  52.078  39.125  1.00  0.00     0.016 C 
HETATM    5  C   UNL     1      29.433  53.697  40.069  1.00  0.00     0.016 C 
ENDBRANCH   1   2
BRANCH   1   6
HETATM    6  N   UNL     1      29.906  50.406  40.910  1.00  0.00    -0.351 N 
HETATM    7  C   UNL     1      29.585  49.559  41.952  1.00  0.00     0.222 C 
HETATM    8  O   UNL     1      28.451  49.439  42.403  1.00  0.00    -0.273 OA
HETATM    9  H   UNL     1      30.870  50.475  40.620  1.00  0.00     0.163 HD
BRANCH   7  10
HETATM   10  C   UNL     1      30.795  48.822  42.507  1.00  0.00     0.142 C 
BRANCH  10  11
HETATM   11  C   UNL     1      32.084  49.604  42.573  1.00  0.00    -0.032 A 
HETATM   12  C   UNL     1      33.162  49.353  41.726  1.00  0.00     0.126 A 
HETATM   13  N   UNL     1      34.301  50.083  41.705  1.00  0.00    -0.248 NA
HETATM   14  C   UNL     1      34.371  51.110  42.573  1.00  0.00     0.125 A 
HETATM   15 CL   UNL     1      35.832  52.005  42.513  1.00  0.00    -0.063 Cl
HETATM   16  C   UNL     1      33.361  51.460  43.450  1.00  0.00     0.045 A 
HETATM   17  C   UNL     1      32.198  50.697  43.442  1.00  0.00     0.012 A 
ENDBRANCH  10  11
ENDBRANCH   7  10
ENDBRANCH   1   6
BRANCH   1  18
HETATM   18  C   UNL     1      28.003  50.232  39.376  1.00  0.00    -0.001 A 
HETATM   19  C   UNL     1      28.559  49.216  38.567  1.00  0.00     0.076 A 
HETATM   20  C   UNL     1      27.717  48.357  37.847  1.00  0.00     0.037 A 
HETATM   21  C   UNL     1      26.331  48.494  37.918  1.00  0.00     0.003 A 
HETATM   22  C   UNL     1      25.771  49.487  38.711  1.00  0.00     0.001 A 
HETATM   23  C   UNL     1      26.599  50.347  39.434  1.00  0.00     0.012 A 
BRANCH  19  24
HETATM   24  O   UNL     1      29.926  49.126  38.560  1.00  0.00    -0.355 OA
HETATM   25  C   UNL     1      30.509  47.841  38.735  1.00  0.00     0.210 C 
ENDBRANCH  19  24
ENDBRANCH   1  18
TORSDOF 6
ENDMDL
MODEL 4
REMARK VINA RESULT:      -7.2     11.044     13.105
REMARK  6 active torsions:
REMARK  status: ('A' for Active; 'I' for Inactive)
REMARK    1  A    between atoms: C_2  and  C_3 
REMARK    2  A    between atoms: C_3  and  N_4 
REMARK    3  A    between atoms: C_3  and  C_15 
REMARK       I    between atoms: N_4  and  C_5 
REMARK    4  A    between atoms: C_5  and  C_6 
REMARK    5  A    between atoms: C_6  and  C_7 
REMARK    6  A    between atoms: C_16  and  O_17 
ROOT
HETATM    1  C   UNL     1      29.711  51.284  40.228  1.00  0.00     0.128 C 
ENDROOT
BRANCH   1   2
HETATM    2  C   UNL     1      29.365  52.620  40.994  1.00  0.00    -0.026 C 
HETATM    3  C   UNL     1      30.228  52.842  42.251  1.00  0.00     0.016 C 
HETATM    4  C   UNL     1      27.886  52.600  41.440  1.00  0.00     0.016 C 
HETATM    5  C   UNL     1      29.541  53.840  40.063  1.00  0.00     0.016 C 
ENDBRANCH   1   2
BRANCH   1   6
HETATM    6  N   UNL     1      28.512  50.526  39.849  1.00  0.00    -0.351 N 
HETATM    7  C   UNL     1      28.198  50.209  38.543  1.00  0.00     0.222 C 
HETATM    8  O   UNL     1      28.848  50.595  37.577  1.00  0.00    -0.273 OA
HETATM    9  H   UNL     1      27.906  50.200  40.587  1.00  0.00     0.163 HD
BRANCH   7  10
HETATM   10  C   UNL     1      26.937  49.366  38.427  1.00  0.00     0.142 C 
BRANCH  10  11
HETATM   11  C   UNL     1      26.761  48.279  39.459  1.00  0.00    -0.032 A 
HETATM   12  C   UNL     1      25.584  48.116  40.189  1.00  0.00     0.126 A 
HETATM   13  N   UNL     1      25.365  47.108  41.065  1.00  0.00    -0.248 NA
HETATM   14  C   UNL     1      26.366  46.222  41.223  1.00  0.00     0.125 A 
HETATM   15 CL   UNL     1      26.043  44.965  42.343  1.00  0.00    -0.063 Cl
HETATM   16  C   UNL     1      27.570  46.276  40.545  1.00  0.00     0.045 A 
HETATM   17  C   UNL     1      27.764  47.318  39.644  1.00  0.00     0.012 A 
ENDBRANCH  10  11
ENDBRANCH   7  10
ENDBRANCH   1   6
BRANCH   1  18
HETATM   18  C   UNL     1      30.691  50.352  40.957  1.00  0.00    -0.001 A 
HETATM   19  C   UNL     1      32.054  50.304  40.587  1.00  0.00     0.076 A 
HETATM   20  C   UNL     1      32.931  49.444  41.261  1.00  0.00     0.037 A 
HETATM   21  C   UNL     1      32.473  48.629  42.297  1.00  0.00     0.003 A 
HETATM   22  C   UNL     1      31.137  48.668  42.672  1.00  0.00     0.001 A 
HETATM   23  C   UNL     1      30.254  49.522  42.010  1.00  0.00     0.012 A 
BRANCH  19  24
HETATM   24  O   UNL     1      32.438  51.146  39.576  1.00  0.00    -0.355 OA
HETATM   25  C   UNL     1      33.288  52.237  39.906  1.00  0.00     0.210 C 
ENDBRANCH  19  24
ENDBRANCH   1  18
TORSDOF 6
ENDMDL
MODEL 5
REMARK VINA RESULT:      -7.2     11.501     13.302
REMARK  6 active torsions:
REMARK  status: ('A' for Active; 'I' for Inactive)
REMARK    1  A    between atoms: C_2  and  C_3 
REMARK    2  A    between atoms: C_3  and  N_4 
REMARK    3  A    between atoms: C_3  and  C_15 
REMARK       I    between atoms: N_4  and  C_5 
REMARK    4  A    between atoms: C_5  and  C_6 
REMARK    5  A    between atoms: C_6  and  C_7 
REMARK    6  A    between atoms: C_16  and  O_17 
ROOT
HETATM    1  C   UNL     1      30.814  51.346  40.471  1.00  0.00     0.128 C 
ENDROOT
BRANCH   1   2
HETATM    2  C   UNL     1      29.819  52.568  40.379  1.00  0.00    -0.026 C 
HETATM    3  C   UNL     1      28.640  52.468  41.366  1.00  0.00     0.016 C 
HETATM    4  C   UNL     1      29.229  52.657  38.953  1.00  0.00     0.016 C 
HETATM    5  C   UNL     1      30.564  53.895  40.644  1.00  0.00     0.016 C 
ENDBRANCH   1   2
BRANCH   1   6
HETATM    6  N   UNL     1      30.116  50.057  40.555  1.00  0.00    -0.351 N 
HETATM    7  C   UNL     1      30.181  49.095  39.567  1.00  0.00     0.222 C 
HETATM    8  O   UNL     1      30.762  49.257  38.500  1.00  0.00    -0.273 OA
HETATM    9  H   UNL     1      29.587  49.859  41.391  1.00  0.00     0.163 HD
BRANCH   7  10
HETATM   10  C   UNL     1      29.420  47.827  39.927  1.00  0.00     0.142 C 
BRANCH  10  11
HETATM   11  C   UNL     1      27.913  47.914  39.882  1.00  0.00    -0.032 A 
HETATM   12  C   UNL     1      27.095  47.294  40.823  1.00  0.00     0.126 A 
HETATM   13  N   UNL     1      25.747  47.415  40.858  1.00  0.00    -0.248 NA
HETATM   14  C   UNL     1      25.189  48.187  39.906  1.00  0.00     0.125 A 
HETATM   15 CL   UNL     1      23.481  48.308  39.988  1.00  0.00    -0.063 Cl
HETATM   16  C   UNL     1      25.902  48.859  38.931  1.00  0.00     0.045 A 
HETATM   17  C   UNL     1      27.287  48.724  38.926  1.00  0.00     0.012 A 
ENDBRANCH  10  11
ENDBRANCH   7  10
ENDBRANCH   1   6
BRANCH   1  18
HETATM   18  C   UNL     1      31.851  51.436  41.600  1.00  0.00    -0.001 A 
HETATM   19  C   UNL     1      33.233  51.485  41.310  1.00  0.00     0.076 A 
HETATM   20  C   UNL     1      34.164  51.562  42.355  1.00  0.00     0.037 A 
HETATM   21  C   UNL     1      33.742  51.590  43.684  1.00  0.00     0.003 A 
HETATM   22  C   UNL     1      32.387  51.545  43.984  1.00  0.00     0.001 A 
HETATM   23  C   UNL     1      31.450  51.470  42.952  1.00  0.00     0.012 A 
BRANCH  19  24
HETATM   24  O   UNL     1      33.575  51.474  39.983  1.00  0.00    -0.355 OA
HETATM   25  C   UNL     1      34.167  52.647  39.440  1.00  0.00     0.210 C 
ENDBRANCH  19  24
ENDBRANCH   1  18
TORSDOF 6
ENDMDL
MODEL 6
REMARK VINA RESULT:      -7.1      4.322      8.976
REMARK  6 active torsions:
REMARK  status: ('A' for Active; 'I' for Inactive)
REMARK    1  A    between atoms: C_2  and  C_3 
REMARK    2  A    between atoms: C_3  and  N_4 
REMARK    3  A    between atoms: C_3  and  C_15 
REMARK       I    between atoms: N_4  and  C_5 
REMARK    4  A    between atoms: C_5  and  C_6 
REMARK    5  A    between atoms: C_6  and  C_7 
REMARK    6  A    between atoms: C_16  and  O_17 
ROOT
HETATM    1  C   UNL     1      20.527  48.796  47.829  1.00  0.00     0.128 C 
ENDROOT
BRANCH   1   2
HETATM    2  C   UNL     1      19.577  47.582  47.492  1.00  0.00    -0.026 C 
HETATM    3  C   UNL     1      19.713  46.410  48.483  1.00  0.00     0.016 C 
HETATM    4  C   UNL     1      19.900  47.040  46.081  1.00  0.00     0.016 C 
HETATM    5  C   UNL     1      18.101  48.036  47.475  1.00  0.00     0.016 C 
ENDBRANCH   1   2
BRANCH   1   6
HETATM    6  N   UNL     1      21.581  48.437  48.787  1.00  0.00    -0.351 N 
HETATM    7  C   UNL     1      22.917  48.724  48.586  1.00  0.00     0.222 C 
HETATM    8  O   UNL     1      23.353  49.234  47.560  1.00  0.00    -0.273 OA
HETATM    9  H   UNL     1      21.306  47.984  49.645  1.00  0.00     0.163 HD
BRANCH   7  10
HETATM   10  C   UNL     1      23.793  48.302  49.756  1.00  0.00     0.142 C 
BRANCH  10  11
HETATM   11  C   UNL     1      24.526  46.991  49.605  1.00  0.00    -0.032 A 
HETATM   12  C   UNL     1      25.916  46.895  49.657  1.00  0.00     0.126 A 
HETATM   13  N   UNL     1      26.601  45.729  49.604  1.00  0.00    -0.248 NA
HETATM   14  C   UNL     1      25.867  44.607  49.489  1.00  0.00     0.125 A 
HETATM   15 CL   UNL     1      26.777  43.155  49.422  1.00  0.00    -0.063 Cl
HETATM   16  C   UNL     1      24.485  44.580  49.440  1.00  0.00     0.045 A 
HETATM   17  C   UNL     1      23.807  45.793  49.507  1.00  0.00     0.012 A 
ENDBRANCH  10  11
ENDBRANCH   7  10
ENDBRANCH   1   6
BRANCH   1  18
HETATM   18  C   UNL     1      19.812  50.065  48.314  1.00  0.00    -0.001 A 
HETATM   19  C   UNL     1      19.361  50.176  49.649  1.00  0.00     0.076 A 
HETATM   20  C   UNL     1      18.706  51.341  50.071  1.00  0.00     0.037 A 
HETATM   21  C   UNL     1      18.492  52.398  49.186  1.00  0.00     0.003 A 
HETATM   22  C   UNL     1      18.932  52.303  47.872  1.00  0.00     0.001 A 
HETATM   23  C   UNL     1      19.586  51.150  47.441  1.00  0.00     0.012 A 
BRANCH  19  24
HETATM   24  O   UNL     1      19.623  49.109  50.468  1.00  0.00    -0.355 OA
HETATM   25  C   UNL     1      18.560  48.606  51.267  1.00  0.00     0.210 C 
ENDBRANCH  19  24
ENDBRANCH   1  18
TORSDOF 6
ENDMDL
MODEL 7
REMARK VINA RESULT:      -7.1      5.116      8.106
REMARK  6 active torsions:
REMARK  status: ('A' for Active; 'I' for Inactive)
REMARK    1  A    between atoms: C_2  and  C_3 
REMARK    2  A    between atoms: C_3  and  N_4 
REMARK    3  A    between atoms: C_3  and  C_15 
REMARK       I    between atoms: N_4  and  C_5 
REMARK    4  A    between atoms: C_5  and  C_6 
REMARK    5  A    between atoms: C_6  and  C_7 
REMARK    6  A    between atoms: C_16  and  O_17 
ROOT
HETATM    1  C   UNL     1      26.282  42.143  49.044  1.00  0.00     0.128 C 
ENDROOT
BRANCH   1   2
HETATM    2  C   UNL     1      24.721  42.368  49.057  1.00  0.00    -0.026 C 
HETATM    3  C   UNL     1      24.155  42.629  50.466  1.00  0.00     0.016 C 
HETATM    4  C   UNL     1      24.006  41.120  48.490  1.00  0.00     0.016 C 
HETATM    5  C   UNL     1      24.337  43.559  48.151  1.00  0.00     0.016 C 
ENDBRANCH   1   2
BRANCH   1   6
HETATM    6  N   UNL     1      26.654  40.805  48.565  1.00  0.00    -0.351 N 
HETATM    7  C   UNL     1      27.644  40.584  47.629  1.00  0.00     0.222 C 
HETATM    8  O   UNL     1      28.250  41.484  47.057  1.00  0.00    -0.273 OA
HETATM    9  H   UNL     1      26.177  40.011  48.964  1.00  0.00     0.163 HD
BRANCH   7  10
HETATM   10  C   UNL     1      27.875  39.106  47.352  1.00  0.00     0.142 C 
BRANCH  10  11
HETATM   11  C   UNL     1      28.408  38.284  48.500  1.00  0.00    -0.032 A 
HETATM   12  C   UNL     1      29.705  38.428  48.991  1.00  0.00     0.126 A 
HETATM   13  N   UNL     1      30.190  37.764  50.066  1.00  0.00    -0.248 NA
HETATM   14  C   UNL     1      29.344  36.914  50.678  1.00  0.00     0.125 A 
HETATM   15 CL   UNL     1      30.003  36.095  52.032  1.00  0.00    -0.063 Cl
HETATM   16  C   UNL     1      28.035  36.700  50.287  1.00  0.00     0.045 A 
HETATM   17  C   UNL     1      27.561  37.403  49.185  1.00  0.00     0.012 A 
ENDBRANCH  10  11
ENDBRANCH   7  10
ENDBRANCH   1   6
BRANCH   1  18
HETATM   18  C   UNL     1      26.989  42.418  50.379  1.00  0.00    -0.001 A 
HETATM   19  C   UNL     1      27.496  43.702  50.677  1.00  0.00     0.076 A 
HETATM   20  C   UNL     1      28.143  43.932  51.899  1.00  0.00     0.037 A 
HETATM   21  C   UNL     1      28.294  42.903  52.829  1.00  0.00     0.003 A 
HETATM   22  C   UNL     1      27.799  41.637  52.550  1.00  0.00     0.001 A 
HETATM   23  C   UNL     1      27.152  41.396  51.338  1.00  0.00     0.012 A 
BRANCH  19  24
HETATM   24  O   UNL     1      27.294  44.670  49.728  1.00  0.00    -0.355 OA
HETATM   25  C   UNL     1      26.571  45.834  50.107  1.00  0.00     0.210 C 
ENDBRANCH  19  24
ENDBRANCH   1  18
TORSDOF 6
ENDMDL
MODEL 8
REMARK VINA RESULT:      -7.1      5.368     10.774
REMARK  6 active torsions:
REMARK  status: ('A' for Active; 'I' for Inactive)
REMARK    1  A    between atoms: C_2  and  C_3 
REMARK    2  A    between atoms: C_3  and  N_4 
REMARK    3  A    between atoms: C_3  and  C_15 
REMARK       I    between atoms: N_4  and  C_5 
REMARK    4  A    between atoms: C_5  and  C_6 
REMARK    5  A    between atoms: C_6  and  C_7 
REMARK    6  A    between atoms: C_16  and  O_17 
ROOT
HETATM    1  C   UNL     1      18.983  50.013  47.914  1.00  0.00     0.128 C 
ENDROOT
BRANCH   1   2
HETATM    2  C   UNL     1      19.449  51.294  48.709  1.00  0.00    -0.026 C 
HETATM    3  C   UNL     1      18.782  52.592  48.217  1.00  0.00     0.016 C 
HETATM    4  C   UNL     1      20.978  51.471  48.566  1.00  0.00     0.016 C 
HETATM    5  C   UNL     1      19.151  51.135  50.216  1.00  0.00     0.016 C 
ENDBRANCH   1   2
BRANCH   1   6
HETATM    6  N   UNL     1      20.087  49.083  47.647  1.00  0.00    -0.351 N 
HETATM    7  C   UNL     1      20.231  47.873  48.296  1.00  0.00     0.222 C 
HETATM    8  O   UNL     1      19.496  47.499  49.204  1.00  0.00    -0.273 OA
HETATM    9  H   UNL     1      20.755  49.334  46.934  1.00  0.00     0.163 HD
BRANCH   7  10
HETATM   10  C   UNL     1      21.422  47.071  47.792  1.00  0.00     0.142 C 
BRANCH  10  11
HETATM   11  C   UNL     1      22.655  47.084  48.663  1.00  0.00    -0.032 A 
HETATM   12  C   UNL     1      23.170  48.252  49.223  1.00  0.00     0.126 A 
HETATM   13  N   UNL     1      24.226  48.289  50.069  1.00  0.00    -0.248 NA
HETATM   14  C   UNL     1      24.798  47.108  50.367  1.00  0.00     0.125 A 
HETATM   15 CL   UNL     1      26.132  47.205  51.439  1.00  0.00    -0.063 Cl
HETATM   16  C   UNL     1      24.366  45.887  49.881  1.00  0.00     0.045 A 
HETATM   17  C   UNL     1      23.272  45.879  49.021  1.00  0.00     0.012 A 
ENDBRANCH  10  11
ENDBRANCH   7  10
ENDBRANCH   1   6
BRANCH   1  18
HETATM   18  C   UNL     1      18.233  50.299  46.604  1.00  0.00    -0.001 A 
HETATM   19  C   UNL     1      16.820  50.316  46.569  1.00  0.00     0.076 A 
HETATM   20  C   UNL     1      16.154  50.574  45.363  1.00  0.00     0.037 A 
HETATM   21  C   UNL     1      16.872  50.815  44.191  1.00  0.00     0.003 A 
HETATM   22  C   UNL     1      18.260  50.803  44.212  1.00  0.00     0.001 A 
HETATM   23  C   UNL     1      18.934  50.549  45.407  1.00  0.00     0.012 A 
BRANCH  19  24
HETATM   24  O   UNL     1      16.181  50.092  47.760  1.00  0.00    -0.355 OA
HETATM   25  C   UNL     1      15.448  48.883  47.906  1.00  0.00     0.210 C 
ENDBRANCH  19  24
ENDBRANCH   1  18
TORSDOF 6
ENDMDL
MODEL 9
REMARK VINA RESULT:      -7.0     18.042     19.735
REMARK  6 active torsions:
REMARK  status: ('A' for Active; 'I' for Inactive)
REMARK    1  A    between atoms: C_2  and  C_3 
REMARK    2  A    between atoms: C_3  and  N_4 
REMARK    3  A    between atoms: C_3  and  C_15 
REMARK       I    between atoms: N_4  and  C_5 
REMARK    4  A    between atoms: C_5  and  C_6 
REMARK    5  A    between atoms: C_6  and  C_7 
REMARK    6  A    between atoms: C_16  and  O_17 
ROOT
HETATM    1  C   UNL     1      37.914  45.456  65.436  1.00  0.00     0.128 C 
ENDROOT
BRANCH   1   2
HETATM    2  C   UNL     1      37.928  44.882  66.906  1.00  0.00    -0.026 C 
HETATM    3  C   UNL     1      38.349  45.923  67.960  1.00  0.00     0.016 C 
HETATM    4  C   UNL     1      38.917  43.698  66.997  1.00  0.00     0.016 C 
HETATM    5  C   UNL     1      36.534  44.338  67.289  1.00  0.00     0.016 C 
ENDBRANCH   1   2
BRANCH   1   6
HETATM    6  N   UNL     1      38.709  44.642  64.506  1.00  0.00    -0.351 N 
HETATM    7  C   UNL     1      38.151  43.735  63.627  1.00  0.00     0.222 C 
HETATM    8  O   UNL     1      36.954  43.472  63.593  1.00  0.00    -0.273 OA
HETATM    9  H   UNL     1      39.708  44.777  64.496  1.00  0.00     0.163 HD
BRANCH   7  10
HETATM   10  C   UNL     1      39.186  43.069  62.733  1.00  0.00     0.142 C 
BRANCH  10  11
HETATM   11  C   UNL     1      39.663  41.702  63.162  1.00  0.00    -0.032 A 
HETATM   12  C   UNL     1      40.437  41.499  64.303  1.00  0.00     0.126 A 
HETATM   13  N   UNL     1      40.816  40.281  64.758  1.00  0.00    -0.248 NA
HETATM   14  C   UNL     1      40.407  39.219  64.040  1.00  0.00     0.125 A 
HETATM   15 CL   UNL     1      40.912  37.699  64.654  1.00  0.00    -0.063 Cl
HETATM   16  C   UNL     1      39.627  39.299  62.902  1.00  0.00     0.045 A 
HETATM   17  C   UNL     1      39.245  40.563  62.462  1.00  0.00     0.012 A 
ENDBRANCH  10  11
ENDBRANCH   7  10
ENDBRANCH   1   6
BRANCH   1  18
HETATM   18  C   UNL     1      38.334  46.927  65.308  1.00  0.00    -0.001 A 
HETATM   19  C   UNL     1      37.368  47.958  65.311  1.00  0.00     0.076 A 
HETATM   20  C   UNL     1      37.771  49.294  65.189  1.00  0.00     0.037 A 
HETATM   21  C   UNL     1      39.121  49.622  65.063  1.00  0.00     0.003 A 
HETATM   22  C   UNL     1      40.081  48.620  65.060  1.00  0.00     0.001 A 
HETATM   23  C   UNL     1      39.693  47.286  65.183  1.00  0.00     0.012 A 
BRANCH  19  24
HETATM   24  O   UNL     1      36.063  47.566  65.459  1.00  0.00    -0.355 OA
HETATM   25  C   UNL     1      35.437  47.799  66.714  1.00  0.00     0.210 C 
ENDBRANCH  19  24
ENDBRANCH   1  18
TORSDOF 6
ENDMDL
MODEL 10
REMARK VINA RESULT:      -6.9      5.962     10.470
REMARK  6 active torsions:
REMARK  status: ('A' for Active; 'I' for Inactive)
REMARK    1  A    between atoms: C_2  and  C_3 
REMARK    2  A    between atoms: C_3  and  N_4 
REMARK    3  A    between atoms: C_3  and  C_15 
REMARK       I    between atoms: N_4  and  C_5 
REMARK    4  A    between atoms: C_5  and  C_6 
REMARK    5  A    between atoms: C_6  and  C_7 
REMARK    6  A    between atoms: C_16  and  O_17 
ROOT
HETATM    1  C   UNL     1      18.694  49.575  48.553  1.00  0.00     0.128 C 
ENDROOT
BRANCH   1   2
HETATM    2  C   UNL     1      18.437  48.250  49.371  1.00  0.00    -0.026 C 
HETATM    3  C   UNL     1      19.400  47.107  48.997  1.00  0.00     0.016 C 
HETATM    4  C   UNL     1      16.997  47.748  49.116  1.00  0.00     0.016 C 
HETATM    5  C   UNL     1      18.562  48.515  50.887  1.00  0.00     0.016 C 
ENDBRANCH   1   2
BRANCH   1   6
HETATM    6  N   UNL     1      19.990  50.189  48.869  1.00  0.00    -0.351 N 
HETATM    7  C   UNL     1      20.950  50.466  47.916  1.00  0.00     0.222 C 
HETATM    8  O   UNL     1      20.840  50.158  46.735  1.00  0.00    -0.273 OA
HETATM    9  H   UNL     1      20.171  50.443  49.829  1.00  0.00     0.163 HD
BRANCH   7  10
HETATM   10  C   UNL     1      22.174  51.158  48.496  1.00  0.00     0.142 C 
BRANCH  10  11
HETATM   11  C   UNL     1      23.363  50.277  48.796  1.00  0.00    -0.032 A 
HETATM   12  C   UNL     1      23.271  49.131  49.583  1.00  0.00     0.126 A 
HETATM   13  N   UNL     1      24.297  48.277  49.809  1.00  0.00    -0.248 NA
HETATM   14  C   UNL     1      25.471  48.584  49.226  1.00  0.00     0.125 A 
HETATM   15 CL   UNL     1      26.742  47.477  49.542  1.00  0.00    -0.063 Cl
HETATM   16  C   UNL     1      25.676  49.686  48.417  1.00  0.00     0.045 A 
HETATM   17  C   UNL     1      24.600  50.540  48.195  1.00  0.00     0.012 A 
ENDBRANCH  10  11
ENDBRANCH   7  10
ENDBRANCH   1   6
BRANCH   1  18
HETATM   18  C   UNL     1      17.589  50.635  48.669  1.00  0.00    -0.001 A 
HETATM   19  C   UNL     1      16.672  50.842  47.613  1.00  0.00     0.076 A 
HETATM   20  C   UNL     1      15.674  51.817  47.736  1.00  0.00     0.037 A 
HETATM   21  C   UNL     1      15.573  52.591  48.892  1.00  0.00     0.003 A 
HETATM   22  C   UNL     1      16.466  52.397  49.938  1.00  0.00     0.001 A 
HETATM   23  C   UNL     1      17.463  51.428  49.828  1.00  0.00     0.012 A 
BRANCH  19  24
HETATM   24  O   UNL     1      16.817  50.032  46.517  1.00  0.00    -0.355 OA
HETATM   25  C   UNL     1      17.469  50.570  45.374  1.00  0.00     0.210 C 
ENDBRANCH  19  24
ENDBRANCH   1  18
TORSDOF 6
ENDMDL
