MODEL 1
REMARK VINA RESULT:      -7.8      0.000      0.000
REMARK  5 active torsions:
REMARK  status: ('A' for Active; 'I' for Inactive)
REMARK    1  A    between atoms: C_2  and  O_3 
REMARK    2  A    between atoms: O_3  and  C_4 
REMARK    3  A    between atoms: C_8  and  C_9 
REMARK    4  A    between atoms: C_9  and  N_10 
REMARK       I    between atoms: N_10  and  C_11 
REMARK    5  A    between atoms: C_11  and  C_12 
ROOT
HETATM    1  C   UNL     1      25.728  45.003  51.610  1.00  0.00     0.161 C 
ENDROOT
BRANCH   1   2
HETATM    2  C   UNL     1      25.699  46.268  50.801  1.00  0.00    -0.035 A 
HETATM    3  C   UNL     1      26.838  46.721  50.131  1.00  0.00     0.028 A 
HETATM    4  C   UNL     1      26.757  47.908  49.419  1.00  0.00     0.120 A 
HETATM    5  N   UNL     1      25.640  48.660  49.333  1.00  0.00    -0.237 NA
HETATM    6  C   UNL     1      24.552  48.212  49.984  1.00  0.00     0.165 A 
HETATM    7  C   UNL     1      24.537  47.040  50.728  1.00  0.00     0.066 A 
BRANCH   6   8
HETATM    8  O   UNL     1      23.363  48.901  49.935  1.00  0.00    -0.324 OA
BRANCH   8   9
HETATM    9  C   UNL     1      22.590  48.938  48.722  1.00  0.00     0.058 C 
HETATM   10  C   UNL     1      22.491  47.571  48.031  1.00  0.00     0.045 C 
HETATM   11  C   UNL     1      23.055  50.045  47.767  1.00  0.00     0.045 C 
HETATM   12  C   UNL     1      21.174  49.310  49.207  1.00  0.00     0.045 C 
ENDBRANCH   8   9
ENDBRANCH   6   8
ENDBRANCH   1   2
BRANCH   1  13
HETATM   13  N   UNL     1      26.935  44.915  52.395  1.00  0.00    -0.353 N 
HETATM   14  C   UNL     1      26.886  44.511  53.709  1.00  0.00     0.255 C 
HETATM   15  O   UNL     1      25.855  44.222  54.302  1.00  0.00    -0.268 OA
HETATM   16  H   UNL     1      27.816  45.165  51.966  1.00  0.00     0.163 HD
BRANCH  14  17
HETATM   17  C   UNL     1      28.186  44.421  54.401  1.00  0.00     0.075 A 
HETATM   18  C   UNL     1      28.695  45.510  55.123  1.00  0.00     0.051 A 
HETATM   19 CL   UNL     1      27.868  47.024  55.241  1.00  0.00    -0.083 Cl
HETATM   20  C   UNL     1      29.914  45.394  55.800  1.00  0.00     0.025 A 
HETATM   21  C   UNL     1      30.626  44.196  55.770  1.00  0.00     0.003 A 
HETATM   22  C   UNL     1      30.122  43.110  55.055  1.00  0.00     0.025 A 
HETATM   23  C   UNL     1      28.906  43.218  54.371  1.00  0.00     0.051 A 
HETATM   24 CL   UNL     1      28.390  41.840  53.463  1.00  0.00    -0.083 Cl
ENDBRANCH  14  17
ENDBRANCH   1  13
TORSDOF 5
ENDMDL
MODEL 2
REMARK VINA RESULT:      -7.8      3.131      4.865
REMARK  5 active torsions:
REMARK  status: ('A' for Active; 'I' for Inactive)
REMARK    1  A    between atoms: C_2  and  O_3 
REMARK    2  A    between atoms: O_3  and  C_4 
REMARK    3  A    between atoms: C_8  and  C_9 
REMARK    4  A    between atoms: C_9  and  N_10 
REMARK       I    between atoms: N_10  and  C_11 
REMARK    5  A    between atoms: C_11  and  C_12 
ROOT
HETATM    1  C   UNL     1      26.270  45.741  54.285  1.00  0.00     0.161 C 
ENDROOT
BRANCH   1   2
HETATM    2  C   UNL     1      26.392  45.674  52.789  1.00  0.00    -0.035 A 
HETATM    3  C   UNL     1      26.054  46.768  51.989  1.00  0.00     0.028 A 
HETATM    4  C   UNL     1      26.167  46.639  50.614  1.00  0.00     0.120 A 
HETATM    5  N   UNL     1      26.583  45.516  49.993  1.00  0.00    -0.237 NA
HETATM    6  C   UNL     1      26.904  44.471  50.776  1.00  0.00     0.165 A 
HETATM    7  C   UNL     1      26.818  44.501  52.161  1.00  0.00     0.066 A 
BRANCH   6   8
HETATM    8  O   UNL     1      27.359  43.292  50.234  1.00  0.00    -0.324 OA
BRANCH   8   9
HETATM    9  C   UNL     1      26.474  42.166  50.087  1.00  0.00     0.058 C 
HETATM   10  C   UNL     1      24.992  42.565  50.077  1.00  0.00     0.045 C 
HETATM   11  C   UNL     1      26.775  41.052  51.098  1.00  0.00     0.045 C 
HETATM   12  C   UNL     1      26.811  41.622  48.684  1.00  0.00     0.045 C 
ENDBRANCH   8   9
ENDBRANCH   6   8
ENDBRANCH   1   2
BRANCH   1  13
HETATM   13  N   UNL     1      27.367  45.058  54.927  1.00  0.00    -0.353 N 
HETATM   14  C   UNL     1      28.545  45.720  55.188  1.00  0.00     0.255 C 
HETATM   15  O   UNL     1      28.757  46.888  54.893  1.00  0.00    -0.268 OA
HETATM   16  H   UNL     1      27.259  44.083  55.172  1.00  0.00     0.163 HD
BRANCH  14  17
HETATM   17  C   UNL     1      29.581  44.933  55.883  1.00  0.00     0.075 A 
HETATM   18  C   UNL     1      30.240  43.878  55.236  1.00  0.00     0.051 A 
HETATM   19 CL   UNL     1      29.883  43.407  53.611  1.00  0.00    -0.083 Cl
HETATM   20  C   UNL     1      31.244  43.164  55.900  1.00  0.00     0.025 A 
HETATM   21  C   UNL     1      31.603  43.502  57.204  1.00  0.00     0.003 A 
HETATM   22  C   UNL     1      30.952  44.552  57.850  1.00  0.00     0.025 A 
HETATM   23  C   UNL     1      29.943  45.268  57.196  1.00  0.00     0.051 A 
HETATM   24 CL   UNL     1      29.152  46.514  58.097  1.00  0.00    -0.083 Cl
ENDBRANCH  14  17
ENDBRANCH   1  13
TORSDOF 5
ENDMDL
MODEL 3
REMARK VINA RESULT:      -7.7      1.355      2.655
REMARK  5 active torsions:
REMARK  status: ('A' for Active; 'I' for Inactive)
REMARK    1  A    between atoms: C_2  and  O_3 
REMARK    2  A    between atoms: O_3  and  C_4 
REMARK    3  A    between atoms: C_8  and  C_9 
REMARK    4  A    between atoms: C_9  and  N_10 
REMARK       I    between atoms: N_10  and  C_11 
REMARK    5  A    between atoms: C_11  and  C_12 
ROOT
HETATM    1  C   UNL     1      24.854  45.915  50.925  1.00  0.00     0.161 C 
ENDROOT
BRANCH   1   2
HETATM    2  C   UNL     1      24.871  47.128  50.040  1.00  0.00    -0.035 A 
HETATM    3  C   UNL     1      26.030  47.893  49.889  1.00  0.00     0.028 A 
HETATM    4  C   UNL     1      25.979  49.015  49.076  1.00  0.00     0.120 A 
HETATM    5  N   UNL     1      24.872  49.420  48.419  1.00  0.00    -0.237 NA
HETATM    6  C   UNL     1      23.764  48.674  48.575  1.00  0.00     0.165 A 
HETATM    7  C   UNL     1      23.715  47.538  49.372  1.00  0.00     0.066 A 
BRANCH   6   8
HETATM    8  O   UNL     1      22.595  48.996  47.927  1.00  0.00    -0.324 OA
BRANCH   8   9
HETATM    9  C   UNL     1      21.535  49.675  48.625  1.00  0.00     0.058 C 
HETATM   10  C   UNL     1      22.049  50.696  49.650  1.00  0.00     0.045 C 
HETATM   11  C   UNL     1      20.517  48.699  49.231  1.00  0.00     0.045 C 
HETATM   12  C   UNL     1      20.816  50.464  47.513  1.00  0.00     0.045 C 
ENDBRANCH   8   9
ENDBRANCH   6   8
ENDBRANCH   1   2
BRANCH   1  13
HETATM   13  N   UNL     1      25.936  45.952  51.879  1.00  0.00    -0.353 N 
HETATM   14  C   UNL     1      25.829  45.292  53.082  1.00  0.00     0.255 C 
HETATM   15  O   UNL     1      24.843  44.659  53.434  1.00  0.00    -0.268 OA
HETATM   16  H   UNL     1      26.768  46.480  51.654  1.00  0.00     0.163 HD
BRANCH  14  17
HETATM   17  C   UNL     1      27.012  45.368  53.961  1.00  0.00     0.075 A 
HETATM   18  C   UNL     1      27.922  44.305  54.038  1.00  0.00     0.051 A 
HETATM   19 CL   UNL     1      27.725  42.838  53.145  1.00  0.00    -0.083 Cl
HETATM   20  C   UNL     1      29.055  44.409  54.852  1.00  0.00     0.025 A 
HETATM   21  C   UNL     1      29.292  45.572  55.585  1.00  0.00     0.003 A 
HETATM   22  C   UNL     1      28.391  46.632  55.508  1.00  0.00     0.025 A 
HETATM   23  C   UNL     1      27.252  46.535  54.701  1.00  0.00     0.051 A 
HETATM   24 CL   UNL     1      26.162  47.877  54.716  1.00  0.00    -0.083 Cl
ENDBRANCH  14  17
ENDBRANCH   1  13
TORSDOF 5
ENDMDL
MODEL 4
REMARK VINA RESULT:      -7.7      2.574      4.082
REMARK  5 active torsions:
REMARK  status: ('A' for Active; 'I' for Inactive)
REMARK    1  A    between atoms: C_2  and  O_3 
REMARK    2  A    between atoms: O_3  and  C_4 
REMARK    3  A    between atoms: C_8  and  C_9 
REMARK    4  A    between atoms: C_9  and  N_10 
REMARK       I    between atoms: N_10  and  C_11 
REMARK    5  A    between atoms: C_11  and  C_12 
ROOT
HETATM    1  C   UNL     1      26.101  46.439  53.505  1.00  0.00     0.161 C 
ENDROOT
BRANCH   1   2
HETATM    2  C   UNL     1      26.099  46.215  52.020  1.00  0.00    -0.035 A 
HETATM    3  C   UNL     1      25.552  47.162  51.150  1.00  0.00     0.028 A 
HETATM    4  C   UNL     1      25.559  46.890  49.791  1.00  0.00     0.120 A 
HETATM    5  N   UNL     1      26.061  45.761  49.250  1.00  0.00    -0.237 NA
HETATM    6  C   UNL     1      26.583  44.858  50.100  1.00  0.00     0.165 A 
HETATM    7  C   UNL     1      26.616  45.037  51.476  1.00  0.00     0.066 A 
BRANCH   6   8
HETATM    8  O   UNL     1      27.137  43.688  49.638  1.00  0.00    -0.324 OA
BRANCH   8   9
HETATM    9  C   UNL     1      26.369  42.471  49.626  1.00  0.00     0.058 C 
HETATM   10  C   UNL     1      24.892  42.697  49.275  1.00  0.00     0.045 C 
HETATM   11  C   UNL     1      26.547  41.655  50.913  1.00  0.00     0.045 C 
HETATM   12  C   UNL     1      26.995  41.660  48.473  1.00  0.00     0.045 C 
ENDBRANCH   8   9
ENDBRANCH   6   8
ENDBRANCH   1   2
BRANCH   1  13
HETATM   13  N   UNL     1      27.370  46.072  54.084  1.00  0.00    -0.353 N 
HETATM   14  C   UNL     1      27.490  44.927  54.838  1.00  0.00     0.255 C 
HETATM   15  O   UNL     1      26.565  44.166  55.083  1.00  0.00    -0.268 OA
HETATM   16  H   UNL     1      28.168  46.676  53.936  1.00  0.00     0.163 HD
BRANCH  14  17
HETATM   17  C   UNL     1      28.844  44.633  55.346  1.00  0.00     0.075 A 
HETATM   18  C   UNL     1      29.338  45.273  56.492  1.00  0.00     0.051 A 
HETATM   19 CL   UNL     1      28.429  46.453  57.371  1.00  0.00    -0.083 Cl
HETATM   20  C   UNL     1      30.611  44.957  56.978  1.00  0.00     0.025 A 
HETATM   21  C   UNL     1      31.393  43.998  56.335  1.00  0.00     0.003 A 
HETATM   22  C   UNL     1      30.904  43.358  55.198  1.00  0.00     0.025 A 
HETATM   23  C   UNL     1      29.634  43.671  54.701  1.00  0.00     0.051 A 
HETATM   24 CL   UNL     1      29.137  42.869  53.252  1.00  0.00    -0.083 Cl
ENDBRANCH  14  17
ENDBRANCH   1  13
TORSDOF 5
ENDMDL
MODEL 5
REMARK VINA RESULT:      -7.5      3.034      5.164
REMARK  5 active torsions:
REMARK  status: ('A' for Active; 'I' for Inactive)
REMARK    1  A    between atoms: C_2  and  O_3 
REMARK    2  A    between atoms: O_3  and  C_4 
REMARK    3  A    between atoms: C_8  and  C_9 
REMARK    4  A    between atoms: C_9  and  N_10 
REMARK       I    between atoms: N_10  and  C_11 
REMARK    5  A    between atoms: C_11  and  C_12 
ROOT
HETATM    1  C   UNL     1      25.596  45.714  52.488  1.00  0.00     0.161 C 
ENDROOT
BRANCH   1   2
HETATM    2  C   UNL     1      25.402  44.982  51.191  1.00  0.00    -0.035 A 
HETATM    3  C   UNL     1      24.254  45.175  50.419  1.00  0.00     0.028 A 
HETATM    4  C   UNL     1      24.121  44.455  49.242  1.00  0.00     0.120 A 
HETATM    5  N   UNL     1      25.036  43.570  48.792  1.00  0.00    -0.237 NA
HETATM    6  C   UNL     1      26.135  43.395  49.546  1.00  0.00     0.165 A 
HETATM    7  C   UNL     1      26.355  44.065  50.742  1.00  0.00     0.066 A 
BRANCH   6   8
HETATM    8  O   UNL     1      27.132  42.531  49.156  1.00  0.00    -0.324 OA
BRANCH   8   9
HETATM    9  C   UNL     1      26.913  41.109  49.172  1.00  0.00     0.058 C 
HETATM   10  C   UNL     1      26.344  40.574  47.851  1.00  0.00     0.045 C 
HETATM   11  C   UNL     1      26.093  40.658  50.389  1.00  0.00     0.045 C 
HETATM   12  C   UNL     1      28.333  40.526  49.329  1.00  0.00     0.045 C 
ENDBRANCH   8   9
ENDBRANCH   6   8
ENDBRANCH   1   2
BRANCH   1  13
HETATM   13  N   UNL     1      26.869  45.390  53.083  1.00  0.00    -0.353 N 
HETATM   14  C   UNL     1      26.936  44.582  54.194  1.00  0.00     0.255 C 
HETATM   15  O   UNL     1      25.959  44.104  54.757  1.00  0.00    -0.268 OA
HETATM   16  H   UNL     1      27.711  45.776  52.677  1.00  0.00     0.163 HD
BRANCH  14  17
HETATM   17  C   UNL     1      28.293  44.288  54.693  1.00  0.00     0.075 A 
HETATM   18  C   UNL     1      28.962  43.116  54.311  1.00  0.00     0.051 A 
HETATM   19 CL   UNL     1      28.257  41.933  53.267  1.00  0.00    -0.083 Cl
HETATM   20  C   UNL     1      30.262  42.870  54.768  1.00  0.00     0.025 A 
HETATM   21  C   UNL     1      30.904  43.791  55.595  1.00  0.00     0.003 A 
HETATM   22  C   UNL     1      30.243  44.959  55.973  1.00  0.00     0.025 A 
HETATM   23  C   UNL     1      28.941  45.210  55.527  1.00  0.00     0.051 A 
HETATM   24 CL   UNL     1      28.180  46.655  56.096  1.00  0.00    -0.083 Cl
ENDBRANCH  14  17
ENDBRANCH   1  13
TORSDOF 5
ENDMDL
MODEL 6
REMARK VINA RESULT:      -7.5      3.294      4.710
REMARK  5 active torsions:
REMARK  status: ('A' for Active; 'I' for Inactive)
REMARK    1  A    between atoms: C_2  and  O_3 
REMARK    2  A    between atoms: O_3  and  C_4 
REMARK    3  A    between atoms: C_8  and  C_9 
REMARK    4  A    between atoms: C_9  and  N_10 
REMARK       I    between atoms: N_10  and  C_11 
REMARK    5  A    between atoms: C_11  and  C_12 
ROOT
HETATM    1  C   UNL     1      28.744  41.005  53.343  1.00  0.00     0.161 C 
ENDROOT
BRANCH   1   2
HETATM    2  C   UNL     1      27.994  41.339  52.086  1.00  0.00    -0.035 A 
HETATM    3  C   UNL     1      28.287  40.697  50.880  1.00  0.00     0.028 A 
HETATM    4  C   UNL     1      27.576  41.064  49.748  1.00  0.00     0.120 A 
HETATM    5  N   UNL     1      26.613  42.010  49.735  1.00  0.00    -0.237 NA
HETATM    6  C   UNL     1      26.344  42.620  50.903  1.00  0.00     0.165 A 
HETATM    7  C   UNL     1      27.005  42.326  52.088  1.00  0.00     0.066 A 
BRANCH   6   8
HETATM    8  O   UNL     1      25.364  43.580  50.992  1.00  0.00    -0.324 OA
BRANCH   8   9
HETATM    9  C   UNL     1      25.463  44.798  50.230  1.00  0.00     0.058 C 
HETATM   10  C   UNL     1      24.582  44.793  48.974  1.00  0.00     0.045 C 
HETATM   11  C   UNL     1      26.918  45.177  49.923  1.00  0.00     0.045 C 
HETATM   12  C   UNL     1      24.896  45.869  51.184  1.00  0.00     0.045 C 
ENDBRANCH   8   9
ENDBRANCH   6   8
ENDBRANCH   1   2
BRANCH   1  13
HETATM   13  N   UNL     1      28.749  42.120  54.258  1.00  0.00    -0.353 N 
HETATM   14  C   UNL     1      29.719  43.091  54.171  1.00  0.00     0.255 C 
HETATM   15  O   UNL     1      30.631  43.082  53.355  1.00  0.00    -0.268 OA
HETATM   16  H   UNL     1      28.034  42.169  54.972  1.00  0.00     0.163 HD
BRANCH  14  17
HETATM   17  C   UNL     1      29.601  44.203  55.134  1.00  0.00     0.075 A 
HETATM   18  C   UNL     1      28.641  45.210  54.958  1.00  0.00     0.051 A 
HETATM   19 CL   UNL     1      27.556  45.244  53.613  1.00  0.00    -0.083 Cl
HETATM   20  C   UNL     1      28.522  46.238  55.899  1.00  0.00     0.025 A 
HETATM   21  C   UNL     1      29.349  46.264  57.022  1.00  0.00     0.003 A 
HETATM   22  C   UNL     1      30.302  45.264  57.203  1.00  0.00     0.025 A 
HETATM   23  C   UNL     1      30.432  44.234  56.264  1.00  0.00     0.051 A 
HETATM   24 CL   UNL     1      31.681  43.071  56.540  1.00  0.00    -0.083 Cl
ENDBRANCH  14  17
ENDBRANCH   1  13
TORSDOF 5
ENDMDL
MODEL 7
REMARK VINA RESULT:      -7.4      3.815      5.422
REMARK  5 active torsions:
REMARK  status: ('A' for Active; 'I' for Inactive)
REMARK    1  A    between atoms: C_2  and  O_3 
REMARK    2  A    between atoms: O_3  and  C_4 
REMARK    3  A    between atoms: C_8  and  C_9 
REMARK    4  A    between atoms: C_9  and  N_10 
REMARK       I    between atoms: N_10  and  C_11 
REMARK    5  A    between atoms: C_11  and  C_12 
ROOT
HETATM    1  C   UNL     1      26.412  45.473  54.279  1.00  0.00     0.161 C 
ENDROOT
BRANCH   1   2
HETATM    2  C   UNL     1      26.149  44.813  52.957  1.00  0.00    -0.035 A 
HETATM    3  C   UNL     1      24.940  45.005  52.283  1.00  0.00     0.028 A 
HETATM    4  C   UNL     1      24.746  44.351  51.076  1.00  0.00     0.120 A 
HETATM    5  N   UNL     1      25.656  43.533  50.507  1.00  0.00    -0.237 NA
HETATM    6  C   UNL     1      26.814  43.358  51.168  1.00  0.00     0.165 A 
HETATM    7  C   UNL     1      27.098  43.963  52.384  1.00  0.00     0.066 A 
BRANCH   6   8
HETATM    8  O   UNL     1      27.809  42.560  50.654  1.00  0.00    -0.324 OA
BRANCH   8   9
HETATM    9  C   UNL     1      27.801  41.140  50.888  1.00  0.00     0.058 C 
HETATM   10  C   UNL     1      28.471  40.747  52.213  1.00  0.00     0.045 C 
HETATM   11  C   UNL     1      28.354  40.348  49.695  1.00  0.00     0.045 C 
HETATM   12  C   UNL     1      26.302  40.802  51.014  1.00  0.00     0.045 C 
ENDBRANCH   8   9
ENDBRANCH   6   8
ENDBRANCH   1   2
BRANCH   1  13
HETATM   13  N   UNL     1      27.538  44.869  54.948  1.00  0.00    -0.353 N 
HETATM   14  C   UNL     1      28.687  45.591  55.173  1.00  0.00     0.255 C 
HETATM   15  O   UNL     1      28.848  46.753  54.825  1.00  0.00    -0.268 OA
HETATM   16  H   UNL     1      27.473  43.902  55.238  1.00  0.00     0.163 HD
BRANCH  14  17
HETATM   17  C   UNL     1      29.758  44.882  55.899  1.00  0.00     0.075 A 
HETATM   18  C   UNL     1      30.056  45.198  57.232  1.00  0.00     0.051 A 
HETATM   19 CL   UNL     1      29.227  46.435  58.109  1.00  0.00    -0.083 Cl
HETATM   20  C   UNL     1      31.053  44.491  57.915  1.00  0.00     0.025 A 
HETATM   21  C   UNL     1      31.749  43.464  57.279  1.00  0.00     0.003 A 
HETATM   22  C   UNL     1      31.453  43.145  55.954  1.00  0.00     0.025 A 
HETATM   23  C   UNL     1      30.462  43.850  55.263  1.00  0.00     0.051 A 
HETATM   24 CL   UNL     1      30.206  43.424  53.606  1.00  0.00    -0.083 Cl
ENDBRANCH  14  17
ENDBRANCH   1  13
TORSDOF 5
ENDMDL
MODEL 8
REMARK VINA RESULT:      -7.3      3.930      6.873
REMARK  5 active torsions:
REMARK  status: ('A' for Active; 'I' for Inactive)
REMARK    1  A    between atoms: C_2  and  O_3 
REMARK    2  A    between atoms: O_3  and  C_4 
REMARK    3  A    between atoms: C_8  and  C_9 
REMARK    4  A    between atoms: C_9  and  N_10 
REMARK       I    between atoms: N_10  and  C_11 
REMARK    5  A    between atoms: C_11  and  C_12 
ROOT
HETATM    1  C   UNL     1      26.824  44.261  51.200  1.00  0.00     0.161 C 
ENDROOT
BRANCH   1   2
HETATM    2  C   UNL     1      26.570  42.856  50.733  1.00  0.00    -0.035 A 
HETATM    3  C   UNL     1      25.374  42.514  50.097  1.00  0.00     0.028 A 
HETATM    4  C   UNL     1      25.187  41.196  49.709  1.00  0.00     0.120 A 
HETATM    5  N   UNL     1      26.092  40.215  49.909  1.00  0.00    -0.237 NA
HETATM    6  C   UNL     1      27.237  40.560  50.524  1.00  0.00     0.165 A 
HETATM    7  C   UNL     1      27.514  41.850  50.954  1.00  0.00     0.066 A 
BRANCH   6   8
HETATM    8  O   UNL     1      28.227  39.632  50.751  1.00  0.00    -0.324 OA
BRANCH   8   9
HETATM    9  C   UNL     1      28.628  38.723  49.710  1.00  0.00     0.058 C 
HETATM   10  C   UNL     1      28.884  39.422  48.368  1.00  0.00     0.045 C 
HETATM   11  C   UNL     1      27.672  37.530  49.576  1.00  0.00     0.045 C 
HETATM   12  C   UNL     1      29.982  38.178  50.208  1.00  0.00     0.045 C 
ENDBRANCH   8   9
ENDBRANCH   6   8
ENDBRANCH   1   2
BRANCH   1  13
HETATM   13  N   UNL     1      27.868  44.297  52.195  1.00  0.00    -0.353 N 
HETATM   14  C   UNL     1      27.556  44.305  53.535  1.00  0.00     0.255 C 
HETATM   15  O   UNL     1      26.414  44.300  53.975  1.00  0.00    -0.268 OA
HETATM   16  H   UNL     1      28.832  44.328  51.891  1.00  0.00     0.163 HD
BRANCH  14  17
HETATM   17  C   UNL     1      28.704  44.305  54.461  1.00  0.00     0.075 A 
HETATM   18  C   UNL     1      29.477  43.150  54.649  1.00  0.00     0.051 A 
HETATM   19 CL   UNL     1      29.141  41.657  53.845  1.00  0.00    -0.083 Cl
HETATM   20  C   UNL     1      30.583  43.178  55.506  1.00  0.00     0.025 A 
HETATM   21  C   UNL     1      30.930  44.354  56.170  1.00  0.00     0.003 A 
HETATM   22  C   UNL     1      30.166  45.504  55.984  1.00  0.00     0.025 A 
HETATM   23  C   UNL     1      29.055  45.484  55.133  1.00  0.00     0.051 A 
HETATM   24 CL   UNL     1      28.133  46.942  55.010  1.00  0.00    -0.083 Cl
ENDBRANCH  14  17
ENDBRANCH   1  13
TORSDOF 5
ENDMDL
MODEL 9
REMARK VINA RESULT:      -7.3      3.922      6.241
REMARK  5 active torsions:
REMARK  status: ('A' for Active; 'I' for Inactive)
REMARK    1  A    between atoms: C_2  and  O_3 
REMARK    2  A    between atoms: O_3  and  C_4 
REMARK    3  A    between atoms: C_8  and  C_9 
REMARK    4  A    between atoms: C_9  and  N_10 
REMARK       I    between atoms: N_10  and  C_11 
REMARK    5  A    between atoms: C_11  and  C_12 
ROOT
HETATM    1  C   UNL     1      25.403  43.853  51.841  1.00  0.00     0.161 C 
ENDROOT
BRANCH   1   2
HETATM    2  C   UNL     1      25.447  42.770  50.801  1.00  0.00    -0.035 A 
HETATM    3  C   UNL     1      24.732  42.889  49.606  1.00  0.00     0.028 A 
HETATM    4  C   UNL     1      24.794  41.847  48.694  1.00  0.00     0.120 A 
HETATM    5  N   UNL     1      25.503  40.716  48.888  1.00  0.00    -0.237 NA
HETATM    6  C   UNL     1      26.185  40.616  50.043  1.00  0.00     0.165 A 
HETATM    7  C   UNL     1      26.180  41.602  51.020  1.00  0.00     0.066 A 
BRANCH   6   8
HETATM    8  O   UNL     1      26.954  39.509  50.319  1.00  0.00    -0.324 OA
BRANCH   8   9
HETATM    9  C   UNL     1      28.086  39.181  49.492  1.00  0.00     0.058 C 
HETATM   10  C   UNL     1      28.598  40.376  48.676  1.00  0.00     0.045 C 
HETATM   11  C   UNL     1      27.835  37.942  48.623  1.00  0.00     0.045 C 
HETATM   12  C   UNL     1      29.184  38.818  50.512  1.00  0.00     0.045 C 
ENDBRANCH   8   9
ENDBRANCH   6   8
ENDBRANCH   1   2
BRANCH   1  13
HETATM   13  N   UNL     1      26.674  43.984  52.509  1.00  0.00    -0.353 N 
HETATM   14  C   UNL     1      26.752  43.919  53.881  1.00  0.00     0.255 C 
HETATM   15  O   UNL     1      25.788  43.768  54.619  1.00  0.00    -0.268 OA
HETATM   16  H   UNL     1      27.505  44.135  51.953  1.00  0.00     0.163 HD
BRANCH  14  17
HETATM   17  C   UNL     1      28.109  44.027  54.452  1.00  0.00     0.075 A 
HETATM   18  C   UNL     1      28.551  45.221  55.038  1.00  0.00     0.051 A 
HETATM   19 CL   UNL     1      27.572  46.644  55.118  1.00  0.00    -0.083 Cl
HETATM   20  C   UNL     1      29.829  45.294  55.604  1.00  0.00     0.025 A 
HETATM   21  C   UNL     1      30.667  44.180  55.597  1.00  0.00     0.003 A 
HETATM   22  C   UNL     1      30.230  42.990  55.018  1.00  0.00     0.025 A 
HETATM   23  C   UNL     1      28.956  42.909  54.445  1.00  0.00     0.051 A 
HETATM   24 CL   UNL     1      28.523  41.411  53.698  1.00  0.00    -0.083 Cl
ENDBRANCH  14  17
ENDBRANCH   1  13
TORSDOF 5
ENDMDL
MODEL 10
REMARK VINA RESULT:      -7.2      2.206      3.113
REMARK  5 active torsions:
REMARK  status: ('A' for Active; 'I' for Inactive)
REMARK    1  A    between atoms: C_2  and  O_3 
REMARK    2  A    between atoms: O_3  and  C_4 
REMARK    3  A    between atoms: C_8  and  C_9 
REMARK    4  A    between atoms: C_9  and  N_10 
REMARK       I    between atoms: N_10  and  C_11 
REMARK    5  A    between atoms: C_11  and  C_12 
ROOT
HETATM    1  C   UNL     1      25.956  46.288  53.192  1.00  0.00     0.161 C 
ENDROOT
BRANCH   1   2
HETATM    2  C   UNL     1      25.837  45.766  51.789  1.00  0.00    -0.035 A 
HETATM    3  C   UNL     1      26.836  44.964  51.231  1.00  0.00     0.028 A 
HETATM    4  C   UNL     1      26.680  44.531  49.924  1.00  0.00     0.120 A 
HETATM    5  N   UNL     1      25.619  44.837  49.149  1.00  0.00    -0.237 NA
HETATM    6  C   UNL     1      24.666  45.610  49.700  1.00  0.00     0.165 A 
HETATM    7  C   UNL     1      24.735  46.097  50.997  1.00  0.00     0.066 A 
BRANCH   6   8
HETATM    8  O   UNL     1      23.537  45.955  48.994  1.00  0.00    -0.324 OA
BRANCH   8   9
HETATM    9  C   UNL     1      22.593  44.947  48.587  1.00  0.00     0.058 C 
HETATM   10  C   UNL     1      22.394  43.851  49.642  1.00  0.00     0.045 C 
HETATM   11  C   UNL     1      22.913  44.374  47.200  1.00  0.00     0.045 C 
HETATM   12  C   UNL     1      21.264  45.722  48.473  1.00  0.00     0.045 C 
ENDBRANCH   8   9
ENDBRANCH   6   8
ENDBRANCH   1   2
BRANCH   1  13
HETATM   13  N   UNL     1      27.221  45.918  53.779  1.00  0.00    -0.353 N 
HETATM   14  C   UNL     1      27.306  44.849  54.641  1.00  0.00     0.255 C 
HETATM   15  O   UNL     1      26.352  44.162  54.980  1.00  0.00    -0.268 OA
HETATM   16  H   UNL     1      28.042  46.464  53.555  1.00  0.00     0.163 HD
BRANCH  14  17
HETATM   17  C   UNL     1      28.657  44.540  55.148  1.00  0.00     0.075 A 
HETATM   18  C   UNL     1      29.411  43.494  54.599  1.00  0.00     0.051 A 
HETATM   19 CL   UNL     1      28.824  42.486  53.323  1.00  0.00    -0.083 Cl
HETATM   20  C   UNL     1      30.704  43.238  55.070  1.00  0.00     0.025 A 
HETATM   21  C   UNL     1      31.253  44.025  56.082  1.00  0.00     0.003 A 
HETATM   22  C   UNL     1      30.507  45.068  56.629  1.00  0.00     0.025 A 
HETATM   23  C   UNL     1      29.212  45.328  56.167  1.00  0.00     0.051 A 
HETATM   24 CL   UNL     1      28.341  46.603  56.945  1.00  0.00    -0.083 Cl
ENDBRANCH  14  17
ENDBRANCH   1  13
TORSDOF 5
ENDMDL
