MODEL 1
REMARK VINA RESULT:     -10.4      0.000      0.000
REMARK  7 active torsions:
REMARK  status: ('A' for Active; 'I' for Inactive)
REMARK    1  A    between atoms: C_2  and  C_3 
REMARK    2  A    between atoms: N_4  and  C_5 
REMARK    3  A    between atoms: C_13  and  C_14 
REMARK       I    between atoms: C_14  and  N_15 
REMARK    4  A    between atoms: N_15  and  N_16 
REMARK       I    between atoms: N_16  and  C_17 
REMARK    5  A    between atoms: C_17  and  C_18 
REMARK    6  A    between atoms: C_22  and  C_23 
REMARK    7  A    between atoms: C_26  and  O_27 
ROOT
HETATM    1  N   UNL     1      24.960  47.576  50.469  1.00  0.00    -0.262 N 
HETATM    2  C   UNL     1      25.329  48.464  49.484  1.00  0.00     0.288 C 
HETATM    3  O   UNL     1      26.506  48.641  49.174  1.00  0.00    -0.264 OA
HETATM    4  H   UNL     1      23.993  47.339  50.678  1.00  0.00     0.190 HD
ENDROOT
BRANCH   1   5
HETATM    5  N   UNL     1      25.935  46.807  51.119  1.00  0.00    -0.263 N 
HETATM    6  C   UNL     1      25.993  46.879  52.494  1.00  0.00     0.273 C 
HETATM    7  O   UNL     1      25.223  47.616  53.115  1.00  0.00    -0.266 OA
HETATM    8  H   UNL     1      26.384  46.083  50.570  1.00  0.00     0.190 HD
BRANCH   6   9
HETATM    9  C   UNL     1      26.968  46.044  53.178  1.00  0.00     0.077 A 
HETATM   10  C   UNL     1      27.916  46.310  54.173  1.00  0.00     0.053 A 
HETATM   11  N   UNL     1      28.490  45.066  54.510  1.00  0.00    -0.237 N 
HETATM   12  N   UNL     1      27.963  44.076  53.738  1.00  0.00    -0.178 NA
HETATM   13  C   UNL     1      27.059  44.659  52.969  1.00  0.00     0.158 A 
BRANCH  10  14
HETATM   14  C   UNL     1      28.196  47.605  54.871  1.00  0.00     0.056 C 
HETATM   15  C   UNL     1      27.059  48.014  55.801  1.00  0.00     0.011 C 
ENDBRANCH  10  14
BRANCH  11  16
HETATM   16  C   UNL     1      29.459  44.673  55.499  1.00  0.00     0.058 A 
HETATM   17  C   UNL     1      30.299  43.563  55.381  1.00  0.00     0.031 A 
HETATM   18  C   UNL     1      31.232  43.260  56.383  1.00  0.00     0.002 A 
HETATM   19  C   UNL     1      31.339  44.056  57.518  1.00  0.00     0.000 A 
HETATM   20  C   UNL     1      30.502  45.155  57.664  1.00  0.00     0.002 A 
HETATM   21  C   UNL     1      29.568  45.457  56.668  1.00  0.00     0.031 A 
ENDBRANCH  11  16
ENDBRANCH   6   9
ENDBRANCH   1   5
BRANCH   2  22
HETATM   22  C   UNL     1      24.238  49.152  48.850  1.00  0.00     0.121 A 
HETATM   23  N   UNL     1      24.402  49.898  47.717  1.00  0.00    -0.272 N 
HETATM   24  H   UNL     1      25.266  50.055  47.208  1.00  0.00     0.189 HD
HETATM   25  N   UNL     1      23.270  50.451  47.254  1.00  0.00    -0.174 NA
HETATM   26  C   UNL     1      22.325  50.080  48.133  1.00  0.00     0.089 A 
HETATM   27  C   UNL     1      22.894  49.261  49.147  1.00  0.00     0.071 A 
BRANCH  26  28
HETATM   28  C   UNL     1      20.923  50.486  47.990  1.00  0.00    -0.005 A 
HETATM   29  C   UNL     1      20.469  51.686  48.548  1.00  0.00     0.016 A 
HETATM   30  C   UNL     1      19.139  52.089  48.383  1.00  0.00     0.037 A 
HETATM   31  C   UNL     1      18.239  51.302  47.663  1.00  0.00     0.068 A 
HETATM   32  C   UNL     1      18.678  50.096  47.118  1.00  0.00     0.037 A 
HETATM   33  C   UNL     1      20.011  49.692  47.280  1.00  0.00     0.016 A 
BRANCH  31  34
HETATM   34  O   UNL     1      16.975  51.814  47.567  1.00  0.00    -0.356 OA
HETATM   35  C   UNL     1      15.935  51.082  48.205  1.00  0.00     0.210 C 
ENDBRANCH  31  34
ENDBRANCH  26  28
ENDBRANCH   2  22
TORSDOF 7
ENDMDL
MODEL 2
REMARK VINA RESULT:     -10.1      1.389      1.909
REMARK  7 active torsions:
REMARK  status: ('A' for Active; 'I' for Inactive)
REMARK    1  A    between atoms: C_2  and  C_3 
REMARK    2  A    between atoms: N_4  and  C_5 
REMARK    3  A    between atoms: C_13  and  C_14 
REMARK       I    between atoms: C_14  and  N_15 
REMARK    4  A    between atoms: N_15  and  N_16 
REMARK       I    between atoms: N_16  and  C_17 
REMARK    5  A    between atoms: C_17  and  C_18 
REMARK    6  A    between atoms: C_22  and  C_23 
REMARK    7  A    between atoms: C_26  and  O_27 
ROOT
HETATM    1  N   UNL     1      24.656  47.083  51.528  1.00  0.00    -0.262 N 
HETATM    2  C   UNL     1      24.781  47.726  50.316  1.00  0.00     0.288 C 
HETATM    3  O   UNL     1      25.876  48.039  49.854  1.00  0.00    -0.264 OA
HETATM    4  H   UNL     1      23.773  46.727  51.886  1.00  0.00     0.190 HD
ENDROOT
BRANCH   1   5
HETATM    5  N   UNL     1      25.803  46.726  52.250  1.00  0.00    -0.263 N 
HETATM    6  C   UNL     1      25.977  47.296  53.493  1.00  0.00     0.273 C 
HETATM    7  O   UNL     1      25.158  48.107  53.930  1.00  0.00    -0.266 OA
HETATM    8  H   UNL     1      26.312  45.913  51.923  1.00  0.00     0.190 HD
BRANCH   6   9
HETATM    9  C   UNL     1      27.137  46.890  54.270  1.00  0.00     0.077 A 
HETATM   10  C   UNL     1      27.543  45.658  54.800  1.00  0.00     0.053 A 
HETATM   11  N   UNL     1      28.819  45.875  55.362  1.00  0.00    -0.237 N 
HETATM   12  N   UNL     1      29.179  47.181  55.231  1.00  0.00    -0.178 NA
HETATM   13  C   UNL     1      28.191  47.765  54.575  1.00  0.00     0.158 A 
BRANCH  10  14
HETATM   14  C   UNL     1      26.865  44.328  54.692  1.00  0.00     0.056 C 
HETATM   15  C   UNL     1      27.242  43.593  53.410  1.00  0.00     0.011 C 
ENDBRANCH  10  14
BRANCH  11  16
HETATM   16  C   UNL     1      29.774  44.997  55.985  1.00  0.00     0.058 A 
HETATM   17  C   UNL     1      30.278  43.835  55.395  1.00  0.00     0.031 A 
HETATM   18  C   UNL     1      31.224  43.044  56.062  1.00  0.00     0.002 A 
HETATM   19  C   UNL     1      31.678  43.396  57.329  1.00  0.00     0.000 A 
HETATM   20  C   UNL     1      31.178  44.538  57.941  1.00  0.00     0.002 A 
HETATM   21  C   UNL     1      30.232  45.327  57.279  1.00  0.00     0.031 A 
ENDBRANCH  11  16
ENDBRANCH   6   9
ENDBRANCH   1   5
BRANCH   2  22
HETATM   22  C   UNL     1      23.539  47.989  49.642  1.00  0.00     0.121 A 
HETATM   23  N   UNL     1      22.786  46.995  49.080  1.00  0.00    -0.272 N 
HETATM   24  H   UNL     1      22.998  46.003  49.064  1.00  0.00     0.189 HD
HETATM   25  N   UNL     1      21.649  47.423  48.511  1.00  0.00    -0.174 NA
HETATM   26  C   UNL     1      21.662  48.755  48.679  1.00  0.00     0.089 A 
HETATM   27  C   UNL     1      22.832  49.147  49.387  1.00  0.00     0.071 A 
BRANCH  26  28
HETATM   28  C   UNL     1      20.581  49.615  48.189  1.00  0.00    -0.005 A 
HETATM   29  C   UNL     1      20.425  50.915  48.683  1.00  0.00     0.016 A 
HETATM   30  C   UNL     1      19.413  51.747  48.191  1.00  0.00     0.037 A 
HETATM   31  C   UNL     1      18.538  51.298  47.200  1.00  0.00     0.068 A 
HETATM   32  C   UNL     1      18.675  49.998  46.714  1.00  0.00     0.037 A 
HETATM   33  C   UNL     1      19.690  49.164  47.205  1.00  0.00     0.016 A 
BRANCH  31  34
HETATM   34  O   UNL     1      17.603  52.211  46.800  1.00  0.00    -0.356 OA
HETATM   35  C   UNL     1      16.332  52.150  47.435  1.00  0.00     0.210 C 
ENDBRANCH  31  34
ENDBRANCH  26  28
ENDBRANCH   2  22
TORSDOF 7
ENDMDL
MODEL 3
REMARK VINA RESULT:     -10.0      1.260      1.765
REMARK  7 active torsions:
REMARK  status: ('A' for Active; 'I' for Inactive)
REMARK    1  A    between atoms: C_2  and  C_3 
REMARK    2  A    between atoms: N_4  and  C_5 
REMARK    3  A    between atoms: C_13  and  C_14 
REMARK       I    between atoms: C_14  and  N_15 
REMARK    4  A    between atoms: N_15  and  N_16 
REMARK       I    between atoms: N_16  and  C_17 
REMARK    5  A    between atoms: C_17  and  C_18 
REMARK    6  A    between atoms: C_22  and  C_23 
REMARK    7  A    between atoms: C_26  and  O_27 
ROOT
HETATM    1  N   UNL     1      24.392  47.193  50.906  1.00  0.00    -0.262 N 
HETATM    2  C   UNL     1      24.477  48.116  49.886  1.00  0.00     0.288 C 
HETATM    3  O   UNL     1      25.542  48.644  49.573  1.00  0.00    -0.264 OA
HETATM    4  H   UNL     1      23.547  46.670  51.121  1.00  0.00     0.190 HD
ENDROOT
BRANCH   1   5
HETATM    5  N   UNL     1      25.551  46.798  51.588  1.00  0.00    -0.263 N 
HETATM    6  C   UNL     1      25.541  45.562  52.198  1.00  0.00     0.273 C 
HETATM    7  O   UNL     1      24.534  44.851  52.156  1.00  0.00    -0.266 OA
HETATM    8  H   UNL     1      26.392  47.333  51.406  1.00  0.00     0.190 HD
BRANCH   6   9
HETATM    9  C   UNL     1      26.758  45.122  52.863  1.00  0.00     0.077 A 
HETATM   10  C   UNL     1      27.390  45.519  54.048  1.00  0.00     0.053 A 
HETATM   11  N   UNL     1      28.482  44.642  54.221  1.00  0.00    -0.237 N 
HETATM   12  N   UNL     1      28.558  43.768  53.180  1.00  0.00    -0.178 NA
HETATM   13  C   UNL     1      27.532  44.049  52.395  1.00  0.00     0.158 A 
BRANCH  10  14
HETATM   14  C   UNL     1      26.954  46.556  55.035  1.00  0.00     0.056 C 
HETATM   15  C   UNL     1      27.557  47.924  54.736  1.00  0.00     0.011 C 
ENDBRANCH  10  14
BRANCH  11  16
HETATM   16  C   UNL     1      29.457  44.492  55.269  1.00  0.00     0.058 A 
HETATM   17  C   UNL     1      29.673  45.426  56.285  1.00  0.00     0.031 A 
HETATM   18  C   UNL     1      30.630  45.194  57.282  1.00  0.00     0.002 A 
HETATM   19  C   UNL     1      31.391  44.030  57.279  1.00  0.00     0.000 A 
HETATM   20  C   UNL     1      31.205  43.094  56.269  1.00  0.00     0.002 A 
HETATM   21  C   UNL     1      30.253  43.325  55.271  1.00  0.00     0.031 A 
ENDBRANCH  11  16
ENDBRANCH   6   9
ENDBRANCH   1   5
BRANCH   2  22
HETATM   22  C   UNL     1      23.234  48.399  49.223  1.00  0.00     0.121 A 
HETATM   23  N   UNL     1      22.541  47.446  48.530  1.00  0.00    -0.272 N 
HETATM   24  H   UNL     1      22.802  46.474  48.399  1.00  0.00     0.189 HD
HETATM   25  N   UNL     1      21.391  47.885  47.993  1.00  0.00    -0.174 NA
HETATM   26  C   UNL     1      21.336  49.185  48.321  1.00  0.00     0.089 A 
HETATM   27  C   UNL     1      22.474  49.544  49.096  1.00  0.00     0.071 A 
BRANCH  26  28
HETATM   28  C   UNL     1      20.220  50.046  47.916  1.00  0.00    -0.005 A 
HETATM   29  C   UNL     1      19.259  49.588  47.007  1.00  0.00     0.016 A 
HETATM   30  C   UNL     1      18.177  50.397  46.647  1.00  0.00     0.037 A 
HETATM   31  C   UNL     1      18.034  51.678  47.184  1.00  0.00     0.068 A 
HETATM   32  C   UNL     1      18.995  52.150  48.076  1.00  0.00     0.037 A 
HETATM   33  C   UNL     1      20.079  51.339  48.440  1.00  0.00     0.016 A 
BRANCH  31  34
HETATM   34  O   UNL     1      16.929  52.361  46.758  1.00  0.00    -0.356 OA
HETATM   35  C   UNL     1      15.762  51.593  46.490  1.00  0.00     0.210 C 
ENDBRANCH  31  34
ENDBRANCH  26  28
ENDBRANCH   2  22
TORSDOF 7
ENDMDL
MODEL 4
REMARK VINA RESULT:      -9.7      2.473     12.193
REMARK  7 active torsions:
REMARK  status: ('A' for Active; 'I' for Inactive)
REMARK    1  A    between atoms: C_2  and  C_3 
REMARK    2  A    between atoms: N_4  and  C_5 
REMARK    3  A    between atoms: C_13  and  C_14 
REMARK       I    between atoms: C_14  and  N_15 
REMARK    4  A    between atoms: N_15  and  N_16 
REMARK       I    between atoms: N_16  and  C_17 
REMARK    5  A    between atoms: C_17  and  C_18 
REMARK    6  A    between atoms: C_22  and  C_23 
REMARK    7  A    between atoms: C_26  and  O_27 
ROOT
HETATM    1  N   UNL     1      24.352  46.192  50.253  1.00  0.00    -0.262 N 
HETATM    2  C   UNL     1      24.403  44.956  50.858  1.00  0.00     0.288 C 
HETATM    3  O   UNL     1      23.434  44.201  50.880  1.00  0.00    -0.264 OA
HETATM    4  H   UNL     1      25.163  46.795  50.135  1.00  0.00     0.190 HD
ENDROOT
BRANCH   1   5
HETATM    5  N   UNL     1      23.182  46.601  49.598  1.00  0.00    -0.263 N 
HETATM    6  C   UNL     1      23.070  47.934  49.267  1.00  0.00     0.273 C 
HETATM    7  O   UNL     1      23.963  48.731  49.563  1.00  0.00    -0.266 OA
HETATM    8  H   UNL     1      22.598  45.870  49.210  1.00  0.00     0.190 HD
BRANCH   6   9
HETATM    9  C   UNL     1      21.882  48.356  48.539  1.00  0.00     0.077 A 
HETATM   10  C   UNL     1      21.214  49.582  48.439  1.00  0.00     0.053 A 
HETATM   11  N   UNL     1      20.187  49.393  47.491  1.00  0.00    -0.237 N 
HETATM   12  N   UNL     1      20.181  48.105  47.049  1.00  0.00    -0.178 NA
HETATM   13  C   UNL     1      21.191  47.508  47.660  1.00  0.00     0.158 A 
BRANCH  10  14
HETATM   14  C   UNL     1      21.568  50.891  49.075  1.00  0.00     0.056 C 
HETATM   15  C   UNL     1      20.912  51.062  50.441  1.00  0.00     0.011 C 
ENDBRANCH  10  14
BRANCH  11  16
HETATM   16  C   UNL     1      19.217  50.283  46.910  1.00  0.00     0.058 A 
HETATM   17  C   UNL     1      18.459  51.205  47.636  1.00  0.00     0.031 A 
HETATM   18  C   UNL     1      17.548  52.053  46.991  1.00  0.00     0.002 A 
HETATM   19  C   UNL     1      17.376  51.991  45.612  1.00  0.00     0.000 A 
HETATM   20  C   UNL     1      18.107  51.072  44.872  1.00  0.00     0.002 A 
HETATM   21  C   UNL     1      19.014  50.223  45.514  1.00  0.00     0.031 A 
ENDBRANCH  11  16
ENDBRANCH   6   9
ENDBRANCH   1   5
BRANCH   2  22
HETATM   22  C   UNL     1      25.672  44.624  51.447  1.00  0.00     0.121 A 
HETATM   23  N   UNL     1      26.651  43.969  50.754  1.00  0.00    -0.272 N 
HETATM   24  H   UNL     1      26.609  43.647  49.792  1.00  0.00     0.189 HD
HETATM   25  N   UNL     1      27.776  43.761  51.455  1.00  0.00    -0.174 NA
HETATM   26  C   UNL     1      27.521  44.275  52.669  1.00  0.00     0.089 A 
HETATM   27  C   UNL     1      26.211  44.829  52.701  1.00  0.00     0.071 A 
BRANCH  26  28
HETATM   28  C   UNL     1      28.508  44.248  53.752  1.00  0.00    -0.005 A 
HETATM   29  C   UNL     1      29.481  43.243  53.805  1.00  0.00     0.016 A 
HETATM   30  C   UNL     1      30.444  43.237  54.821  1.00  0.00     0.037 A 
HETATM   31  C   UNL     1      30.453  44.229  55.802  1.00  0.00     0.068 A 
HETATM   32  C   UNL     1      29.478  45.225  55.768  1.00  0.00     0.037 A 
HETATM   33  C   UNL     1      28.513  45.234  54.749  1.00  0.00     0.016 A 
BRANCH  31  34
HETATM   34  O   UNL     1      31.450  44.114  56.729  1.00  0.00    -0.356 OA
HETATM   35  C   UNL     1      31.176  44.607  58.034  1.00  0.00     0.210 C 
ENDBRANCH  31  34
ENDBRANCH  26  28
ENDBRANCH   2  22
TORSDOF 7
ENDMDL
MODEL 5
REMARK VINA RESULT:      -9.5      2.831     12.319
REMARK  7 active torsions:
REMARK  status: ('A' for Active; 'I' for Inactive)
REMARK    1  A    between atoms: C_2  and  C_3 
REMARK    2  A    between atoms: N_4  and  C_5 
REMARK    3  A    between atoms: C_13  and  C_14 
REMARK       I    between atoms: C_14  and  N_15 
REMARK    4  A    between atoms: N_15  and  N_16 
REMARK       I    between atoms: N_16  and  C_17 
REMARK    5  A    between atoms: C_17  and  C_18 
REMARK    6  A    between atoms: C_22  and  C_23 
REMARK    7  A    between atoms: C_26  and  O_27 
ROOT
HETATM    1  N   UNL     1      23.536  46.522  49.660  1.00  0.00    -0.262 N 
HETATM    2  C   UNL     1      23.795  45.171  49.722  1.00  0.00     0.288 C 
HETATM    3  O   UNL     1      22.965  44.332  49.378  1.00  0.00    -0.264 OA
HETATM    4  H   UNL     1      24.236  47.237  49.845  1.00  0.00     0.190 HD
ENDROOT
BRANCH   1   5
HETATM    5  N   UNL     1      22.312  46.976  49.150  1.00  0.00    -0.263 N 
HETATM    6  C   UNL     1      22.339  48.057  48.295  1.00  0.00     0.273 C 
HETATM    7  O   UNL     1      23.406  48.609  48.017  1.00  0.00    -0.266 OA
HETATM    8  H   UNL     1      21.517  46.357  49.255  1.00  0.00     0.190 HD
BRANCH   6   9
HETATM    9  C   UNL     1      21.079  48.500  47.720  1.00  0.00     0.077 A 
HETATM   10  C   UNL     1      20.419  49.736  47.713  1.00  0.00     0.053 A 
HETATM   11  N   UNL     1      19.283  49.569  46.893  1.00  0.00    -0.237 N 
HETATM   12  N   UNL     1      19.208  48.286  46.442  1.00  0.00    -0.178 NA
HETATM   13  C   UNL     1      20.276  47.671  46.922  1.00  0.00     0.158 A 
BRANCH  10  14
HETATM   14  C   UNL     1      20.863  51.032  48.316  1.00  0.00     0.056 C 
HETATM   15  C   UNL     1      20.154  51.328  49.633  1.00  0.00     0.011 C 
ENDBRANCH  10  14
BRANCH  11  16
HETATM   16  C   UNL     1      18.262  50.477  46.442  1.00  0.00     0.058 A 
HETATM   17  C   UNL     1      18.234  51.067  45.176  1.00  0.00     0.031 A 
HETATM   18  C   UNL     1      17.190  51.926  44.807  1.00  0.00     0.002 A 
HETATM   19  C   UNL     1      16.160  52.214  45.696  1.00  0.00     0.000 A 
HETATM   20  C   UNL     1      16.176  51.652  46.966  1.00  0.00     0.002 A 
HETATM   21  C   UNL     1      17.218  50.797  47.338  1.00  0.00     0.031 A 
ENDBRANCH  11  16
ENDBRANCH   6   9
ENDBRANCH   1   5
BRANCH   2  22
HETATM   22  C   UNL     1      25.103  44.828  50.208  1.00  0.00     0.121 A 
HETATM   23  N   UNL     1      26.174  44.663  49.375  1.00  0.00    -0.272 N 
HETATM   24  H   UNL     1      26.181  44.751  48.363  1.00  0.00     0.189 HD
HETATM   25  N   UNL     1      27.320  44.365  50.005  1.00  0.00    -0.174 NA
HETATM   26  C   UNL     1      26.989  44.304  51.305  1.00  0.00     0.089 A 
HETATM   27  C   UNL     1      25.606  44.592  51.472  1.00  0.00     0.071 A 
BRANCH  26  28
HETATM   28  C   UNL     1      27.973  43.996  52.348  1.00  0.00    -0.005 A 
HETATM   29  C   UNL     1      27.876  44.583  53.615  1.00  0.00     0.016 A 
HETATM   30  C   UNL     1      28.795  44.262  54.620  1.00  0.00     0.037 A 
HETATM   31  C   UNL     1      29.828  43.354  54.380  1.00  0.00     0.068 A 
HETATM   32  C   UNL     1      29.943  42.778  53.116  1.00  0.00     0.037 A 
HETATM   33  C   UNL     1      29.021  43.096  52.108  1.00  0.00     0.016 A 
BRANCH  31  34
HETATM   34  O   UNL     1      30.650  43.121  55.446  1.00  0.00    -0.356 OA
HETATM   35  C   UNL     1      31.009  44.245  56.240  1.00  0.00     0.210 C 
ENDBRANCH  31  34
ENDBRANCH  26  28
ENDBRANCH   2  22
TORSDOF 7
ENDMDL
MODEL 6
REMARK VINA RESULT:      -9.4      2.629      3.884
REMARK  7 active torsions:
REMARK  status: ('A' for Active; 'I' for Inactive)
REMARK    1  A    between atoms: C_2  and  C_3 
REMARK    2  A    between atoms: N_4  and  C_5 
REMARK    3  A    between atoms: C_13  and  C_14 
REMARK       I    between atoms: C_14  and  N_15 
REMARK    4  A    between atoms: N_15  and  N_16 
REMARK       I    between atoms: N_16  and  C_17 
REMARK    5  A    between atoms: C_17  and  C_18 
REMARK    6  A    between atoms: C_22  and  C_23 
REMARK    7  A    between atoms: C_26  and  O_27 
ROOT
HETATM    1  N   UNL     1      22.463  47.408  49.231  1.00  0.00    -0.262 N 
HETATM    2  C   UNL     1      21.385  46.994  48.482  1.00  0.00     0.288 C 
HETATM    3  O   UNL     1      21.298  45.849  48.042  1.00  0.00    -0.264 OA
HETATM    4  H   UNL     1      22.514  48.316  49.688  1.00  0.00     0.190 HD
ENDROOT
BRANCH   1   5
HETATM    5  N   UNL     1      23.481  46.500  49.553  1.00  0.00    -0.263 N 
HETATM    6  C   UNL     1      24.640  47.008  50.098  1.00  0.00     0.273 C 
HETATM    7  O   UNL     1      24.772  48.223  50.270  1.00  0.00    -0.266 OA
HETATM    8  H   UNL     1      23.226  45.520  49.577  1.00  0.00     0.190 HD
BRANCH   6   9
HETATM    9  C   UNL     1      25.680  46.067  50.483  1.00  0.00     0.077 A 
HETATM   10  C   UNL     1      26.078  45.542  51.719  1.00  0.00     0.053 A 
HETATM   11  N   UNL     1      27.076  44.585  51.436  1.00  0.00    -0.237 N 
HETATM   12  N   UNL     1      27.323  44.540  50.098  1.00  0.00    -0.178 NA
HETATM   13  C   UNL     1      26.488  45.404  49.546  1.00  0.00     0.158 A 
BRANCH  10  14
HETATM   14  C   UNL     1      25.495  45.804  53.073  1.00  0.00     0.056 C 
HETATM   15  C   UNL     1      26.201  46.949  53.791  1.00  0.00     0.011 C 
ENDBRANCH  10  14
BRANCH  11  16
HETATM   16  C   UNL     1      27.814  43.670  52.265  1.00  0.00     0.058 A 
HETATM   17  C   UNL     1      28.707  44.058  53.267  1.00  0.00     0.031 A 
HETATM   18  C   UNL     1      29.372  43.101  54.045  1.00  0.00     0.002 A 
HETATM   19  C   UNL     1      29.162  41.743  53.834  1.00  0.00     0.000 A 
HETATM   20  C   UNL     1      28.292  41.334  52.832  1.00  0.00     0.002 A 
HETATM   21  C   UNL     1      27.629  42.286  52.051  1.00  0.00     0.031 A 
ENDBRANCH  11  16
ENDBRANCH   6   9
ENDBRANCH   1   5
BRANCH   2  22
HETATM   22  C   UNL     1      20.378  47.996  48.266  1.00  0.00     0.121 A 
HETATM   23  N   UNL     1      19.840  48.240  47.033  1.00  0.00    -0.272 N 
HETATM   24  H   UNL     1      20.072  47.774  46.162  1.00  0.00     0.189 HD
HETATM   25  N   UNL     1      18.899  49.197  47.024  1.00  0.00    -0.174 NA
HETATM   26  C   UNL     1      18.831  49.622  48.295  1.00  0.00     0.089 A 
HETATM   27  C   UNL     1      19.743  48.890  49.105  1.00  0.00     0.071 A 
BRANCH  26  28
HETATM   28  C   UNL     1      17.911  50.683  48.717  1.00  0.00    -0.005 A 
HETATM   29  C   UNL     1      16.535  50.563  48.494  1.00  0.00     0.016 A 
HETATM   30  C   UNL     1      15.654  51.560  48.926  1.00  0.00     0.037 A 
HETATM   31  C   UNL     1      16.129  52.696  49.585  1.00  0.00     0.068 A 
HETATM   32  C   UNL     1      17.500  52.833  49.796  1.00  0.00     0.037 A 
HETATM   33  C   UNL     1      18.384  51.833  49.365  1.00  0.00     0.016 A 
BRANCH  31  34
HETATM   34  O   UNL     1      15.165  53.588  49.963  1.00  0.00    -0.356 OA
HETATM   35  C   UNL     1      14.076  53.075  50.719  1.00  0.00     0.210 C 
ENDBRANCH  31  34
ENDBRANCH  26  28
ENDBRANCH   2  22
TORSDOF 7
ENDMDL
MODEL 7
REMARK VINA RESULT:      -9.1      2.701     12.670
REMARK  7 active torsions:
REMARK  status: ('A' for Active; 'I' for Inactive)
REMARK    1  A    between atoms: C_2  and  C_3 
REMARK    2  A    between atoms: N_4  and  C_5 
REMARK    3  A    between atoms: C_13  and  C_14 
REMARK       I    between atoms: C_14  and  N_15 
REMARK    4  A    between atoms: N_15  and  N_16 
REMARK       I    between atoms: N_16  and  C_17 
REMARK    5  A    between atoms: C_17  and  C_18 
REMARK    6  A    between atoms: C_22  and  C_23 
REMARK    7  A    between atoms: C_26  and  O_27 
ROOT
HETATM    1  N   UNL     1      22.638  47.929  49.572  1.00  0.00    -0.262 N 
HETATM    2  C   UNL     1      23.990  48.086  49.780  1.00  0.00     0.288 C 
HETATM    3  O   UNL     1      24.594  49.089  49.406  1.00  0.00    -0.264 OA
HETATM    4  H   UNL     1      22.097  47.157  49.955  1.00  0.00     0.190 HD
ENDROOT
BRANCH   1   5
HETATM    5  N   UNL     1      21.901  48.952  48.960  1.00  0.00    -0.263 N 
HETATM    6  C   UNL     1      20.527  48.882  49.037  1.00  0.00     0.273 C 
HETATM    7  O   UNL     1      19.979  47.935  49.605  1.00  0.00    -0.266 OA
HETATM    8  H   UNL     1      22.412  49.788  48.699  1.00  0.00     0.190 HD
BRANCH   6   9
HETATM    9  C   UNL     1      19.758  49.969  48.450  1.00  0.00     0.077 A 
HETATM   10  C   UNL     1      18.635  49.995  47.613  1.00  0.00     0.053 A 
HETATM   11  N   UNL     1      18.281  51.354  47.475  1.00  0.00    -0.237 N 
HETATM   12  N   UNL     1      19.158  52.144  48.153  1.00  0.00    -0.178 NA
HETATM   13  C   UNL     1      20.013  51.319  48.734  1.00  0.00     0.158 A 
BRANCH  10  14
HETATM   14  C   UNL     1      17.850  48.841  47.071  1.00  0.00     0.056 C 
HETATM   15  C   UNL     1      16.712  48.432  48.000  1.00  0.00     0.011 C 
ENDBRANCH  10  14
BRANCH  11  16
HETATM   16  C   UNL     1      17.190  52.016  46.809  1.00  0.00     0.058 A 
HETATM   17  C   UNL     1      15.950  52.277  47.396  1.00  0.00     0.031 A 
HETATM   18  C   UNL     1      14.946  52.948  46.683  1.00  0.00     0.002 A 
HETATM   19  C   UNL     1      15.162  53.364  45.374  1.00  0.00     0.000 A 
HETATM   20  C   UNL     1      16.382  53.101  44.765  1.00  0.00     0.002 A 
HETATM   21  C   UNL     1      17.384  52.429  45.472  1.00  0.00     0.031 A 
ENDBRANCH  11  16
ENDBRANCH   6   9
ENDBRANCH   1   5
BRANCH   2  22
HETATM   22  C   UNL     1      24.626  46.996  50.467  1.00  0.00     0.121 A 
HETATM   23  N   UNL     1      24.081  45.743  50.515  1.00  0.00    -0.272 N 
HETATM   24  H   UNL     1      23.205  45.441  50.100  1.00  0.00     0.189 HD
HETATM   25  N   UNL     1      24.823  44.846  51.183  1.00  0.00    -0.174 NA
HETATM   26  C   UNL     1      25.888  45.539  51.617  1.00  0.00     0.089 A 
HETATM   27  C   UNL     1      25.801  46.892  51.184  1.00  0.00     0.071 A 
BRANCH  26  28
HETATM   28  C   UNL     1      26.956  44.917  52.405  1.00  0.00    -0.005 A 
HETATM   29  C   UNL     1      27.161  45.281  53.741  1.00  0.00     0.016 A 
HETATM   30  C   UNL     1      28.159  44.663  54.502  1.00  0.00     0.037 A 
HETATM   31  C   UNL     1      28.972  43.675  53.945  1.00  0.00     0.068 A 
HETATM   32  C   UNL     1      28.788  43.318  52.610  1.00  0.00     0.037 A 
HETATM   33  C   UNL     1      27.786  43.934  51.847  1.00  0.00     0.016 A 
BRANCH  31  34
HETATM   34  O   UNL     1      29.900  43.145  54.797  1.00  0.00    -0.356 OA
HETATM   35  C   UNL     1      30.553  44.048  55.680  1.00  0.00     0.210 C 
ENDBRANCH  31  34
ENDBRANCH  26  28
ENDBRANCH   2  22
TORSDOF 7
ENDMDL
MODEL 8
REMARK VINA RESULT:      -8.9      3.617     12.345
REMARK  7 active torsions:
REMARK  status: ('A' for Active; 'I' for Inactive)
REMARK    1  A    between atoms: C_2  and  C_3 
REMARK    2  A    between atoms: N_4  and  C_5 
REMARK    3  A    between atoms: C_13  and  C_14 
REMARK       I    between atoms: C_14  and  N_15 
REMARK    4  A    between atoms: N_15  and  N_16 
REMARK       I    between atoms: N_16  and  C_17 
REMARK    5  A    between atoms: C_17  and  C_18 
REMARK    6  A    between atoms: C_22  and  C_23 
REMARK    7  A    between atoms: C_26  and  O_27 
ROOT
HETATM    1  N   UNL     1      21.720  48.474  49.557  1.00  0.00    -0.262 N 
HETATM    2  C   UNL     1      22.847  48.599  48.774  1.00  0.00     0.288 C 
HETATM    3  O   UNL     1      22.866  49.305  47.768  1.00  0.00    -0.264 OA
HETATM    4  H   UNL     1      21.705  47.977  50.444  1.00  0.00     0.190 HD
ENDROOT
BRANCH   1   5
HETATM    5  N   UNL     1      20.565  49.202  49.240  1.00  0.00    -0.263 N 
HETATM    6  C   UNL     1      19.360  48.535  49.281  1.00  0.00     0.273 C 
HETATM    7  O   UNL     1      19.317  47.336  49.564  1.00  0.00    -0.266 OA
HETATM    8  H   UNL     1      20.654  50.212  49.222  1.00  0.00     0.190 HD
BRANCH   6   9
HETATM    9  C   UNL     1      18.152  49.297  49.005  1.00  0.00     0.077 A 
HETATM   10  C   UNL     1      17.842  50.659  49.109  1.00  0.00     0.053 A 
HETATM   11  N   UNL     1      16.539  50.805  48.588  1.00  0.00    -0.237 N 
HETATM   12  N   UNL     1      16.038  49.595  48.216  1.00  0.00    -0.178 NA
HETATM   13  C   UNL     1      17.000  48.718  48.452  1.00  0.00     0.158 A 
BRANCH  10  14
HETATM   14  C   UNL     1      18.729  51.786  49.539  1.00  0.00     0.056 C 
HETATM   15  C   UNL     1      19.355  52.511  48.353  1.00  0.00     0.011 C 
ENDBRANCH  10  14
BRANCH  11  16
HETATM   16  C   UNL     1      15.702  51.953  48.358  1.00  0.00     0.058 A 
HETATM   17  C   UNL     1      15.375  52.451  47.094  1.00  0.00     0.031 A 
HETATM   18  C   UNL     1      14.534  53.563  46.956  1.00  0.00     0.002 A 
HETATM   19  C   UNL     1      14.010  54.200  48.076  1.00  0.00     0.000 A 
HETATM   20  C   UNL     1      14.334  53.733  49.343  1.00  0.00     0.002 A 
HETATM   21  C   UNL     1      15.176  52.625  49.484  1.00  0.00     0.031 A 
ENDBRANCH  11  16
ENDBRANCH   6   9
ENDBRANCH   1   5
BRANCH   2  22
HETATM   22  C   UNL     1      23.985  47.850  49.231  1.00  0.00     0.121 A 
HETATM   23  N   UNL     1      25.228  48.406  49.347  1.00  0.00    -0.272 N 
HETATM   24  H   UNL     1      25.493  49.363  49.134  1.00  0.00     0.189 HD
HETATM   25  N   UNL     1      26.166  47.564  49.808  1.00  0.00    -0.174 NA
HETATM   26  C   UNL     1      25.524  46.397  49.977  1.00  0.00     0.089 A 
HETATM   27  C   UNL     1      24.152  46.539  49.628  1.00  0.00     0.071 A 
BRANCH  26  28
HETATM   28  C   UNL     1      26.204  45.196  50.472  1.00  0.00    -0.005 A 
HETATM   29  C   UNL     1      26.416  44.099  49.629  1.00  0.00     0.016 A 
HETATM   30  C   UNL     1      27.094  42.966  50.092  1.00  0.00     0.037 A 
HETATM   31  C   UNL     1      27.570  42.905  51.403  1.00  0.00     0.068 A 
HETATM   32  C   UNL     1      27.348  43.986  52.255  1.00  0.00     0.037 A 
HETATM   33  C   UNL     1      26.671  45.123  51.792  1.00  0.00     0.016 A 
BRANCH  31  34
HETATM   34  O   UNL     1      28.223  41.749  51.726  1.00  0.00    -0.356 OA
HETATM   35  C   UNL     1      28.083  41.282  53.062  1.00  0.00     0.210 C 
ENDBRANCH  31  34
ENDBRANCH  26  28
ENDBRANCH   2  22
TORSDOF 7
ENDMDL
MODEL 9
REMARK VINA RESULT:      -8.9      2.884      3.717
REMARK  7 active torsions:
REMARK  status: ('A' for Active; 'I' for Inactive)
REMARK    1  A    between atoms: C_2  and  C_3 
REMARK    2  A    between atoms: N_4  and  C_5 
REMARK    3  A    between atoms: C_13  and  C_14 
REMARK       I    between atoms: C_14  and  N_15 
REMARK    4  A    between atoms: N_15  and  N_16 
REMARK       I    between atoms: N_16  and  C_17 
REMARK    5  A    between atoms: C_17  and  C_18 
REMARK    6  A    between atoms: C_22  and  C_23 
REMARK    7  A    between atoms: C_26  and  O_27 
ROOT
HETATM    1  N   UNL     1      24.337  45.643  51.083  1.00  0.00    -0.262 N 
HETATM    2  C   UNL     1      24.727  45.055  49.901  1.00  0.00     0.288 C 
HETATM    3  O   UNL     1      25.792  44.450  49.794  1.00  0.00    -0.264 OA
HETATM    4  H   UNL     1      23.422  46.065  51.226  1.00  0.00     0.190 HD
ENDROOT
BRANCH   1   5
HETATM    5  N   UNL     1      25.142  45.520  52.224  1.00  0.00    -0.263 N 
HETATM    6  C   UNL     1      25.947  46.589  52.555  1.00  0.00     0.273 C 
HETATM    7  O   UNL     1      25.965  47.601  51.851  1.00  0.00    -0.266 OA
HETATM    8  H   UNL     1      24.923  44.758  52.856  1.00  0.00     0.190 HD
BRANCH   6   9
HETATM    9  C   UNL     1      26.745  46.488  53.767  1.00  0.00     0.077 A 
HETATM   10  C   UNL     1      27.659  45.532  54.228  1.00  0.00     0.053 A 
HETATM   11  N   UNL     1      28.195  46.047  55.427  1.00  0.00    -0.237 N 
HETATM   12  N   UNL     1      27.618  47.243  55.728  1.00  0.00    -0.178 NA
HETATM   13  C   UNL     1      26.779  47.500  54.739  1.00  0.00     0.158 A 
BRANCH  10  14
HETATM   14  C   UNL     1      28.114  44.277  53.550  1.00  0.00     0.056 C 
HETATM   15  C   UNL     1      27.361  43.048  54.049  1.00  0.00     0.011 C 
ENDBRANCH  10  14
BRANCH  11  16
HETATM   16  C   UNL     1      29.216  45.574  56.323  1.00  0.00     0.058 A 
HETATM   17  C   UNL     1      29.335  45.964  57.659  1.00  0.00     0.031 A 
HETATM   18  C   UNL     1      30.349  45.439  58.473  1.00  0.00     0.002 A 
HETATM   19  C   UNL     1      31.262  44.520  57.966  1.00  0.00     0.000 A 
HETATM   20  C   UNL     1      31.172  44.130  56.636  1.00  0.00     0.002 A 
HETATM   21  C   UNL     1      30.164  44.655  55.821  1.00  0.00     0.031 A 
ENDBRANCH  11  16
ENDBRANCH   6   9
ENDBRANCH   1   5
BRANCH   2  22
HETATM   22  C   UNL     1      23.794  45.200  48.817  1.00  0.00     0.121 A 
HETATM   23  N   UNL     1      23.771  44.345  47.751  1.00  0.00    -0.272 N 
HETATM   24  H   UNL     1      24.378  43.547  47.595  1.00  0.00     0.189 HD
HETATM   25  N   UNL     1      22.820  44.621  46.846  1.00  0.00    -0.174 NA
HETATM   26  C   UNL     1      22.207  45.718  47.318  1.00  0.00     0.089 A 
HETATM   27  C   UNL     1      22.789  46.110  48.555  1.00  0.00     0.071 A 
BRANCH  26  28
HETATM   28  C   UNL     1      21.092  46.356  46.610  1.00  0.00    -0.005 A 
HETATM   29  C   UNL     1      20.667  45.872  45.367  1.00  0.00     0.016 A 
HETATM   30  C   UNL     1      19.582  46.460  44.709  1.00  0.00     0.037 A 
HETATM   31  C   UNL     1      18.903  47.541  45.274  1.00  0.00     0.068 A 
HETATM   32  C   UNL     1      19.331  48.041  46.503  1.00  0.00     0.037 A 
HETATM   33  C   UNL     1      20.417  47.452  47.166  1.00  0.00     0.016 A 
BRANCH  31  34
HETATM   34  O   UNL     1      17.857  48.016  44.535  1.00  0.00    -0.356 OA
HETATM   35  C   UNL     1      16.686  47.211  44.487  1.00  0.00     0.210 C 
ENDBRANCH  31  34
ENDBRANCH  26  28
ENDBRANCH   2  22
TORSDOF 7
ENDMDL
MODEL 10
REMARK VINA RESULT:      -8.7      3.305      3.773
REMARK  7 active torsions:
REMARK  status: ('A' for Active; 'I' for Inactive)
REMARK    1  A    between atoms: C_2  and  C_3 
REMARK    2  A    between atoms: N_4  and  C_5 
REMARK    3  A    between atoms: C_13  and  C_14 
REMARK       I    between atoms: C_14  and  N_15 
REMARK    4  A    between atoms: N_15  and  N_16 
REMARK       I    between atoms: N_16  and  C_17 
REMARK    5  A    between atoms: C_17  and  C_18 
REMARK    6  A    between atoms: C_22  and  C_23 
REMARK    7  A    between atoms: C_26  and  O_27 
ROOT
HETATM    1  N   UNL     1      23.769  45.537  49.832  1.00  0.00    -0.262 N 
HETATM    2  C   UNL     1      23.354  44.625  48.887  1.00  0.00     0.288 C 
HETATM    3  O   UNL     1      24.066  43.690  48.526  1.00  0.00    -0.264 OA
HETATM    4  H   UNL     1      23.167  46.260  50.218  1.00  0.00     0.190 HD
ENDROOT
BRANCH   1   5
HETATM    5  N   UNL     1      25.020  45.385  50.446  1.00  0.00    -0.263 N 
HETATM    6  C   UNL     1      25.047  44.846  51.714  1.00  0.00     0.273 C 
HETATM    7  O   UNL     1      23.999  44.535  52.284  1.00  0.00    -0.266 OA
HETATM    8  H   UNL     1      25.834  45.467  49.848  1.00  0.00     0.190 HD
BRANCH   6   9
HETATM    9  C   UNL     1      26.345  44.637  52.336  1.00  0.00     0.077 A 
HETATM   10  C   UNL     1      26.900  45.071  53.547  1.00  0.00     0.053 A 
HETATM   11  N   UNL     1      28.161  44.446  53.645  1.00  0.00    -0.237 N 
HETATM   12  N   UNL     1      28.406  43.694  52.537  1.00  0.00    -0.178 NA
HETATM   13  C   UNL     1      27.326  43.801  51.781  1.00  0.00     0.158 A 
BRANCH  10  14
HETATM   14  C   UNL     1      26.267  45.906  54.616  1.00  0.00     0.056 C 
HETATM   15  C   UNL     1      26.244  47.386  54.250  1.00  0.00     0.011 C 
ENDBRANCH  10  14
BRANCH  11  16
HETATM   16  C   UNL     1      29.169  44.436  54.673  1.00  0.00     0.058 A 
HETATM   17  C   UNL     1      29.436  45.510  55.526  1.00  0.00     0.031 A 
HETATM   18  C   UNL     1      30.422  45.410  56.517  1.00  0.00     0.002 A 
HETATM   19  C   UNL     1      31.160  44.241  56.671  1.00  0.00     0.000 A 
HETATM   20  C   UNL     1      30.922  43.167  55.824  1.00  0.00     0.002 A 
HETATM   21  C   UNL     1      29.941  43.264  54.832  1.00  0.00     0.031 A 
ENDBRANCH  11  16
ENDBRANCH   6   9
ENDBRANCH   1   5
BRANCH   2  22
HETATM   22  C   UNL     1      22.032  44.851  48.370  1.00  0.00     0.121 A 
HETATM   23  N   UNL     1      21.442  44.006  47.473  1.00  0.00    -0.272 N 
HETATM   24  H   UNL     1      21.841  43.161  47.075  1.00  0.00     0.189 HD
HETATM   25  N   UNL     1      20.199  44.362  47.116  1.00  0.00    -0.174 NA
HETATM   26  C   UNL     1      19.967  45.504  47.783  1.00  0.00     0.089 A 
HETATM   27  C   UNL     1      21.094  45.841  48.584  1.00  0.00     0.071 A 
BRANCH  26  28
HETATM   28  C   UNL     1      18.701  46.234  47.666  1.00  0.00    -0.005 A 
HETATM   29  C   UNL     1      18.021  46.292  46.444  1.00  0.00     0.016 A 
HETATM   30  C   UNL     1      16.797  46.960  46.341  1.00  0.00     0.037 A 
HETATM   31  C   UNL     1      16.229  47.585  47.452  1.00  0.00     0.068 A 
HETATM   32  C   UNL     1      16.906  47.548  48.670  1.00  0.00     0.037 A 
HETATM   33  C   UNL     1      18.133  46.876  48.776  1.00  0.00     0.016 A 
BRANCH  31  34
HETATM   34  O   UNL     1      15.027  48.193  47.220  1.00  0.00    -0.356 OA
HETATM   35  C   UNL     1      14.564  48.210  45.876  1.00  0.00     0.210 C 
ENDBRANCH  31  34
ENDBRANCH  26  28
ENDBRANCH   2  22
TORSDOF 7
ENDMDL
