MODEL 1
REMARK VINA RESULT:      -9.0      0.000      0.000
REMARK  6 active torsions:
REMARK  status: ('A' for Active; 'I' for Inactive)
REMARK    1  A    between atoms: O_2  and  C_3 
REMARK    2  A    between atoms: C_6  and  N_7 
REMARK       I    between atoms: N_7  and  C_8 
REMARK    3  A    between atoms: C_8  and  C_9 
REMARK    4  A    between atoms: C_12  and  N_13 
REMARK       I    between atoms: N_13  and  C_14 
REMARK    5  A    between atoms: C_14  and  C_15 
REMARK       I    between atoms: N_18  and  C_19 
REMARK    6  A    between atoms: C_19  and  C_20 
ROOT
HETATM    1  C   UNL     1      22.243  48.397  48.691  1.00  0.00     0.032 A 
HETATM    2  C   UNL     1      23.339  48.568  49.543  1.00  0.00     0.019 A 
HETATM    3  C   UNL     1      24.160  47.481  49.867  1.00  0.00     0.030 A 
HETATM    4  C   UNL     1      23.894  46.210  49.354  1.00  0.00     0.034 A 
HETATM    5  C   UNL     1      22.800  46.044  48.495  1.00  0.00     0.030 A 
HETATM    6  C   UNL     1      21.975  47.127  48.170  1.00  0.00     0.019 A 
ENDROOT
BRANCH   4   7
HETATM    7  N   UNL     1      24.640  45.057  49.680  1.00  0.00    -0.327 N 
HETATM    8  C   UNL     1      26.013  44.894  49.600  1.00  0.00     0.226 C 
HETATM    9  O   UNL     1      26.805  45.702  49.124  1.00  0.00    -0.273 OA
HETATM   10  H   UNL     1      24.103  44.267  50.015  1.00  0.00     0.169 HD
BRANCH   8  11
HETATM   11  C   UNL     1      26.486  43.545  50.157  1.00  0.00     0.081 C 
HETATM   12  C   UNL     1      27.932  43.614  50.674  1.00  0.00     0.034 C 
HETATM   13  C   UNL     1      28.046  44.360  52.004  1.00  0.00     0.127 C 
HETATM   14  N   UNL     1      27.113  43.829  52.999  1.00  0.00    -0.347 N 
HETATM   15  C   UNL     1      27.333  44.016  54.381  1.00  0.00     0.260 C 
HETATM   16  C   UNL     1      25.721  43.788  52.568  1.00  0.00     0.127 C 
HETATM   17  O   UNL     1      26.384  44.176  55.148  1.00  0.00    -0.267 OA
HETATM   18  C   UNL     1      25.562  43.015  51.261  1.00  0.00     0.034 C 
BRANCH  15  19
HETATM   19  C   UNL     1      28.708  43.951  54.860  1.00  0.00     0.072 A 
HETATM   20  S   UNL     1      29.354  45.278  55.731  1.00  0.00    -0.097 SA
HETATM   21  C   UNL     1      30.857  44.491  55.947  1.00  0.00     0.050 A 
HETATM   22  C   UNL     1      30.866  43.231  55.393  1.00  0.00     0.009 A 
HETATM   23  C   UNL     1      29.620  42.912  54.778  1.00  0.00     0.025 A 
ENDBRANCH  15  19
ENDBRANCH   8  11
ENDBRANCH   4   7
BRANCH   1  24
HETATM   24  C   UNL     1      21.297  49.513  48.401  1.00  0.00     0.256 C 
HETATM   25  N   UNL     1      20.307  49.701  49.348  1.00  0.00    -0.323 N 
HETATM   26  H   UNL     1      20.424  49.237  50.239  1.00  0.00     0.169 HD
HETATM   27  O   UNL     1      21.468  50.168  47.381  1.00  0.00    -0.267 OA
BRANCH  25  28
HETATM   28  C   UNL     1      19.137  50.475  49.209  1.00  0.00     0.035 A 
HETATM   29  C   UNL     1      17.859  49.931  49.067  1.00  0.00     0.032 A 
HETATM   30  C   UNL     1      16.729  50.758  49.026  1.00  0.00     0.039 A 
HETATM   31  C   UNL     1      16.865  52.141  49.127  1.00  0.00     0.068 A 
HETATM   32  C   UNL     1      18.143  52.690  49.235  1.00  0.00     0.039 A 
HETATM   33  C   UNL     1      19.271  51.864  49.283  1.00  0.00     0.032 A 
BRANCH  31  34
HETATM   34  O   UNL     1      15.843  53.049  49.126  1.00  0.00    -0.356 OA
HETATM   35  C   UNL     1      14.710  52.722  49.922  1.00  0.00     0.210 C 
ENDBRANCH  31  34
ENDBRANCH  25  28
ENDBRANCH   1  24
TORSDOF 6
ENDMDL
MODEL 2
REMARK VINA RESULT:      -8.9      4.321     11.706
REMARK  6 active torsions:
REMARK  status: ('A' for Active; 'I' for Inactive)
REMARK    1  A    between atoms: O_2  and  C_3 
REMARK    2  A    between atoms: C_6  and  N_7 
REMARK       I    between atoms: N_7  and  C_8 
REMARK    3  A    between atoms: C_8  and  C_9 
REMARK    4  A    between atoms: C_12  and  N_13 
REMARK       I    between atoms: N_13  and  C_14 
REMARK    5  A    between atoms: C_14  and  C_15 
REMARK       I    between atoms: N_18  and  C_19 
REMARK    6  A    between atoms: C_19  and  C_20 
ROOT
HETATM    1  C   UNL     1      25.577  45.670  49.662  1.00  0.00     0.032 A 
HETATM    2  C   UNL     1      26.101  46.929  49.976  1.00  0.00     0.019 A 
HETATM    3  C   UNL     1      25.283  48.065  49.937  1.00  0.00     0.030 A 
HETATM    4  C   UNL     1      23.939  47.963  49.577  1.00  0.00     0.034 A 
HETATM    5  C   UNL     1      23.416  46.699  49.270  1.00  0.00     0.030 A 
HETATM    6  C   UNL     1      24.230  45.561  49.305  1.00  0.00     0.019 A 
ENDROOT
BRANCH   4   7
HETATM    7  N   UNL     1      23.068  49.067  49.460  1.00  0.00    -0.327 N 
HETATM    8  C   UNL     1      22.870  49.867  48.347  1.00  0.00     0.226 C 
HETATM    9  O   UNL     1      23.507  49.809  47.300  1.00  0.00    -0.273 OA
HETATM   10  H   UNL     1      22.526  49.288  50.287  1.00  0.00     0.169 HD
BRANCH   8  11
HETATM   11  C   UNL     1      21.751  50.898  48.546  1.00  0.00     0.081 C 
HETATM   12  C   UNL     1      20.660  50.774  47.471  1.00  0.00     0.034 C 
HETATM   13  C   UNL     1      19.762  49.555  47.681  1.00  0.00     0.127 C 
HETATM   14  N   UNL     1      19.224  49.513  49.043  1.00  0.00    -0.347 N 
HETATM   15  C   UNL     1      18.052  48.786  49.343  1.00  0.00     0.260 C 
HETATM   16  C   UNL     1      20.229  49.582  50.097  1.00  0.00     0.127 C 
HETATM   17  O   UNL     1      17.932  48.217  50.428  1.00  0.00    -0.267 OA
HETATM   18  C   UNL     1      21.121  50.811  49.942  1.00  0.00     0.034 C 
BRANCH  15  19
HETATM   19  C   UNL     1      16.982  48.792  48.354  1.00  0.00     0.072 A 
HETATM   20  S   UNL     1      16.702  47.385  47.416  1.00  0.00    -0.097 SA
HETATM   21  C   UNL     1      15.392  48.112  46.592  1.00  0.00     0.050 A 
HETATM   22  C   UNL     1      15.149  49.392  47.035  1.00  0.00     0.009 A 
HETATM   23  C   UNL     1      16.057  49.781  48.064  1.00  0.00     0.025 A 
ENDBRANCH  15  19
ENDBRANCH   8  11
ENDBRANCH   4   7
BRANCH   1  24
HETATM   24  C   UNL     1      26.442  44.457  49.603  1.00  0.00     0.256 C 
HETATM   25  N   UNL     1      25.854  43.346  49.028  1.00  0.00    -0.323 N 
HETATM   26  H   UNL     1      24.998  43.492  48.508  1.00  0.00     0.169 HD
HETATM   27  O   UNL     1      27.581  44.534  50.046  1.00  0.00    -0.267 OA
BRANCH  25  28
HETATM   28  C   UNL     1      26.315  42.015  49.086  1.00  0.00     0.035 A 
HETATM   29  C   UNL     1      27.232  41.470  48.186  1.00  0.00     0.032 A 
HETATM   30  C   UNL     1      27.717  40.167  48.357  1.00  0.00     0.039 A 
HETATM   31  C   UNL     1      27.288  39.392  49.434  1.00  0.00     0.068 A 
HETATM   32  C   UNL     1      26.346  39.921  50.316  1.00  0.00     0.039 A 
HETATM   33  C   UNL     1      25.867  41.225  50.149  1.00  0.00     0.032 A 
BRANCH  31  34
HETATM   34  O   UNL     1      27.704  38.123  49.723  1.00  0.00    -0.356 OA
HETATM   35  C   UNL     1      29.101  37.877  49.611  1.00  0.00     0.210 C 
ENDBRANCH  31  34
ENDBRANCH  25  28
ENDBRANCH   1  24
TORSDOF 6
ENDMDL
MODEL 3
REMARK VINA RESULT:      -8.8      3.369     11.547
REMARK  6 active torsions:
REMARK  status: ('A' for Active; 'I' for Inactive)
REMARK    1  A    between atoms: O_2  and  C_3 
REMARK    2  A    between atoms: C_6  and  N_7 
REMARK       I    between atoms: N_7  and  C_8 
REMARK    3  A    between atoms: C_8  and  C_9 
REMARK    4  A    between atoms: C_12  and  N_13 
REMARK       I    between atoms: N_13  and  C_14 
REMARK    5  A    between atoms: C_14  and  C_15 
REMARK       I    between atoms: N_18  and  C_19 
REMARK    6  A    between atoms: C_19  and  C_20 
ROOT
HETATM    1  C   UNL     1      25.491  44.855  52.416  1.00  0.00     0.032 A 
HETATM    2  C   UNL     1      24.819  43.818  51.760  1.00  0.00     0.019 A 
HETATM    3  C   UNL     1      24.005  44.092  50.655  1.00  0.00     0.030 A 
HETATM    4  C   UNL     1      23.843  45.400  50.195  1.00  0.00     0.034 A 
HETATM    5  C   UNL     1      24.523  46.434  50.851  1.00  0.00     0.030 A 
HETATM    6  C   UNL     1      25.337  46.167  51.958  1.00  0.00     0.019 A 
ENDROOT
BRANCH   4   7
HETATM    7  N   UNL     1      22.995  45.760  49.126  1.00  0.00    -0.327 N 
HETATM    8  C   UNL     1      21.697  45.333  48.901  1.00  0.00     0.226 C 
HETATM    9  O   UNL     1      21.102  44.477  49.547  1.00  0.00    -0.273 OA
HETATM   10  H   UNL     1      23.388  46.410  48.456  1.00  0.00     0.169 HD
BRANCH   8  11
HETATM   11  C   UNL     1      21.039  46.033  47.705  1.00  0.00     0.081 C 
HETATM   12  C   UNL     1      19.735  46.741  48.103  1.00  0.00     0.034 C 
HETATM   13  C   UNL     1      19.980  48.025  48.895  1.00  0.00     0.127 C 
HETATM   14  N   UNL     1      20.919  48.912  48.203  1.00  0.00    -0.347 N 
HETATM   15  C   UNL     1      20.952  50.296  48.475  1.00  0.00     0.260 C 
HETATM   16  C   UNL     1      22.190  48.293  47.846  1.00  0.00     0.127 C 
HETATM   17  O   UNL     1      22.018  50.913  48.447  1.00  0.00    -0.267 OA
HETATM   18  C   UNL     1      21.985  47.027  47.019  1.00  0.00     0.034 C 
BRANCH  15  19
HETATM   19  C   UNL     1      19.682  50.966  48.725  1.00  0.00     0.072 A 
HETATM   20  S   UNL     1      18.546  51.107  47.449  1.00  0.00    -0.097 SA
HETATM   21  C   UNL     1      17.418  51.910  48.453  1.00  0.00     0.050 A 
HETATM   22  C   UNL     1      17.879  52.048  49.742  1.00  0.00     0.009 A 
HETATM   23  C   UNL     1      19.180  51.490  49.904  1.00  0.00     0.025 A 
ENDBRANCH  15  19
ENDBRANCH   8  11
ENDBRANCH   4   7
BRANCH   1  24
HETATM   24  C   UNL     1      26.291  44.609  53.651  1.00  0.00     0.256 C 
HETATM   25  N   UNL     1      27.382  45.442  53.817  1.00  0.00    -0.323 N 
HETATM   26  H   UNL     1      27.428  46.267  53.233  1.00  0.00     0.169 HD
HETATM   27  O   UNL     1      25.926  43.721  54.411  1.00  0.00    -0.267 OA
BRANCH  25  28
HETATM   28  C   UNL     1      28.453  45.269  54.718  1.00  0.00     0.035 A 
HETATM   29  C   UNL     1      28.742  46.152  55.759  1.00  0.00     0.032 A 
HETATM   30  C   UNL     1      29.766  45.870  56.674  1.00  0.00     0.039 A 
HETATM   31  C   UNL     1      30.513  44.700  56.555  1.00  0.00     0.068 A 
HETATM   32  C   UNL     1      30.249  43.832  55.495  1.00  0.00     0.039 A 
HETATM   33  C   UNL     1      29.222  44.109  54.587  1.00  0.00     0.032 A 
BRANCH  31  34
HETATM   34  O   UNL     1      31.516  44.301  57.394  1.00  0.00    -0.356 OA
HETATM   35  C   UNL     1      32.057  43.006  57.158  1.00  0.00     0.210 C 
ENDBRANCH  31  34
ENDBRANCH  25  28
ENDBRANCH   1  24
TORSDOF 6
ENDMDL
MODEL 4
REMARK VINA RESULT:      -8.7      3.449     11.703
REMARK  6 active torsions:
REMARK  status: ('A' for Active; 'I' for Inactive)
REMARK    1  A    between atoms: O_2  and  C_3 
REMARK    2  A    between atoms: C_6  and  N_7 
REMARK       I    between atoms: N_7  and  C_8 
REMARK    3  A    between atoms: C_8  and  C_9 
REMARK    4  A    between atoms: C_12  and  N_13 
REMARK       I    between atoms: N_13  and  C_14 
REMARK    5  A    between atoms: C_14  and  C_15 
REMARK       I    between atoms: N_18  and  C_19 
REMARK    6  A    between atoms: C_19  and  C_20 
ROOT
HETATM    1  C   UNL     1      25.450  44.425  50.690  1.00  0.00     0.032 A 
HETATM    2  C   UNL     1      24.453  43.446  50.761  1.00  0.00     0.019 A 
HETATM    3  C   UNL     1      23.170  43.706  50.265  1.00  0.00     0.030 A 
HETATM    4  C   UNL     1      22.861  44.945  49.702  1.00  0.00     0.034 A 
HETATM    5  C   UNL     1      23.865  45.920  49.627  1.00  0.00     0.030 A 
HETATM    6  C   UNL     1      25.148  45.667  50.123  1.00  0.00     0.019 A 
ENDROOT
BRANCH   4   7
HETATM    7  N   UNL     1      21.578  45.301  49.234  1.00  0.00    -0.327 N 
HETATM    8  C   UNL     1      21.196  45.532  47.923  1.00  0.00     0.226 C 
HETATM    9  O   UNL     1      21.947  45.570  46.953  1.00  0.00    -0.273 OA
HETATM   10  H   UNL     1      20.862  45.388  49.943  1.00  0.00     0.169 HD
BRANCH   8  11
HETATM   11  C   UNL     1      19.689  45.774  47.776  1.00  0.00     0.081 C 
HETATM   12  C   UNL     1      19.146  46.695  48.880  1.00  0.00     0.034 C 
HETATM   13  C   UNL     1      19.541  48.158  48.672  1.00  0.00     0.127 C 
HETATM   14  N   UNL     1      19.196  48.622  47.326  1.00  0.00    -0.347 N 
HETATM   15  C   UNL     1      19.031  49.995  47.046  1.00  0.00     0.260 C 
HETATM   16  C   UNL     1      19.729  47.802  46.245  1.00  0.00     0.127 C 
HETATM   17  O   UNL     1      19.368  50.454  45.955  1.00  0.00    -0.267 OA
HETATM   18  C   UNL     1      19.321  46.339  46.397  1.00  0.00     0.034 C 
BRANCH  15  19
HETATM   19  C   UNL     1      18.398  50.821  48.066  1.00  0.00     0.072 A 
HETATM   20  S   UNL     1      16.742  50.574  48.432  1.00  0.00    -0.097 SA
HETATM   21  C   UNL     1      16.755  51.793  49.632  1.00  0.00     0.050 A 
HETATM   22  C   UNL     1      17.999  52.363  49.775  1.00  0.00     0.009 A 
HETATM   23  C   UNL     1      18.952  51.792  48.883  1.00  0.00     0.025 A 
ENDBRANCH  15  19
ENDBRANCH   8  11
ENDBRANCH   4   7
BRANCH   1  24
HETATM   24  C   UNL     1      26.798  44.213  51.293  1.00  0.00     0.256 C 
HETATM   25  N   UNL     1      26.791  43.817  52.617  1.00  0.00    -0.323 N 
HETATM   26  H   UNL     1      25.911  43.496  53.000  1.00  0.00     0.169 HD
HETATM   27  O   UNL     1      27.783  44.389  50.587  1.00  0.00    -0.267 OA
BRANCH  25  28
HETATM   28  C   UNL     1      27.884  43.812  53.507  1.00  0.00     0.035 A 
HETATM   29  C   UNL     1      28.851  42.806  53.545  1.00  0.00     0.032 A 
HETATM   30  C   UNL     1      29.962  42.911  54.392  1.00  0.00     0.039 A 
HETATM   31  C   UNL     1      30.117  44.026  55.214  1.00  0.00     0.068 A 
HETATM   32  C   UNL     1      29.136  45.017  55.204  1.00  0.00     0.039 A 
HETATM   33  C   UNL     1      28.030  44.916  54.353  1.00  0.00     0.032 A 
BRANCH  31  34
HETATM   34  O   UNL     1      31.164  44.257  56.062  1.00  0.00    -0.356 OA
HETATM   35  C   UNL     1      31.462  43.221  56.991  1.00  0.00     0.210 C 
ENDBRANCH  31  34
ENDBRANCH  25  28
ENDBRANCH   1  24
TORSDOF 6
ENDMDL
MODEL 5
REMARK VINA RESULT:      -8.7      3.809     12.142
REMARK  6 active torsions:
REMARK  status: ('A' for Active; 'I' for Inactive)
REMARK    1  A    between atoms: O_2  and  C_3 
REMARK    2  A    between atoms: C_6  and  N_7 
REMARK       I    between atoms: N_7  and  C_8 
REMARK    3  A    between atoms: C_8  and  C_9 
REMARK    4  A    between atoms: C_12  and  N_13 
REMARK       I    between atoms: N_13  and  C_14 
REMARK    5  A    between atoms: C_14  and  C_15 
REMARK       I    between atoms: N_18  and  C_19 
REMARK    6  A    between atoms: C_19  and  C_20 
ROOT
HETATM    1  C   UNL     1      25.734  45.939  50.313  1.00  0.00     0.032 A 
HETATM    2  C   UNL     1      24.522  45.431  49.833  1.00  0.00     0.019 A 
HETATM    3  C   UNL     1      23.477  46.299  49.492  1.00  0.00     0.030 A 
HETATM    4  C   UNL     1      23.622  47.680  49.634  1.00  0.00     0.034 A 
HETATM    5  C   UNL     1      24.840  48.184  50.108  1.00  0.00     0.030 A 
HETATM    6  C   UNL     1      25.887  47.322  50.452  1.00  0.00     0.019 A 
ENDROOT
BRANCH   4   7
HETATM    7  N   UNL     1      22.597  48.612  49.367  1.00  0.00    -0.327 N 
HETATM    8  C   UNL     1      21.834  48.715  48.215  1.00  0.00     0.226 C 
HETATM    9  O   UNL     1      22.001  48.071  47.185  1.00  0.00    -0.273 OA
HETATM   10  H   UNL     1      22.400  49.272  50.109  1.00  0.00     0.169 HD
BRANCH   8  11
HETATM   11  C   UNL     1      20.725  49.769  48.328  1.00  0.00     0.081 C 
HETATM   12  C   UNL     1      19.859  49.827  47.061  1.00  0.00     0.034 C 
HETATM   13  C   UNL     1      18.906  48.637  46.944  1.00  0.00     0.127 C 
HETATM   14  N   UNL     1      18.115  48.460  48.163  1.00  0.00    -0.347 N 
HETATM   15  C   UNL     1      16.889  47.762  48.144  1.00  0.00     0.260 C 
HETATM   16  C   UNL     1      18.899  48.354  49.388  1.00  0.00     0.127 C 
HETATM   17  O   UNL     1      16.547  47.074  49.107  1.00  0.00    -0.267 OA
HETATM   18  C   UNL     1      19.835  49.548  49.559  1.00  0.00     0.034 C 
BRANCH  15  19
HETATM   19  C   UNL     1      16.030  47.937  46.980  1.00  0.00     0.072 A 
HETATM   20  S   UNL     1      16.297  46.971  45.591  1.00  0.00    -0.097 SA
HETATM   21  C   UNL     1      14.987  47.688  44.757  1.00  0.00     0.050 A 
HETATM   22  C   UNL     1      14.338  48.627  45.525  1.00  0.00     0.009 A 
HETATM   23  C   UNL     1      14.929  48.761  46.815  1.00  0.00     0.025 A 
ENDBRANCH  15  19
ENDBRANCH   8  11
ENDBRANCH   4   7
BRANCH   1  24
HETATM   24  C   UNL     1      26.831  45.039  50.771  1.00  0.00     0.256 C 
HETATM   25  N   UNL     1      26.856  44.793  52.131  1.00  0.00    -0.323 N 
HETATM   26  H   UNL     1      26.034  45.047  52.663  1.00  0.00     0.169 HD
HETATM   27  O   UNL     1      27.600  44.588  49.932  1.00  0.00    -0.267 OA
BRANCH  25  28
HETATM   28  C   UNL     1      27.912  44.224  52.872  1.00  0.00     0.035 A 
HETATM   29  C   UNL     1      28.778  43.252  52.368  1.00  0.00     0.032 A 
HETATM   30  C   UNL     1      29.864  42.796  53.128  1.00  0.00     0.039 A 
HETATM   31  C   UNL     1      30.095  43.310  54.403  1.00  0.00     0.068 A 
HETATM   32  C   UNL     1      29.212  44.256  54.923  1.00  0.00     0.039 A 
HETATM   33  C   UNL     1      28.132  44.716  54.162  1.00  0.00     0.032 A 
BRANCH  31  34
HETATM   34  O   UNL     1      31.129  42.967  55.229  1.00  0.00    -0.356 OA
HETATM   35  C   UNL     1      31.210  43.672  56.463  1.00  0.00     0.210 C 
ENDBRANCH  31  34
ENDBRANCH  25  28
ENDBRANCH   1  24
TORSDOF 6
ENDMDL
MODEL 6
REMARK VINA RESULT:      -8.3     19.895     24.051
REMARK  6 active torsions:
REMARK  status: ('A' for Active; 'I' for Inactive)
REMARK    1  A    between atoms: O_2  and  C_3 
REMARK    2  A    between atoms: C_6  and  N_7 
REMARK       I    between atoms: N_7  and  C_8 
REMARK    3  A    between atoms: C_8  and  C_9 
REMARK    4  A    between atoms: C_12  and  N_13 
REMARK       I    between atoms: N_13  and  C_14 
REMARK    5  A    between atoms: C_14  and  C_15 
REMARK       I    between atoms: N_18  and  C_19 
REMARK    6  A    between atoms: C_19  and  C_20 
ROOT
HETATM    1  C   UNL     1      38.836  41.220  63.663  1.00  0.00     0.032 A 
HETATM    2  C   UNL     1      37.842  41.276  64.645  1.00  0.00     0.019 A 
HETATM    3  C   UNL     1      37.098  42.447  64.833  1.00  0.00     0.030 A 
HETATM    4  C   UNL     1      37.342  43.578  64.053  1.00  0.00     0.034 A 
HETATM    5  C   UNL     1      38.334  43.516  63.065  1.00  0.00     0.030 A 
HETATM    6  C   UNL     1      39.081  42.349  62.875  1.00  0.00     0.019 A 
ENDROOT
BRANCH   4   7
HETATM    7  N   UNL     1      36.674  44.811  64.221  1.00  0.00    -0.327 N 
HETATM    8  C   UNL     1      36.832  45.717  65.257  1.00  0.00     0.226 C 
HETATM    9  O   UNL     1      37.510  45.543  66.265  1.00  0.00    -0.273 OA
HETATM   10  H   UNL     1      36.012  45.053  63.495  1.00  0.00     0.169 HD
BRANCH   8  11
HETATM   11  C   UNL     1      36.033  47.009  65.044  1.00  0.00     0.081 C 
HETATM   12  C   UNL     1      35.793  47.758  66.364  1.00  0.00     0.034 C 
HETATM   13  C   UNL     1      37.051  48.458  66.880  1.00  0.00     0.127 C 
HETATM   14  N   UNL     1      37.656  49.305  65.850  1.00  0.00    -0.347 N 
HETATM   15  C   UNL     1      38.513  50.372  66.191  1.00  0.00     0.260 C 
HETATM   16  C   UNL     1      37.944  48.623  64.593  1.00  0.00     0.127 C 
HETATM   17  O   UNL     1      39.469  50.661  65.471  1.00  0.00    -0.267 OA
HETATM   18  C   UNL     1      36.699  47.944  64.026  1.00  0.00     0.034 C 
BRANCH  15  19
HETATM   19  C   UNL     1      38.187  51.146  67.383  1.00  0.00     0.072 A 
HETATM   20  S   UNL     1      38.947  50.754  68.868  1.00  0.00    -0.097 SA
HETATM   21  C   UNL     1      38.135  52.013  69.694  1.00  0.00     0.050 A 
HETATM   22  C   UNL     1      37.319  52.738  68.856  1.00  0.00     0.009 A 
HETATM   23  C   UNL     1      37.360  52.248  67.518  1.00  0.00     0.025 A 
ENDBRANCH  15  19
ENDBRANCH   8  11
ENDBRANCH   4   7
BRANCH   1  24
HETATM   24  C   UNL     1      39.708  40.021  63.500  1.00  0.00     0.256 C 
HETATM   25  N   UNL     1      40.460  39.689  64.612  1.00  0.00    -0.323 N 
HETATM   26  H   UNL     1      40.210  40.128  65.488  1.00  0.00     0.169 HD
HETATM   27  O   UNL     1      39.685  39.428  62.429  1.00  0.00    -0.267 OA
BRANCH  25  28
HETATM   28  C   UNL     1      41.553  38.800  64.662  1.00  0.00     0.035 A 
HETATM   29  C   UNL     1      41.459  37.437  64.374  1.00  0.00     0.032 A 
HETATM   30  C   UNL     1      42.603  36.628  64.355  1.00  0.00     0.039 A 
HETATM   31  C   UNL     1      43.857  37.176  64.624  1.00  0.00     0.068 A 
HETATM   32  C   UNL     1      43.949  38.530  64.945  1.00  0.00     0.039 A 
HETATM   33  C   UNL     1      42.809  39.339  64.958  1.00  0.00     0.032 A 
BRANCH  31  34
HETATM   34  O   UNL     1      45.045  36.501  64.611  1.00  0.00    -0.356 OA
HETATM   35  C   UNL     1      46.190  37.250  64.219  1.00  0.00     0.210 C 
ENDBRANCH  31  34
ENDBRANCH  25  28
ENDBRANCH   1  24
TORSDOF 6
ENDMDL
MODEL 7
REMARK VINA RESULT:      -8.2      3.555     11.968
REMARK  6 active torsions:
REMARK  status: ('A' for Active; 'I' for Inactive)
REMARK    1  A    between atoms: O_2  and  C_3 
REMARK    2  A    between atoms: C_6  and  N_7 
REMARK       I    between atoms: N_7  and  C_8 
REMARK    3  A    between atoms: C_8  and  C_9 
REMARK    4  A    between atoms: C_12  and  N_13 
REMARK       I    between atoms: N_13  and  C_14 
REMARK    5  A    between atoms: C_14  and  C_15 
REMARK       I    between atoms: N_18  and  C_19 
REMARK    6  A    between atoms: C_19  and  C_20 
ROOT
HETATM    1  C   UNL     1      25.962  45.318  52.849  1.00  0.00     0.032 A 
HETATM    2  C   UNL     1      25.692  46.680  52.681  1.00  0.00     0.019 A 
HETATM    3  C   UNL     1      25.021  47.132  51.539  1.00  0.00     0.030 A 
HETATM    4  C   UNL     1      24.621  46.237  50.546  1.00  0.00     0.034 A 
HETATM    5  C   UNL     1      24.888  44.872  50.721  1.00  0.00     0.030 A 
HETATM    6  C   UNL     1      25.560  44.415  51.860  1.00  0.00     0.019 A 
ENDROOT
BRANCH   4   7
HETATM    7  N   UNL     1      23.994  46.623  49.342  1.00  0.00    -0.327 N 
HETATM    8  C   UNL     1      22.807  46.135  48.819  1.00  0.00     0.226 C 
HETATM    9  O   UNL     1      22.156  45.199  49.270  1.00  0.00    -0.273 OA
HETATM   10  H   UNL     1      24.469  47.342  48.811  1.00  0.00     0.169 HD
BRANCH   8  11
HETATM   11  C   UNL     1      22.365  46.880  47.552  1.00  0.00     0.081 C 
HETATM   12  C   UNL     1      20.941  46.490  47.127  1.00  0.00     0.034 C 
HETATM   13  C   UNL     1      19.869  47.104  48.028  1.00  0.00     0.127 C 
HETATM   14  N   UNL     1      20.045  48.551  48.162  1.00  0.00    -0.347 N 
HETATM   15  C   UNL     1      18.970  49.386  48.537  1.00  0.00     0.260 C 
HETATM   16  C   UNL     1      21.370  48.965  48.609  1.00  0.00     0.127 C 
HETATM   17  O   UNL     1      19.167  50.379  49.239  1.00  0.00    -0.267 OA
HETATM   18  C   UNL     1      22.466  48.403  47.707  1.00  0.00     0.034 C 
BRANCH  15  19
HETATM   19  C   UNL     1      17.649  49.063  48.014  1.00  0.00     0.072 A 
HETATM   20  S   UNL     1      17.222  49.588  46.440  1.00  0.00    -0.097 SA
HETATM   21  C   UNL     1      15.678  48.858  46.542  1.00  0.00     0.050 A 
HETATM   22  C   UNL     1      15.495  48.203  47.738  1.00  0.00     0.009 A 
HETATM   23  C   UNL     1      16.638  48.307  48.583  1.00  0.00     0.025 A 
ENDBRANCH  15  19
ENDBRANCH   8  11
ENDBRANCH   4   7
BRANCH   1  24
HETATM   24  C   UNL     1      26.755  44.815  54.008  1.00  0.00     0.256 C 
HETATM   25  N   UNL     1      27.641  45.728  54.551  1.00  0.00    -0.323 N 
HETATM   26  H   UNL     1      27.532  46.696  54.280  1.00  0.00     0.169 HD
HETATM   27  O   UNL     1      26.561  43.669  54.391  1.00  0.00    -0.267 OA
BRANCH  25  28
HETATM   28  C   UNL     1      28.694  45.458  55.448  1.00  0.00     0.035 A 
HETATM   29  C   UNL     1      28.840  46.086  56.686  1.00  0.00     0.032 A 
HETATM   30  C   UNL     1      29.860  45.703  57.567  1.00  0.00     0.039 A 
HETATM   31  C   UNL     1      30.747  44.686  57.218  1.00  0.00     0.068 A 
HETATM   32  C   UNL     1      30.624  44.079  55.968  1.00  0.00     0.039 A 
HETATM   33  C   UNL     1      29.602  44.456  55.091  1.00  0.00     0.032 A 
BRANCH  31  34
HETATM   34  O   UNL     1      31.762  44.206  57.998  1.00  0.00    -0.356 OA
HETATM   35  C   UNL     1      32.496  43.107  57.470  1.00  0.00     0.210 C 
ENDBRANCH  31  34
ENDBRANCH  25  28
ENDBRANCH   1  24
TORSDOF 6
ENDMDL
MODEL 8
REMARK VINA RESULT:      -8.1      4.483     12.620
REMARK  6 active torsions:
REMARK  status: ('A' for Active; 'I' for Inactive)
REMARK    1  A    between atoms: O_2  and  C_3 
REMARK    2  A    between atoms: C_6  and  N_7 
REMARK       I    between atoms: N_7  and  C_8 
REMARK    3  A    between atoms: C_8  and  C_9 
REMARK    4  A    between atoms: C_12  and  N_13 
REMARK       I    between atoms: N_13  and  C_14 
REMARK    5  A    between atoms: C_14  and  C_15 
REMARK       I    between atoms: N_18  and  C_19 
REMARK    6  A    between atoms: C_19  and  C_20 
ROOT
HETATM    1  C   UNL     1      23.168  48.597  49.410  1.00  0.00     0.032 A 
HETATM    2  C   UNL     1      21.976  47.978  49.018  1.00  0.00     0.019 A 
HETATM    3  C   UNL     1      20.809  48.732  48.852  1.00  0.00     0.030 A 
HETATM    4  C   UNL     1      20.811  50.109  49.083  1.00  0.00     0.034 A 
HETATM    5  C   UNL     1      22.009  50.726  49.468  1.00  0.00     0.030 A 
HETATM    6  C   UNL     1      23.178  49.976  49.638  1.00  0.00     0.019 A 
ENDROOT
BRANCH   4   7
HETATM    7  N   UNL     1      19.664  50.926  48.992  1.00  0.00    -0.327 N 
HETATM    8  C   UNL     1      18.561  50.922  49.831  1.00  0.00     0.226 C 
HETATM    9  O   UNL     1      18.353  50.123  50.738  1.00  0.00    -0.273 OA
HETATM   10  H   UNL     1      19.658  51.590  48.228  1.00  0.00     0.169 HD
BRANCH   8  11
HETATM   11  C   UNL     1      17.560  52.036  49.501  1.00  0.00     0.081 C 
HETATM   12  C   UNL     1      18.007  52.870  48.291  1.00  0.00     0.034 C 
HETATM   13  C   UNL     1      17.827  52.127  46.966  1.00  0.00     0.127 C 
HETATM   14  N   UNL     1      16.466  51.606  46.824  1.00  0.00    -0.347 N 
HETATM   15  C   UNL     1      15.928  51.305  45.554  1.00  0.00     0.260 C 
HETATM   16  C   UNL     1      16.015  50.771  47.930  1.00  0.00     0.127 C 
HETATM   17  O   UNL     1      15.156  50.356  45.412  1.00  0.00    -0.267 OA
HETATM   18  C   UNL     1      16.143  51.495  49.268  1.00  0.00     0.034 C 
BRANCH  15  19
HETATM   19  C   UNL     1      16.271  52.190  44.448  1.00  0.00     0.072 A 
HETATM   20  S   UNL     1      15.575  53.754  44.382  1.00  0.00    -0.097 SA
HETATM   21  C   UNL     1      16.418  54.142  42.945  1.00  0.00     0.050 A 
HETATM   22  C   UNL     1      17.236  53.115  42.532  1.00  0.00     0.009 A 
HETATM   23  C   UNL     1      17.164  51.993  43.408  1.00  0.00     0.025 A 
ENDBRANCH  15  19
ENDBRANCH   8  11
ENDBRANCH   4   7
BRANCH   1  24
HETATM   24  C   UNL     1      24.404  47.808  49.685  1.00  0.00     0.256 C 
HETATM   25  N   UNL     1      24.213  46.444  49.807  1.00  0.00    -0.323 N 
HETATM   26  H   UNL     1      23.327  46.071  49.492  1.00  0.00     0.169 HD
HETATM   27  O   UNL     1      25.468  48.408  49.770  1.00  0.00    -0.267 OA
BRANCH  25  28
HETATM   28  C   UNL     1      25.123  45.503  50.330  1.00  0.00     0.035 A 
HETATM   29  C   UNL     1      26.229  45.020  49.629  1.00  0.00     0.032 A 
HETATM   30  C   UNL     1      27.144  44.155  50.243  1.00  0.00     0.039 A 
HETATM   31  C   UNL     1      26.962  43.763  51.568  1.00  0.00     0.068 A 
HETATM   32  C   UNL     1      25.840  44.217  52.261  1.00  0.00     0.039 A 
HETATM   33  C   UNL     1      24.930  45.087  51.651  1.00  0.00     0.032 A 
BRANCH  31  34
HETATM   34  O   UNL     1      27.794  42.948  52.284  1.00  0.00    -0.356 OA
HETATM   35  C   UNL     1      29.096  43.456  52.551  1.00  0.00     0.210 C 
ENDBRANCH  31  34
ENDBRANCH  25  28
ENDBRANCH   1  24
TORSDOF 6
ENDMDL
MODEL 9
REMARK VINA RESULT:      -8.1      4.454     12.065
REMARK  6 active torsions:
REMARK  status: ('A' for Active; 'I' for Inactive)
REMARK    1  A    between atoms: O_2  and  C_3 
REMARK    2  A    between atoms: C_6  and  N_7 
REMARK       I    between atoms: N_7  and  C_8 
REMARK    3  A    between atoms: C_8  and  C_9 
REMARK    4  A    between atoms: C_12  and  N_13 
REMARK       I    between atoms: N_13  and  C_14 
REMARK    5  A    between atoms: C_14  and  C_15 
REMARK       I    between atoms: N_18  and  C_19 
REMARK    6  A    between atoms: C_19  and  C_20 
ROOT
HETATM    1  C   UNL     1      24.332  48.018  49.482  1.00  0.00     0.032 A 
HETATM    2  C   UNL     1      23.200  47.246  49.199  1.00  0.00     0.019 A 
HETATM    3  C   UNL     1      22.075  47.831  48.607  1.00  0.00     0.030 A 
HETATM    4  C   UNL     1      22.059  49.192  48.297  1.00  0.00     0.034 A 
HETATM    5  C   UNL     1      23.198  49.960  48.574  1.00  0.00     0.030 A 
HETATM    6  C   UNL     1      24.324  49.381  49.169  1.00  0.00     0.019 A 
ENDROOT
BRANCH   4   7
HETATM    7  N   UNL     1      20.944  49.863  47.752  1.00  0.00    -0.327 N 
HETATM    8  C   UNL     1      19.980  50.583  48.438  1.00  0.00     0.226 C 
HETATM    9  O   UNL     1      19.878  50.666  49.657  1.00  0.00    -0.273 OA
HETATM   10  H   UNL     1      20.850  49.813  46.745  1.00  0.00     0.169 HD
BRANCH   8  11
HETATM   11  C   UNL     1      18.984  51.284  47.504  1.00  0.00     0.081 C 
HETATM   12  C   UNL     1      18.851  50.555  46.158  1.00  0.00     0.034 C 
HETATM   13  C   UNL     1      18.048  49.259  46.267  1.00  0.00     0.127 C 
HETATM   14  N   UNL     1      16.757  49.480  46.921  1.00  0.00    -0.347 N 
HETATM   15  C   UNL     1      15.680  48.588  46.734  1.00  0.00     0.260 C 
HETATM   16  C   UNL     1      16.838  50.129  48.224  1.00  0.00     0.127 C 
HETATM   17  O   UNL     1      14.893  48.357  47.653  1.00  0.00    -0.267 OA
HETATM   18  C   UNL     1      17.601  51.449  48.147  1.00  0.00     0.034 C 
BRANCH  15  19
HETATM   19  C   UNL     1      15.506  48.009  45.408  1.00  0.00     0.072 A 
HETATM   20  S   UNL     1      14.819  48.964  44.162  1.00  0.00    -0.097 SA
HETATM   21  C   UNL     1      14.965  47.700  43.019  1.00  0.00     0.050 A 
HETATM   22  C   UNL     1      15.549  46.578  43.562  1.00  0.00     0.009 A 
HETATM   23  C   UNL     1      15.876  46.760  44.937  1.00  0.00     0.025 A 
ENDBRANCH  15  19
ENDBRANCH   8  11
ENDBRANCH   4   7
BRANCH   1  24
HETATM   24  C   UNL     1      25.510  47.446  50.196  1.00  0.00     0.256 C 
HETATM   25  N   UNL     1      25.210  46.739  51.346  1.00  0.00    -0.323 N 
HETATM   26  H   UNL     1      24.243  46.479  51.491  1.00  0.00     0.169 HD
HETATM   27  O   UNL     1      26.623  47.631  49.721  1.00  0.00    -0.267 OA
BRANCH  25  28
HETATM   28  C   UNL     1      26.110  46.334  52.353  1.00  0.00     0.035 A 
HETATM   29  C   UNL     1      26.473  47.135  53.436  1.00  0.00     0.032 A 
HETATM   30  C   UNL     1      27.303  46.636  54.450  1.00  0.00     0.039 A 
HETATM   31  C   UNL     1      27.778  45.327  54.389  1.00  0.00     0.068 A 
HETATM   32  C   UNL     1      27.443  44.535  53.291  1.00  0.00     0.039 A 
HETATM   33  C   UNL     1      26.610  45.031  52.283  1.00  0.00     0.032 A 
BRANCH  31  34
HETATM   34  O   UNL     1      28.568  44.718  55.324  1.00  0.00    -0.356 OA
HETATM   35  C   UNL     1      29.601  43.877  54.823  1.00  0.00     0.210 C 
ENDBRANCH  31  34
ENDBRANCH  25  28
ENDBRANCH   1  24
TORSDOF 6
ENDMDL
MODEL 10
REMARK VINA RESULT:      -8.0      4.082     11.947
REMARK  6 active torsions:
REMARK  status: ('A' for Active; 'I' for Inactive)
REMARK    1  A    between atoms: O_2  and  C_3 
REMARK    2  A    between atoms: C_6  and  N_7 
REMARK       I    between atoms: N_7  and  C_8 
REMARK    3  A    between atoms: C_8  and  C_9 
REMARK    4  A    between atoms: C_12  and  N_13 
REMARK       I    between atoms: N_13  and  C_14 
REMARK    5  A    between atoms: C_14  and  C_15 
REMARK       I    between atoms: N_18  and  C_19 
REMARK    6  A    between atoms: C_19  and  C_20 
ROOT
HETATM    1  C   UNL     1      25.404  45.902  51.566  1.00  0.00     0.032 A 
HETATM    2  C   UNL     1      24.934  46.993  50.828  1.00  0.00     0.019 A 
HETATM    3  C   UNL     1      24.013  46.802  49.790  1.00  0.00     0.030 A 
HETATM    4  C   UNL     1      23.557  45.522  49.470  1.00  0.00     0.034 A 
HETATM    5  C   UNL     1      24.025  44.432  50.217  1.00  0.00     0.030 A 
HETATM    6  C   UNL     1      24.947  44.618  51.253  1.00  0.00     0.019 A 
ENDROOT
BRANCH   4   7
HETATM    7  N   UNL     1      22.676  45.244  48.403  1.00  0.00    -0.327 N 
HETATM    8  C   UNL     1      21.345  44.868  48.489  1.00  0.00     0.226 C 
HETATM    9  O   UNL     1      20.738  44.610  49.523  1.00  0.00    -0.273 OA
HETATM   10  H   UNL     1      23.068  45.338  47.475  1.00  0.00     0.169 HD
BRANCH   8  11
HETATM   11  C   UNL     1      20.664  44.772  47.118  1.00  0.00     0.081 C 
HETATM   12  C   UNL     1      19.133  44.835  47.233  1.00  0.00     0.034 C 
HETATM   13  C   UNL     1      18.624  46.244  47.541  1.00  0.00     0.127 C 
HETATM   14  N   UNL     1      19.163  47.228  46.599  1.00  0.00    -0.347 N 
HETATM   15  C   UNL     1      18.515  48.462  46.381  1.00  0.00     0.260 C 
HETATM   16  C   UNL     1      20.617  47.235  46.491  1.00  0.00     0.127 C 
HETATM   17  O   UNL     1      19.170  49.481  46.158  1.00  0.00    -0.267 OA
HETATM   18  C   UNL     1      21.160  45.851  46.145  1.00  0.00     0.034 C 
BRANCH  15  19
HETATM   19  C   UNL     1      17.058  48.467  46.371  1.00  0.00     0.072 A 
HETATM   20  S   UNL     1      16.228  47.691  45.088  1.00  0.00    -0.097 SA
HETATM   21  C   UNL     1      14.700  48.076  45.753  1.00  0.00     0.050 A 
HETATM   22  C   UNL     1      14.811  48.759  46.942  1.00  0.00     0.009 A 
HETATM   23  C   UNL     1      16.172  48.972  47.309  1.00  0.00     0.025 A 
ENDBRANCH  15  19
ENDBRANCH   8  11
ENDBRANCH   4   7
BRANCH   1  24
HETATM   24  C   UNL     1      26.453  46.061  52.614  1.00  0.00     0.256 C 
HETATM   25  N   UNL     1      27.320  44.991  52.741  1.00  0.00    -0.323 N 
HETATM   26  H   UNL     1      27.321  44.305  51.997  1.00  0.00     0.169 HD
HETATM   27  O   UNL     1      26.476  47.101  53.259  1.00  0.00    -0.267 OA
BRANCH  25  28
HETATM   28  C   UNL     1      28.212  44.743  53.804  1.00  0.00     0.035 A 
HETATM   29  C   UNL     1      29.118  43.681  53.827  1.00  0.00     0.032 A 
HETATM   30  C   UNL     1      30.039  43.547  54.874  1.00  0.00     0.039 A 
HETATM   31  C   UNL     1      30.063  44.477  55.913  1.00  0.00     0.068 A 
HETATM   32  C   UNL     1      29.137  45.519  55.911  1.00  0.00     0.039 A 
HETATM   33  C   UNL     1      28.222  45.658  54.862  1.00  0.00     0.032 A 
BRANCH  31  34
HETATM   34  O   UNL     1      30.926  44.470  56.973  1.00  0.00    -0.356 OA
HETATM   35  C   UNL     1      31.693  43.286  57.154  1.00  0.00     0.210 C 
ENDBRANCH  31  34
ENDBRANCH  25  28
ENDBRANCH   1  24
TORSDOF 6
ENDMDL
