MODEL 1
REMARK VINA RESULT:      -9.1      0.000      0.000
REMARK  4 active torsions:
REMARK  status: ('A' for Active; 'I' for Inactive)
REMARK    1  A    between atoms: C_5  and  N_6 
REMARK    2  A    between atoms: C_11  and  C_12 
REMARK    3  A    between atoms: C_13  and  O_14 
REMARK    4  A    between atoms: C_18  and  C_19 
REMARK       I    between atoms: C_19  and  N_20 
ROOT
HETATM    1  C   UNL     1      24.130  45.610  50.712  1.00  0.00     0.023 A 
HETATM    2  C   UNL     1      24.258  46.898  50.315  1.00  0.00     0.153 A 
HETATM    3  N   UNL     1      23.709  47.338  49.158  1.00  0.00    -0.303 N 
HETATM    4  C   UNL     1      22.949  46.577  48.320  1.00  0.00     0.263 A 
HETATM    5  O   UNL     1      22.489  47.054  47.284  1.00  0.00    -0.267 OA
HETATM    6  C   UNL     1      22.721  45.151  48.725  1.00  0.00     0.106 A 
HETATM    7  C   UNL     1      23.338  44.694  49.848  1.00  0.00    -0.026 A 
HETATM    8  C   UNL     1      23.287  43.252  50.307  1.00  0.00     0.050 C 
HETATM    9  H   UNL     1      23.847  48.308  48.904  1.00  0.00     0.171 HD
ENDROOT
BRANCH   1  10
HETATM   10  C   UNL     1      24.746  45.192  51.965  1.00  0.00     0.035 C 
HETATM   11  C   UNL     1      25.995  44.743  52.146  1.00  0.00     0.061 A 
HETATM   12  C   UNL     1      27.121  44.465  51.242  1.00  0.00     0.067 A 
HETATM   13  C   UNL     1      26.545  44.520  53.507  1.00  0.00     0.281 A 
HETATM   14  N   UNL     1      28.218  44.197  51.896  1.00  0.00    -0.168 NA
HETATM   15  C   UNL     1      27.052  44.492  49.752  1.00  0.00     0.073 C 
HETATM   16  N   UNL     1      27.894  44.236  53.254  1.00  0.00    -0.197 N 
HETATM   17  O   UNL     1      25.908  44.643  54.539  1.00  0.00    -0.265 OA
BRANCH  16  18
HETATM   18  C   UNL     1      28.935  44.077  54.203  1.00  0.00     0.062 A 
HETATM   19  C   UNL     1      29.762  42.947  54.212  1.00  0.00     0.032 A 
HETATM   20  C   UNL     1      30.751  42.783  55.190  1.00  0.00     0.009 A 
HETATM   21  C   UNL     1      30.939  43.748  56.181  1.00  0.00    -0.062 A 
HETATM   22  C   UNL     1      31.976  43.569  57.250  1.00  0.00     0.048 C 
HETATM   23  C   UNL     1      30.130  44.887  56.172  1.00  0.00     0.009 A 
HETATM   24  C   UNL     1      29.144  45.050  55.192  1.00  0.00     0.032 A 
ENDBRANCH  16  18
ENDBRANCH   1  10
BRANCH   2  25
HETATM   25  O   UNL     1      24.916  47.892  50.987  1.00  0.00    -0.345 OA
HETATM   26  H   UNL     1      25.872  47.722  50.962  1.00  0.00     0.219 HD
ENDBRANCH   2  25
BRANCH   6  27
HETATM   27  C   UNL     1      21.800  44.284  47.917  1.00  0.00     0.255 C 
HETATM   28  N   UNL     1      22.324  43.709  46.800  1.00  0.00    -0.366 N 
HETATM   29  H   UNL     1      23.216  44.024  46.423  1.00  0.00     0.159 HD
HETATM   30  H   UNL     1      21.686  43.236  46.175  1.00  0.00     0.159 HD
HETATM   31  O   UNL     1      20.618  44.110  48.190  1.00  0.00    -0.268 OA
ENDBRANCH   6  27
TORSDOF 4
ENDMDL
MODEL 2
REMARK VINA RESULT:      -8.5      3.003      8.979
REMARK  4 active torsions:
REMARK  status: ('A' for Active; 'I' for Inactive)
REMARK    1  A    between atoms: C_5  and  N_6 
REMARK    2  A    between atoms: C_11  and  C_12 
REMARK    3  A    between atoms: C_13  and  O_14 
REMARK    4  A    between atoms: C_18  and  C_19 
REMARK       I    between atoms: C_19  and  N_20 
ROOT
HETATM    1  C   UNL     1      26.358  45.929  50.962  1.00  0.00     0.023 A 
HETATM    2  C   UNL     1      26.850  44.932  50.192  1.00  0.00     0.153 A 
HETATM    3  N   UNL     1      27.365  43.805  50.739  1.00  0.00    -0.303 N 
HETATM    4  C   UNL     1      27.397  43.534  52.075  1.00  0.00     0.263 A 
HETATM    5  O   UNL     1      27.886  42.486  52.490  1.00  0.00    -0.267 OA
HETATM    6  C   UNL     1      26.817  44.575  52.987  1.00  0.00     0.106 A 
HETATM    7  C   UNL     1      26.372  45.737  52.437  1.00  0.00    -0.026 A 
HETATM    8  C   UNL     1      25.871  46.912  53.249  1.00  0.00     0.050 C 
HETATM    9  H   UNL     1      27.733  43.098  50.115  1.00  0.00     0.171 HD
ENDROOT
BRANCH   1  10
HETATM   10  C   UNL     1      25.820  47.121  50.318  1.00  0.00     0.035 C 
HETATM   11  C   UNL     1      24.606  47.272  49.773  1.00  0.00     0.061 A 
HETATM   12  C   UNL     1      23.458  46.375  49.573  1.00  0.00     0.067 A 
HETATM   13  C   UNL     1      24.128  48.599  49.308  1.00  0.00     0.281 A 
HETATM   14  N   UNL     1      22.406  47.016  49.141  1.00  0.00    -0.168 NA
HETATM   15  C   UNL     1      23.460  44.906  49.836  1.00  0.00     0.073 C 
HETATM   16  N   UNL     1      22.787  48.350  48.988  1.00  0.00    -0.197 N 
HETATM   17  O   UNL     1      24.802  49.614  49.307  1.00  0.00    -0.265 OA
BRANCH  16  18
HETATM   18  C   UNL     1      21.798  49.298  48.621  1.00  0.00     0.062 A 
HETATM   19  C   UNL     1      21.761  50.582  49.176  1.00  0.00     0.032 A 
HETATM   20  C   UNL     1      20.745  51.487  48.839  1.00  0.00     0.009 A 
HETATM   21  C   UNL     1      19.744  51.128  47.934  1.00  0.00    -0.062 A 
HETATM   22  C   UNL     1      18.636  52.078  47.588  1.00  0.00     0.048 C 
HETATM   23  C   UNL     1      19.781  49.854  47.362  1.00  0.00     0.009 A 
HETATM   24  C   UNL     1      20.798  48.954  47.698  1.00  0.00     0.032 A 
ENDBRANCH  16  18
ENDBRANCH   1  10
BRANCH   2  25
HETATM   25  O   UNL     1      26.893  44.910  48.824  1.00  0.00    -0.345 OA
HETATM   26  H   UNL     1      27.464  45.629  48.506  1.00  0.00     0.219 HD
ENDBRANCH   2  25
BRANCH   6  27
HETATM   27  C   UNL     1      26.708  44.299  54.457  1.00  0.00     0.255 C 
HETATM   28  N   UNL     1      25.775  43.386  54.841  1.00  0.00    -0.366 N 
HETATM   29  H   UNL     1      25.053  43.076  54.193  1.00  0.00     0.159 HD
HETATM   30  H   UNL     1      25.596  43.288  55.832  1.00  0.00     0.159 HD
HETATM   31  O   UNL     1      27.377  44.875  55.308  1.00  0.00    -0.268 OA
ENDBRANCH   6  27
TORSDOF 4
ENDMDL
MODEL 3
REMARK VINA RESULT:      -8.4      2.979      3.710
REMARK  4 active torsions:
REMARK  status: ('A' for Active; 'I' for Inactive)
REMARK    1  A    between atoms: C_5  and  N_6 
REMARK    2  A    between atoms: C_11  and  C_12 
REMARK    3  A    between atoms: C_13  and  O_14 
REMARK    4  A    between atoms: C_18  and  C_19 
REMARK       I    between atoms: C_19  and  N_20 
ROOT
HETATM    1  C   UNL     1      25.736  41.606  50.051  1.00  0.00     0.023 A 
HETATM    2  C   UNL     1      24.529  42.179  50.265  1.00  0.00     0.153 A 
HETATM    3  N   UNL     1      23.640  42.350  49.258  1.00  0.00    -0.303 N 
HETATM    4  C   UNL     1      23.831  41.934  47.974  1.00  0.00     0.263 A 
HETATM    5  O   UNL     1      22.973  42.132  47.116  1.00  0.00    -0.267 OA
HETATM    6  C   UNL     1      25.128  41.241  47.676  1.00  0.00     0.106 A 
HETATM    7  C   UNL     1      26.048  41.140  48.673  1.00  0.00    -0.026 A 
HETATM    8  C   UNL     1      27.437  40.570  48.480  1.00  0.00     0.050 C 
HETATM    9  H   UNL     1      22.758  42.798  49.472  1.00  0.00     0.171 HD
ENDROOT
BRANCH   1  10
HETATM   10  C   UNL     1      26.654  41.451  51.173  1.00  0.00     0.035 C 
HETATM   11  C   UNL     1      27.429  42.393  51.725  1.00  0.00     0.061 A 
HETATM   12  C   UNL     1      27.686  43.809  51.422  1.00  0.00     0.067 A 
HETATM   13  C   UNL     1      28.184  42.136  52.977  1.00  0.00     0.281 A 
HETATM   14  N   UNL     1      28.403  44.385  52.349  1.00  0.00    -0.168 NA
HETATM   15  C   UNL     1      27.191  44.532  50.215  1.00  0.00     0.073 C 
HETATM   16  N   UNL     1      28.700  43.400  53.294  1.00  0.00    -0.197 N 
HETATM   17  O   UNL     1      28.228  41.061  53.549  1.00  0.00    -0.265 OA
BRANCH  16  18
HETATM   18  C   UNL     1      29.391  43.779  54.471  1.00  0.00     0.062 A 
HETATM   19  C   UNL     1      30.420  42.997  55.010  1.00  0.00     0.032 A 
HETATM   20  C   UNL     1      31.057  43.362  56.204  1.00  0.00     0.009 A 
HETATM   21  C   UNL     1      30.682  44.521  56.885  1.00  0.00    -0.062 A 
HETATM   22  C   UNL     1      31.336  44.906  58.178  1.00  0.00     0.048 C 
HETATM   23  C   UNL     1      29.667  45.317  56.348  1.00  0.00     0.009 A 
HETATM   24  C   UNL     1      29.034  44.952  55.154  1.00  0.00     0.032 A 
ENDBRANCH  16  18
ENDBRANCH   1  10
BRANCH   2  25
HETATM   25  O   UNL     1      24.049  42.637  51.462  1.00  0.00    -0.345 OA
HETATM   26  H   UNL     1      24.487  42.164  52.189  1.00  0.00     0.219 HD
ENDBRANCH   2  25
BRANCH   6  27
HETATM   27  C   UNL     1      25.362  40.650  46.317  1.00  0.00     0.255 C 
HETATM   28  N   UNL     1      25.546  41.526  45.292  1.00  0.00    -0.366 N 
HETATM   29  H   UNL     1      25.320  42.512  45.404  1.00  0.00     0.159 HD
HETATM   30  H   UNL     1      25.569  41.149  44.354  1.00  0.00     0.159 HD
HETATM   31  O   UNL     1      25.356  39.445  46.090  1.00  0.00    -0.268 OA
ENDBRANCH   6  27
TORSDOF 4
ENDMDL
MODEL 4
REMARK VINA RESULT:      -8.1     11.808     13.211
REMARK  4 active torsions:
REMARK  status: ('A' for Active; 'I' for Inactive)
REMARK    1  A    between atoms: C_5  and  N_6 
REMARK    2  A    between atoms: C_11  and  C_12 
REMARK    3  A    between atoms: C_13  and  O_14 
REMARK    4  A    between atoms: C_18  and  C_19 
REMARK       I    between atoms: C_19  and  N_20 
ROOT
HETATM    1  C   UNL     1      28.536  50.549  40.036  1.00  0.00     0.023 A 
HETATM    2  C   UNL     1      27.315  50.951  40.461  1.00  0.00     0.153 A 
HETATM    3  N   UNL     1      26.192  50.272  40.127  1.00  0.00    -0.303 N 
HETATM    4  C   UNL     1      26.168  49.120  39.399  1.00  0.00     0.263 A 
HETATM    5  O   UNL     1      25.102  48.567  39.137  1.00  0.00    -0.267 OA
HETATM    6  C   UNL     1      27.492  48.586  38.940  1.00  0.00     0.106 A 
HETATM    7  C   UNL     1      28.609  49.312  39.212  1.00  0.00    -0.026 A 
HETATM    8  C   UNL     1      29.990  48.949  38.710  1.00  0.00     0.050 C 
HETATM    9  H   UNL     1      25.305  50.627  40.461  1.00  0.00     0.171 HD
ENDROOT
BRANCH   1  10
HETATM   10  C   UNL     1      29.710  51.322  40.422  1.00  0.00     0.035 C 
HETATM   11  C   UNL     1      30.656  50.975  41.304  1.00  0.00     0.061 A 
HETATM   12  C   UNL     1      30.849  49.820  42.193  1.00  0.00     0.067 A 
HETATM   13  C   UNL     1      31.890  51.784  41.470  1.00  0.00     0.281 A 
HETATM   14  N   UNL     1      32.024  49.831  42.761  1.00  0.00    -0.168 NA
HETATM   15  C   UNL     1      29.847  48.740  42.427  1.00  0.00     0.073 C 
HETATM   16  N   UNL     1      32.665  50.994  42.330  1.00  0.00    -0.197 N 
HETATM   17  O   UNL     1      32.108  52.837  40.897  1.00  0.00    -0.265 OA
BRANCH  16  18
HETATM   18  C   UNL     1      34.010  51.210  42.721  1.00  0.00     0.062 A 
HETATM   19  C   UNL     1      34.344  52.047  43.793  1.00  0.00     0.032 A 
HETATM   20  C   UNL     1      35.683  52.289  44.132  1.00  0.00     0.009 A 
HETATM   21  C   UNL     1      36.718  51.696  43.408  1.00  0.00    -0.062 A 
HETATM   22  C   UNL     1      38.154  51.971  43.742  1.00  0.00     0.048 C 
HETATM   23  C   UNL     1      36.396  50.847  42.345  1.00  0.00     0.009 A 
HETATM   24  C   UNL     1      35.058  50.605  42.011  1.00  0.00     0.032 A 
ENDBRANCH  16  18
ENDBRANCH   1  10
BRANCH   2  25
HETATM   25  O   UNL     1      27.049  52.037  41.250  1.00  0.00    -0.345 OA
HETATM   26  H   UNL     1      27.876  52.513  41.436  1.00  0.00     0.219 HD
ENDBRANCH   2  25
BRANCH   6  27
HETATM   27  C   UNL     1      27.558  47.262  38.236  1.00  0.00     0.255 C 
HETATM   28  N   UNL     1      26.907  47.169  37.044  1.00  0.00    -0.366 N 
HETATM   29  H   UNL     1      26.240  47.884  36.760  1.00  0.00     0.159 HD
HETATM   30  H   UNL     1      26.828  46.253  36.625  1.00  0.00     0.159 HD
HETATM   31  O   UNL     1      28.124  46.276  38.695  1.00  0.00    -0.268 OA
ENDBRANCH   6  27
TORSDOF 4
ENDMDL
MODEL 5
REMARK VINA RESULT:      -8.0     12.500     13.843
REMARK  4 active torsions:
REMARK  status: ('A' for Active; 'I' for Inactive)
REMARK    1  A    between atoms: C_5  and  N_6 
REMARK    2  A    between atoms: C_11  and  C_12 
REMARK    3  A    between atoms: C_13  and  O_14 
REMARK    4  A    between atoms: C_18  and  C_19 
REMARK       I    between atoms: C_19  and  N_20 
ROOT
HETATM    1  C   UNL     1      31.642  50.391  41.491  1.00  0.00     0.023 A 
HETATM    2  C   UNL     1      31.335  49.204  42.064  1.00  0.00     0.153 A 
HETATM    3  N   UNL     1      30.051  48.791  42.187  1.00  0.00    -0.303 N 
HETATM    4  C   UNL     1      28.967  49.472  41.718  1.00  0.00     0.263 A 
HETATM    5  O   UNL     1      27.832  49.027  41.874  1.00  0.00    -0.267 OA
HETATM    6  C   UNL     1      29.238  50.773  41.022  1.00  0.00     0.106 A 
HETATM    7  C   UNL     1      30.521  51.220  40.970  1.00  0.00    -0.026 A 
HETATM    8  C   UNL     1      30.920  52.565  40.402  1.00  0.00     0.050 C 
HETATM    9  H   UNL     1      29.878  47.901  42.637  1.00  0.00     0.171 HD
ENDROOT
BRANCH   1  10
HETATM   10  C   UNL     1      33.041  50.787  41.389  1.00  0.00     0.035 C 
HETATM   11  C   UNL     1      33.791  51.371  42.333  1.00  0.00     0.061 A 
HETATM   12  C   UNL     1      33.522  51.853  43.696  1.00  0.00     0.067 A 
HETATM   13  C   UNL     1      35.252  51.557  42.152  1.00  0.00     0.281 A 
HETATM   14  N   UNL     1      34.617  52.204  44.314  1.00  0.00    -0.168 NA
HETATM   15  C   UNL     1      32.174  51.930  44.329  1.00  0.00     0.073 C 
HETATM   16  N   UNL     1      35.664  52.023  43.408  1.00  0.00    -0.197 N 
HETATM   17  O   UNL     1      35.864  51.278  41.135  1.00  0.00    -0.265 OA
BRANCH  16  18
HETATM   18  C   UNL     1      36.991  52.238  43.856  1.00  0.00     0.062 A 
HETATM   19  C   UNL     1      37.990  51.268  43.705  1.00  0.00     0.032 A 
HETATM   20  C   UNL     1      39.283  51.478  44.201  1.00  0.00     0.009 A 
HETATM   21  C   UNL     1      39.609  52.666  44.857  1.00  0.00    -0.062 A 
HETATM   22  C   UNL     1      40.982  52.891  45.417  1.00  0.00     0.048 C 
HETATM   23  C   UNL     1      38.625  53.648  44.999  1.00  0.00     0.009 A 
HETATM   24  C   UNL     1      37.334  53.436  44.500  1.00  0.00     0.032 A 
ENDBRANCH  16  18
ENDBRANCH   1  10
BRANCH   2  25
HETATM   25  O   UNL     1      32.223  48.294  42.569  1.00  0.00    -0.345 OA
HETATM   26  H   UNL     1      32.842  48.024  41.871  1.00  0.00     0.219 HD
ENDBRANCH   2  25
BRANCH   6  27
HETATM   27  C   UNL     1      28.110  51.521  40.376  1.00  0.00     0.255 C 
HETATM   28  N   UNL     1      27.141  52.002  41.202  1.00  0.00    -0.366 N 
HETATM   29  H   UNL     1      27.076  51.685  42.168  1.00  0.00     0.159 HD
HETATM   30  H   UNL     1      26.311  52.388  40.774  1.00  0.00     0.159 HD
HETATM   31  O   UNL     1      28.005  51.679  39.165  1.00  0.00    -0.268 OA
ENDBRANCH   6  27
TORSDOF 4
ENDMDL
MODEL 6
REMARK VINA RESULT:      -8.0     11.985     15.279
REMARK  4 active torsions:
REMARK  status: ('A' for Active; 'I' for Inactive)
REMARK    1  A    between atoms: C_5  and  N_6 
REMARK    2  A    between atoms: C_11  and  C_12 
REMARK    3  A    between atoms: C_13  and  O_14 
REMARK    4  A    between atoms: C_18  and  C_19 
REMARK       I    between atoms: C_19  and  N_20 
ROOT
HETATM    1  C   UNL     1      32.953  50.738  43.059  1.00  0.00     0.023 A 
HETATM    2  C   UNL     1      33.095  51.594  44.098  1.00  0.00     0.153 A 
HETATM    3  N   UNL     1      34.271  52.218  44.343  1.00  0.00    -0.303 N 
HETATM    4  C   UNL     1      35.388  52.102  43.571  1.00  0.00     0.263 A 
HETATM    5  O   UNL     1      36.420  52.702  43.866  1.00  0.00    -0.267 OA
HETATM    6  C   UNL     1      35.287  51.210  42.369  1.00  0.00     0.106 A 
HETATM    7  C   UNL     1      34.128  50.526  42.171  1.00  0.00    -0.026 A 
HETATM    8  C   UNL     1      33.931  49.508  41.068  1.00  0.00     0.050 C 
HETATM    9  H   UNL     1      34.324  52.837  45.142  1.00  0.00     0.171 HD
ENDROOT
BRANCH   1  10
HETATM   10  C   UNL     1      31.664  50.092  42.846  1.00  0.00     0.035 C 
HETATM   11  C   UNL     1      30.668  50.508  42.054  1.00  0.00     0.061 A 
HETATM   12  C   UNL     1      30.465  51.691  41.205  1.00  0.00     0.067 A 
HETATM   13  C   UNL     1      29.479  49.656  41.797  1.00  0.00     0.281 A 
HETATM   14  N   UNL     1      29.391  51.588  40.471  1.00  0.00    -0.168 NA
HETATM   15  C   UNL     1      31.368  52.878  41.157  1.00  0.00     0.073 C 
HETATM   16  N   UNL     1      28.794  50.370  40.804  1.00  0.00    -0.197 N 
HETATM   17  O   UNL     1      29.274  48.578  42.327  1.00  0.00    -0.265 OA
BRANCH  16  18
HETATM   18  C   UNL     1      27.651  49.955  40.077  1.00  0.00     0.062 A 
HETATM   19  C   UNL     1      26.825  48.916  40.524  1.00  0.00     0.032 A 
HETATM   20  C   UNL     1      25.729  48.486  39.765  1.00  0.00     0.009 A 
HETATM   21  C   UNL     1      25.431  49.087  38.541  1.00  0.00    -0.062 A 
HETATM   22  C   UNL     1      24.277  48.615  37.707  1.00  0.00     0.048 C 
HETATM   23  C   UNL     1      26.238  50.135  38.093  1.00  0.00     0.009 A 
HETATM   24  C   UNL     1      27.331  50.565  38.854  1.00  0.00     0.032 A 
ENDBRANCH  16  18
ENDBRANCH   1  10
BRANCH   2  25
HETATM   25  O   UNL     1      32.126  51.942  44.999  1.00  0.00    -0.345 OA
HETATM   26  H   UNL     1      31.258  51.657  44.669  1.00  0.00     0.219 HD
ENDBRANCH   2  25
BRANCH   6  27
HETATM   27  C   UNL     1      36.434  51.123  41.406  1.00  0.00     0.255 C 
HETATM   28  N   UNL     1      37.552  50.481  41.842  1.00  0.00    -0.366 N 
HETATM   29  H   UNL     1      37.678  50.269  42.830  1.00  0.00     0.159 HD
HETATM   30  H   UNL     1      38.377  50.531  41.260  1.00  0.00     0.159 HD
HETATM   31  O   UNL     1      36.422  51.626  40.289  1.00  0.00    -0.268 OA
ENDBRANCH   6  27
TORSDOF 4
ENDMDL
MODEL 7
REMARK VINA RESULT:      -7.9      6.051      8.937
REMARK  4 active torsions:
REMARK  status: ('A' for Active; 'I' for Inactive)
REMARK    1  A    between atoms: C_5  and  N_6 
REMARK    2  A    between atoms: C_11  and  C_12 
REMARK    3  A    between atoms: C_13  and  O_14 
REMARK    4  A    between atoms: C_18  and  C_19 
REMARK       I    between atoms: C_19  and  N_20 
ROOT
HETATM    1  C   UNL     1      17.614  49.188  48.070  1.00  0.00     0.023 A 
HETATM    2  C   UNL     1      16.866  48.121  48.436  1.00  0.00     0.153 A 
HETATM    3  N   UNL     1      15.695  47.836  47.819  1.00  0.00    -0.303 N 
HETATM    4  C   UNL     1      15.181  48.532  46.765  1.00  0.00     0.263 A 
HETATM    5  O   UNL     1      14.107  48.208  46.263  1.00  0.00    -0.267 OA
HETATM    6  C   UNL     1      15.987  49.697  46.271  1.00  0.00     0.106 A 
HETATM    7  C   UNL     1      17.123  50.026  46.943  1.00  0.00    -0.026 A 
HETATM    8  C   UNL     1      17.965  51.242  46.624  1.00  0.00     0.050 C 
HETATM    9  H   UNL     1      15.169  47.034  48.143  1.00  0.00     0.171 HD
ENDROOT
BRANCH   1  10
HETATM   10  C   UNL     1      18.864  49.449  48.773  1.00  0.00     0.035 C 
HETATM   11  C   UNL     1      20.063  48.906  48.526  1.00  0.00     0.061 A 
HETATM   12  C   UNL     1      20.548  47.890  47.581  1.00  0.00     0.067 A 
HETATM   13  C   UNL     1      21.288  49.397  49.208  1.00  0.00     0.281 A 
HETATM   14  N   UNL     1      21.851  47.799  47.586  1.00  0.00    -0.168 NA
HETATM   15  C   UNL     1      19.682  47.055  46.699  1.00  0.00     0.073 C 
HETATM   16  N   UNL     1      22.310  48.703  48.546  1.00  0.00    -0.197 N 
HETATM   17  O   UNL     1      21.299  50.251  50.077  1.00  0.00    -0.265 OA
BRANCH  16  18
HETATM   18  C   UNL     1      23.708  48.884  48.691  1.00  0.00     0.062 A 
HETATM   19  C   UNL     1      24.405  49.869  47.981  1.00  0.00     0.032 A 
HETATM   20  C   UNL     1      25.796  49.997  48.099  1.00  0.00     0.009 A 
HETATM   21  C   UNL     1      26.522  49.145  48.933  1.00  0.00    -0.062 A 
HETATM   22  C   UNL     1      28.013  49.255  49.045  1.00  0.00     0.048 C 
HETATM   23  C   UNL     1      25.834  48.169  49.658  1.00  0.00     0.009 A 
HETATM   24  C   UNL     1      24.445  48.044  49.541  1.00  0.00     0.032 A 
ENDBRANCH  16  18
ENDBRANCH   1  10
BRANCH   2  25
HETATM   25  O   UNL     1      17.166  47.220  49.420  1.00  0.00    -0.345 OA
HETATM   26  H   UNL     1      17.035  47.634  50.290  1.00  0.00     0.219 HD
ENDBRANCH   2  25
BRANCH   6  27
HETATM   27  C   UNL     1      15.548  50.439  45.043  1.00  0.00     0.255 C 
HETATM   28  N   UNL     1      14.454  51.239  45.169  1.00  0.00    -0.366 N 
HETATM   29  H   UNL     1      13.848  51.166  45.984  1.00  0.00     0.159 HD
HETATM   30  H   UNL     1      14.067  51.637  44.324  1.00  0.00     0.159 HD
HETATM   31  O   UNL     1      16.094  50.328  43.951  1.00  0.00    -0.268 OA
ENDBRANCH   6  27
TORSDOF 4
ENDMDL
MODEL 8
REMARK VINA RESULT:      -7.8     13.649     14.912
REMARK  4 active torsions:
REMARK  status: ('A' for Active; 'I' for Inactive)
REMARK    1  A    between atoms: C_5  and  N_6 
REMARK    2  A    between atoms: C_11  and  C_12 
REMARK    3  A    between atoms: C_13  and  O_14 
REMARK    4  A    between atoms: C_18  and  C_19 
REMARK       I    between atoms: C_19  and  N_20 
ROOT
HETATM    1  C   UNL     1      32.308  49.909  41.271  1.00  0.00     0.023 A 
HETATM    2  C   UNL     1      32.511  48.589  41.050  1.00  0.00     0.153 A 
HETATM    3  N   UNL     1      31.863  47.931  40.060  1.00  0.00    -0.303 N 
HETATM    4  C   UNL     1      31.004  48.511  39.174  1.00  0.00     0.263 A 
HETATM    5  O   UNL     1      30.453  47.840  38.304  1.00  0.00    -0.267 OA
HETATM    6  C   UNL     1      30.773  49.986  39.326  1.00  0.00     0.106 A 
HETATM    7  C   UNL     1      31.367  50.626  40.369  1.00  0.00    -0.026 A 
HETATM    8  C   UNL     1      31.128  52.082  40.706  1.00  0.00     0.050 C 
HETATM    9  H   UNL     1      32.042  46.941  39.949  1.00  0.00     0.171 HD
ENDROOT
BRANCH   1  10
HETATM   10  C   UNL     1      33.031  50.564  42.354  1.00  0.00     0.035 C 
HETATM   11  C   UNL     1      34.261  51.092  42.307  1.00  0.00     0.061 A 
HETATM   12  C   UNL     1      35.299  51.169  41.268  1.00  0.00     0.067 A 
HETATM   13  C   UNL     1      34.804  51.885  43.438  1.00  0.00     0.281 A 
HETATM   14  N   UNL     1      36.291  51.940  41.625  1.00  0.00    -0.168 NA
HETATM   15  C   UNL     1      35.248  50.473  39.950  1.00  0.00     0.073 C 
HETATM   16  N   UNL     1      36.005  52.386  42.917  1.00  0.00    -0.197 N 
HETATM   17  O   UNL     1      34.233  52.054  44.501  1.00  0.00    -0.265 OA
BRANCH  16  18
HETATM   18  C   UNL     1      36.878  53.329  43.516  1.00  0.00     0.062 A 
HETATM   19  C   UNL     1      37.181  53.293  44.882  1.00  0.00     0.032 A 
HETATM   20  C   UNL     1      38.006  54.265  45.465  1.00  0.00     0.009 A 
HETATM   21  C   UNL     1      38.550  55.293  44.694  1.00  0.00    -0.062 A 
HETATM   22  C   UNL     1      39.410  56.355  45.313  1.00  0.00     0.048 C 
HETATM   23  C   UNL     1      38.267  55.329  43.326  1.00  0.00     0.009 A 
HETATM   24  C   UNL     1      37.445  54.356  42.745  1.00  0.00     0.032 A 
ENDBRANCH  16  18
ENDBRANCH   1  10
BRANCH   2  25
HETATM   25  O   UNL     1      33.358  47.771  41.747  1.00  0.00    -0.345 OA
HETATM   26  H   UNL     1      32.854  47.035  42.132  1.00  0.00     0.219 HD
ENDBRANCH   2  25
BRANCH   6  27
HETATM   27  C   UNL     1      29.936  50.717  38.318  1.00  0.00     0.255 C 
HETATM   28  N   UNL     1      28.586  50.640  38.472  1.00  0.00    -0.366 N 
HETATM   29  H   UNL     1      28.172  49.953  39.100  1.00  0.00     0.159 HD
HETATM   30  H   UNL     1      28.009  51.011  37.730  1.00  0.00     0.159 HD
HETATM   31  O   UNL     1      30.402  51.330  37.365  1.00  0.00    -0.268 OA
ENDBRANCH   6  27
TORSDOF 4
ENDMDL
MODEL 9
REMARK VINA RESULT:      -7.7     17.705     19.629
REMARK  4 active torsions:
REMARK  status: ('A' for Active; 'I' for Inactive)
REMARK    1  A    between atoms: C_5  and  N_6 
REMARK    2  A    between atoms: C_11  and  C_12 
REMARK    3  A    between atoms: C_13  and  O_14 
REMARK    4  A    between atoms: C_18  and  C_19 
REMARK       I    between atoms: C_19  and  N_20 
ROOT
HETATM    1  C   UNL     1      36.892  48.264  66.342  1.00  0.00     0.023 A 
HETATM    2  C   UNL     1      36.039  48.134  67.385  1.00  0.00     0.153 A 
HETATM    3  N   UNL     1      35.933  49.094  68.334  1.00  0.00    -0.303 N 
HETATM    4  C   UNL     1      36.607  50.279  68.319  1.00  0.00     0.263 A 
HETATM    5  O   UNL     1      36.455  51.098  69.224  1.00  0.00    -0.267 OA
HETATM    6  C   UNL     1      37.531  50.514  67.161  1.00  0.00     0.106 A 
HETATM    7  C   UNL     1      37.691  49.515  66.253  1.00  0.00    -0.026 A 
HETATM    8  C   UNL     1      38.676  49.574  65.104  1.00  0.00     0.050 C 
HETATM    9  H   UNL     1      35.289  48.938  69.100  1.00  0.00     0.171 HD
ENDROOT
BRANCH   1  10
HETATM   10  C   UNL     1      36.967  47.195  65.353  1.00  0.00     0.035 C 
HETATM   11  C   UNL     1      37.823  46.166  65.333  1.00  0.00     0.061 A 
HETATM   12  C   UNL     1      38.955  45.764  66.181  1.00  0.00     0.067 A 
HETATM   13  C   UNL     1      37.671  45.054  64.361  1.00  0.00     0.281 A 
HETATM   14  N   UNL     1      39.399  44.575  65.873  1.00  0.00    -0.168 NA
HETATM   15  C   UNL     1      39.541  46.587  67.279  1.00  0.00     0.073 C 
HETATM   16  N   UNL     1      38.633  44.131  64.792  1.00  0.00    -0.197 N 
HETATM   17  O   UNL     1      36.834  45.020  63.476  1.00  0.00    -0.265 OA
BRANCH  16  18
HETATM   18  C   UNL     1      38.840  42.813  64.313  1.00  0.00     0.062 A 
HETATM   19  C   UNL     1      39.100  41.743  65.178  1.00  0.00     0.032 A 
HETATM   20  C   UNL     1      39.353  40.457  64.682  1.00  0.00     0.009 A 
HETATM   21  C   UNL     1      39.347  40.211  63.308  1.00  0.00    -0.062 A 
HETATM   22  C   UNL     1      39.645  38.845  62.764  1.00  0.00     0.048 C 
HETATM   23  C   UNL     1      39.073  41.268  62.436  1.00  0.00     0.009 A 
HETATM   24  C   UNL     1      38.818  42.551  62.935  1.00  0.00     0.032 A 
ENDBRANCH  16  18
ENDBRANCH   1  10
BRANCH   2  25
HETATM   25  O   UNL     1      35.201  47.078  67.621  1.00  0.00    -0.345 OA
HETATM   26  H   UNL     1      34.595  47.301  68.347  1.00  0.00     0.219 HD
ENDBRANCH   2  25
BRANCH   6  27
HETATM   27  C   UNL     1      38.217  51.840  67.012  1.00  0.00     0.255 C 
HETATM   28  N   UNL     1      37.691  52.703  66.101  1.00  0.00    -0.366 N 
HETATM   29  H   UNL     1      37.011  52.382  65.413  1.00  0.00     0.159 HD
HETATM   30  H   UNL     1      38.216  53.540  65.892  1.00  0.00     0.159 HD
HETATM   31  O   UNL     1      39.227  52.156  67.631  1.00  0.00    -0.268 OA
ENDBRANCH   6  27
TORSDOF 4
ENDMDL
MODEL 10
REMARK VINA RESULT:      -7.7      4.956      7.543
REMARK  4 active torsions:
REMARK  status: ('A' for Active; 'I' for Inactive)
REMARK    1  A    between atoms: C_5  and  N_6 
REMARK    2  A    between atoms: C_11  and  C_12 
REMARK    3  A    between atoms: C_13  and  O_14 
REMARK    4  A    between atoms: C_18  and  C_19 
REMARK       I    between atoms: C_19  and  N_20 
ROOT
HETATM    1  C   UNL     1      19.048  49.540  48.707  1.00  0.00     0.023 A 
HETATM    2  C   UNL     1      18.667  50.021  49.914  1.00  0.00     0.153 A 
HETATM    3  N   UNL     1      17.834  51.083  50.019  1.00  0.00    -0.303 N 
HETATM    4  C   UNL     1      17.263  51.731  48.964  1.00  0.00     0.263 A 
HETATM    5  O   UNL     1      16.518  52.692  49.147  1.00  0.00    -0.267 OA
HETATM    6  C   UNL     1      17.599  51.216  47.596  1.00  0.00     0.106 A 
HETATM    7  C   UNL     1      18.496  50.199  47.493  1.00  0.00    -0.026 A 
HETATM    8  C   UNL     1      19.009  49.662  46.174  1.00  0.00     0.050 C 
HETATM    9  H   UNL     1      17.594  51.410  50.947  1.00  0.00     0.171 HD
ENDROOT
BRANCH   1  10
HETATM   10  C   UNL     1      19.950  48.396  48.655  1.00  0.00     0.035 C 
HETATM   11  C   UNL     1      21.265  48.387  48.908  1.00  0.00     0.061 A 
HETATM   12  C   UNL     1      22.245  49.427  49.252  1.00  0.00     0.067 A 
HETATM   13  C   UNL     1      22.027  47.115  48.988  1.00  0.00     0.281 A 
HETATM   14  N   UNL     1      23.403  48.919  49.580  1.00  0.00    -0.168 NA
HETATM   15  C   UNL     1      21.977  50.895  49.251  1.00  0.00     0.073 C 
HETATM   16  N   UNL     1      23.286  47.535  49.437  1.00  0.00    -0.197 N 
HETATM   17  O   UNL     1      21.558  46.014  48.760  1.00  0.00    -0.265 OA
BRANCH  16  18
HETATM   18  C   UNL     1      24.379  46.720  49.826  1.00  0.00     0.062 A 
HETATM   19  C   UNL     1      24.748  45.581  49.101  1.00  0.00     0.032 A 
HETATM   20  C   UNL     1      25.798  44.759  49.531  1.00  0.00     0.009 A 
HETATM   21  C   UNL     1      26.507  45.060  50.695  1.00  0.00    -0.062 A 
HETATM   22  C   UNL     1      27.614  44.173  51.180  1.00  0.00     0.048 C 
HETATM   23  C   UNL     1      26.158  46.204  51.418  1.00  0.00     0.009 A 
HETATM   24  C   UNL     1      25.110  47.025  50.985  1.00  0.00     0.032 A 
ENDBRANCH  16  18
ENDBRANCH   1  10
BRANCH   2  25
HETATM   25  O   UNL     1      19.040  49.531  51.136  1.00  0.00    -0.345 OA
HETATM   26  H   UNL     1      18.800  50.170  51.828  1.00  0.00     0.219 HD
ENDBRANCH   2  25
BRANCH   6  27
HETATM   27  C   UNL     1      16.919  51.799  46.393  1.00  0.00     0.255 C 
HETATM   28  N   UNL     1      17.376  53.004  45.955  1.00  0.00    -0.366 N 
HETATM   29  H   UNL     1      17.990  53.570  46.538  1.00  0.00     0.159 HD
HETATM   30  H   UNL     1      16.844  53.472  45.234  1.00  0.00     0.159 HD
HETATM   31  O   UNL     1      15.968  51.271  45.827  1.00  0.00    -0.268 OA
ENDBRANCH   6  27
TORSDOF 4
ENDMDL
