MODEL 1
REMARK VINA RESULT:      -8.7      0.000      0.000
REMARK  8 active torsions:
REMARK  status: ('A' for Active; 'I' for Inactive)
REMARK    1  A    between atoms: C_2  and  C_3 
REMARK    2  A    between atoms: C_3  and  N_4 
REMARK    3  A    between atoms: C_7  and  C_8 
REMARK       I    between atoms: C_8  and  N_9 
REMARK    4  A    between atoms: N_9  and  N_10 
REMARK       I    between atoms: N_10  and  C_11 
REMARK    5  A    between atoms: C_11  and  C_12 
REMARK    6  A    between atoms: C_12  and  O_13 
REMARK    7  A    between atoms: O_13  and  C_14 
REMARK    8  A    between atoms: C_23  and  C_24 
ROOT
HETATM    1  C   UNL     1      25.790  46.661  51.600  1.00  0.00     0.273 C 
HETATM    2  N   UNL     1      25.841  46.941  50.244  1.00  0.00    -0.263 N 
HETATM    3  O   UNL     1      25.226  47.408  52.395  1.00  0.00    -0.266 OA
HETATM    4  H   UNL     1      26.039  46.201  49.572  1.00  0.00     0.190 HD
ENDROOT
BRANCH   2   5
HETATM    5  N   UNL     1      25.089  48.021  49.754  1.00  0.00    -0.265 N 
HETATM    6  C   UNL     1      25.738  48.937  48.947  1.00  0.00     0.260 C 
HETATM    7  O   UNL     1      26.954  48.898  48.754  1.00  0.00    -0.269 OA
HETATM    8  H   UNL     1      24.078  47.893  49.725  1.00  0.00     0.190 HD
BRANCH   6   9
HETATM    9  C   UNL     1      24.832  49.995  48.338  1.00  0.00     0.280 C 
BRANCH   9  10
HETATM   10  O   UNL     1      23.636  49.350  47.911  1.00  0.00    -0.342 OA
BRANCH  10  11
HETATM   11  C   UNL     1      22.463  49.972  48.240  1.00  0.00     0.069 A 
HETATM   12  C   UNL     1      22.361  50.372  49.574  1.00  0.00     0.037 A 
HETATM   13  C   UNL     1      21.210  51.014  50.038  1.00  0.00     0.009 A 
HETATM   14  C   UNL     1      20.135  51.247  49.175  1.00  0.00    -0.062 A 
HETATM   15  C   UNL     1      18.903  51.956  49.653  1.00  0.00     0.048 C 
HETATM   16  C   UNL     1      20.239  50.840  47.839  1.00  0.00     0.009 A 
HETATM   17  C   UNL     1      21.395  50.201  47.375  1.00  0.00     0.037 A 
ENDBRANCH  10  11
ENDBRANCH   9  10
ENDBRANCH   6   9
ENDBRANCH   2   5
BRANCH   1  18
HETATM   18  C   UNL     1      26.493  45.442  51.964  1.00  0.00     0.077 A 
HETATM   19  C   UNL     1      26.722  44.352  51.087  1.00  0.00     0.158 A 
HETATM   20  N   UNL     1      27.369  43.342  51.659  1.00  0.00    -0.183 NA
HETATM   21  N   UNL     1      27.632  43.794  52.900  1.00  0.00    -0.268 N 
HETATM   22  C   UNL     1      27.063  45.027  53.164  1.00  0.00     0.052 A 
BRANCH  21  23
HETATM   23  C   UNL     1      28.417  42.955  53.807  1.00  0.00     0.106 C 
HETATM   24  C   UNL     1      28.058  41.482  53.599  1.00  0.00     0.034 C 
BRANCH  23  25
HETATM   25  C   UNL     1      29.942  43.161  53.682  1.00  0.00     0.022 C 
HETATM   26  C   UNL     1      30.647  43.240  55.032  1.00  0.00     0.007 C 
ENDBRANCH  23  25
ENDBRANCH  21  23
BRANCH  22  27
HETATM   27  C   UNL     1      27.063  45.678  54.550  1.00  0.00     0.038 A 
HETATM   28  C   UNL     1      28.352  46.018  55.254  1.00  0.00     0.011 A 
HETATM   29  C   UNL     1      27.499  47.116  54.710  1.00  0.00     0.011 A 
ENDBRANCH  22  27
ENDBRANCH   1  18
TORSDOF 8
ENDMDL
MODEL 2
REMARK VINA RESULT:      -8.7      1.746      2.620
REMARK  8 active torsions:
REMARK  status: ('A' for Active; 'I' for Inactive)
REMARK    1  A    between atoms: C_2  and  C_3 
REMARK    2  A    between atoms: C_3  and  N_4 
REMARK    3  A    between atoms: C_7  and  C_8 
REMARK       I    between atoms: C_8  and  N_9 
REMARK    4  A    between atoms: N_9  and  N_10 
REMARK       I    between atoms: N_10  and  C_11 
REMARK    5  A    between atoms: C_11  and  C_12 
REMARK    6  A    between atoms: C_12  and  O_13 
REMARK    7  A    between atoms: O_13  and  C_14 
REMARK    8  A    between atoms: C_23  and  C_24 
ROOT
HETATM    1  C   UNL     1      25.827  44.821  52.943  1.00  0.00     0.273 C 
HETATM    2  N   UNL     1      26.110  45.432  51.732  1.00  0.00    -0.263 N 
HETATM    3  O   UNL     1      24.683  44.500  53.254  1.00  0.00    -0.266 OA
HETATM    4  H   UNL     1      27.059  45.425  51.361  1.00  0.00     0.190 HD
ENDROOT
BRANCH   2   5
HETATM    5  N   UNL     1      25.086  45.533  50.776  1.00  0.00    -0.265 N 
HETATM    6  C   UNL     1      24.601  46.796  50.493  1.00  0.00     0.260 C 
HETATM    7  O   UNL     1      24.948  47.792  51.130  1.00  0.00    -0.269 OA
HETATM    8  H   UNL     1      25.003  44.760  50.118  1.00  0.00     0.190 HD
BRANCH   6   9
HETATM    9  C   UNL     1      23.599  46.845  49.351  1.00  0.00     0.280 C 
BRANCH   9  10
HETATM   10  O   UNL     1      23.796  48.070  48.652  1.00  0.00    -0.342 OA
BRANCH  10  11
HETATM   11  C   UNL     1      22.747  48.947  48.660  1.00  0.00     0.069 A 
HETATM   12  C   UNL     1      23.092  50.283  48.447  1.00  0.00     0.037 A 
HETATM   13  C   UNL     1      22.112  51.278  48.436  1.00  0.00     0.009 A 
HETATM   14  C   UNL     1      20.771  50.950  48.660  1.00  0.00    -0.062 A 
HETATM   15  C   UNL     1      19.705  52.005  48.628  1.00  0.00     0.048 C 
HETATM   16  C   UNL     1      20.429  49.611  48.878  1.00  0.00     0.009 A 
HETATM   17  C   UNL     1      21.412  48.614  48.883  1.00  0.00     0.037 A 
ENDBRANCH  10  11
ENDBRANCH   9  10
ENDBRANCH   6   9
ENDBRANCH   2   5
BRANCH   1  18
HETATM   18  C   UNL     1      26.995  44.649  53.790  1.00  0.00     0.077 A 
HETATM   19  C   UNL     1      27.563  43.397  54.133  1.00  0.00     0.158 A 
HETATM   20  N   UNL     1      28.615  43.497  54.938  1.00  0.00    -0.183 NA
HETATM   21  N   UNL     1      28.788  44.826  55.073  1.00  0.00    -0.268 N 
HETATM   22  C   UNL     1      27.795  45.570  54.461  1.00  0.00     0.052 A 
BRANCH  21  23
HETATM   23  C   UNL     1      29.928  45.316  55.848  1.00  0.00     0.106 C 
HETATM   24  C   UNL     1      29.470  45.722  57.251  1.00  0.00     0.034 C 
BRANCH  23  25
HETATM   25  C   UNL     1      31.101  44.317  55.933  1.00  0.00     0.022 C 
HETATM   26  C   UNL     1      31.410  43.876  57.359  1.00  0.00     0.007 C 
ENDBRANCH  23  25
ENDBRANCH  21  23
BRANCH  22  27
HETATM   27  C   UNL     1      27.662  47.087  54.613  1.00  0.00     0.038 A 
HETATM   28  C   UNL     1      26.338  47.780  54.419  1.00  0.00     0.011 A 
HETATM   29  C   UNL     1      26.914  47.667  55.791  1.00  0.00     0.011 A 
ENDBRANCH  22  27
ENDBRANCH   1  18
TORSDOF 8
ENDMDL
MODEL 3
REMARK VINA RESULT:      -8.5      2.349      9.836
REMARK  8 active torsions:
REMARK  status: ('A' for Active; 'I' for Inactive)
REMARK    1  A    between atoms: C_2  and  C_3 
REMARK    2  A    between atoms: C_3  and  N_4 
REMARK    3  A    between atoms: C_7  and  C_8 
REMARK       I    between atoms: C_8  and  N_9 
REMARK    4  A    between atoms: N_9  and  N_10 
REMARK       I    between atoms: N_10  and  C_11 
REMARK    5  A    between atoms: C_11  and  C_12 
REMARK    6  A    between atoms: C_12  and  O_13 
REMARK    7  A    between atoms: O_13  and  C_14 
REMARK    8  A    between atoms: C_23  and  C_24 
ROOT
HETATM    1  C   UNL     1      24.157  47.438  49.636  1.00  0.00     0.273 C 
HETATM    2  N   UNL     1      24.279  46.404  50.550  1.00  0.00    -0.263 N 
HETATM    3  O   UNL     1      25.098  48.183  49.373  1.00  0.00    -0.266 OA
HETATM    4  H   UNL     1      23.615  45.631  50.544  1.00  0.00     0.190 HD
ENDROOT
BRANCH   2   5
HETATM    5  N   UNL     1      25.553  46.105  51.059  1.00  0.00    -0.265 N 
HETATM    6  C   UNL     1      25.639  45.121  52.027  1.00  0.00     0.260 C 
HETATM    7  O   UNL     1      24.640  44.603  52.528  1.00  0.00    -0.269 OA
HETATM    8  H   UNL     1      26.347  46.359  50.472  1.00  0.00     0.190 HD
BRANCH   6   9
HETATM    9  C   UNL     1      27.058  44.752  52.427  1.00  0.00     0.280 C 
BRANCH   9  10
HETATM   10  O   UNL     1      27.300  45.296  53.720  1.00  0.00    -0.342 OA
BRANCH  10  11
HETATM   11  C   UNL     1      28.371  44.785  54.400  1.00  0.00     0.069 A 
HETATM   12  C   UNL     1      28.924  45.636  55.358  1.00  0.00     0.037 A 
HETATM   13  C   UNL     1      30.025  45.234  56.118  1.00  0.00     0.009 A 
HETATM   14  C   UNL     1      30.601  43.977  55.914  1.00  0.00    -0.062 A 
HETATM   15  C   UNL     1      31.769  43.522  56.739  1.00  0.00     0.048 C 
HETATM   16  C   UNL     1      30.048  43.127  54.950  1.00  0.00     0.009 A 
HETATM   17  C   UNL     1      28.941  43.530  54.192  1.00  0.00     0.037 A 
ENDBRANCH  10  11
ENDBRANCH   9  10
ENDBRANCH   6   9
ENDBRANCH   2   5
BRANCH   1  18
HETATM   18  C   UNL     1      22.822  47.561  49.077  1.00  0.00     0.077 A 
HETATM   19  C   UNL     1      22.140  46.527  48.388  1.00  0.00     0.158 A 
HETATM   20  N   UNL     1      20.939  46.887  47.950  1.00  0.00    -0.183 NA
HETATM   21  N   UNL     1      20.795  48.144  48.413  1.00  0.00    -0.268 N 
HETATM   22  C   UNL     1      21.930  48.628  49.037  1.00  0.00     0.052 A 
BRANCH  21  23
HETATM   23  C   UNL     1      19.530  48.843  48.181  1.00  0.00     0.106 C 
HETATM   24  C   UNL     1      19.139  48.738  46.705  1.00  0.00     0.034 C 
BRANCH  23  25
HETATM   25  C   UNL     1      18.374  48.355  49.080  1.00  0.00     0.022 C 
HETATM   26  C   UNL     1      18.660  48.528  50.568  1.00  0.00     0.007 C 
ENDBRANCH  23  25
ENDBRANCH  21  23
BRANCH  22  27
HETATM   27  C   UNL     1      22.087  50.081  49.494  1.00  0.00     0.038 A 
HETATM   28  C   UNL     1      23.180  50.961  48.941  1.00  0.00     0.011 A 
HETATM   29  C   UNL     1      21.763  51.211  48.544  1.00  0.00     0.011 A 
ENDBRANCH  22  27
ENDBRANCH   1  18
TORSDOF 8
ENDMDL
MODEL 4
REMARK VINA RESULT:      -8.5      2.695      9.170
REMARK  8 active torsions:
REMARK  status: ('A' for Active; 'I' for Inactive)
REMARK    1  A    between atoms: C_2  and  C_3 
REMARK    2  A    between atoms: C_3  and  N_4 
REMARK    3  A    between atoms: C_7  and  C_8 
REMARK       I    between atoms: C_8  and  N_9 
REMARK    4  A    between atoms: N_9  and  N_10 
REMARK       I    between atoms: N_10  and  C_11 
REMARK    5  A    between atoms: C_11  and  C_12 
REMARK    6  A    between atoms: C_12  and  O_13 
REMARK    7  A    between atoms: O_13  and  C_14 
REMARK    8  A    between atoms: C_23  and  C_24 
ROOT
HETATM    1  C   UNL     1      23.675  44.822  49.197  1.00  0.00     0.273 C 
HETATM    2  N   UNL     1      24.807  44.381  48.531  1.00  0.00    -0.263 N 
HETATM    3  O   UNL     1      23.141  44.154  50.080  1.00  0.00    -0.266 OA
HETATM    4  H   UNL     1      25.400  45.041  48.031  1.00  0.00     0.190 HD
ENDROOT
BRANCH   2   5
HETATM    5  N   UNL     1      25.447  43.219  48.992  1.00  0.00    -0.265 N 
HETATM    6  C   UNL     1      26.683  43.367  49.593  1.00  0.00     0.260 C 
HETATM    7  O   UNL     1      27.275  44.447  49.621  1.00  0.00    -0.269 OA
HETATM    8  H   UNL     1      24.849  42.413  49.173  1.00  0.00     0.190 HD
BRANCH   6   9
HETATM    9  C   UNL     1      27.249  42.091  50.194  1.00  0.00     0.280 C 
BRANCH   9  10
HETATM   10  O   UNL     1      26.887  42.061  51.570  1.00  0.00    -0.342 OA
BRANCH  10  11
HETATM   11  C   UNL     1      27.854  42.443  52.459  1.00  0.00     0.069 A 
HETATM   12  C   UNL     1      27.420  43.301  53.471  1.00  0.00     0.037 A 
HETATM   13  C   UNL     1      28.312  43.769  54.439  1.00  0.00     0.009 A 
HETATM   14  C   UNL     1      29.659  43.398  54.394  1.00  0.00    -0.062 A 
HETATM   15  C   UNL     1      30.623  43.873  55.441  1.00  0.00     0.048 C 
HETATM   16  C   UNL     1      30.092  42.541  53.376  1.00  0.00     0.009 A 
HETATM   17  C   UNL     1      29.196  42.070  52.409  1.00  0.00     0.037 A 
ENDBRANCH  10  11
ENDBRANCH   9  10
ENDBRANCH   6   9
ENDBRANCH   2   5
BRANCH   1  18
HETATM   18  C   UNL     1      23.186  46.103  48.719  1.00  0.00     0.077 A 
HETATM   19  C   UNL     1      22.309  46.270  47.617  1.00  0.00     0.158 A 
HETATM   20  N   UNL     1      22.022  47.542  47.360  1.00  0.00    -0.183 NA
HETATM   21  N   UNL     1      22.654  48.216  48.338  1.00  0.00    -0.268 N 
HETATM   22  C   UNL     1      23.432  47.405  49.145  1.00  0.00     0.052 A 
BRANCH  21  23
HETATM   23  C   UNL     1      22.492  49.669  48.416  1.00  0.00     0.106 C 
HETATM   24  C   UNL     1      23.683  50.363  47.751  1.00  0.00     0.034 C 
BRANCH  23  25
HETATM   25  C   UNL     1      21.165  50.181  47.815  1.00  0.00     0.022 C 
HETATM   26  C   UNL     1      20.627  51.419  48.524  1.00  0.00     0.007 C 
ENDBRANCH  23  25
ENDBRANCH  21  23
BRANCH  22  27
HETATM   27  C   UNL     1      24.385  47.944  50.215  1.00  0.00     0.038 A 
HETATM   28  C   UNL     1      25.257  47.018  51.024  1.00  0.00     0.011 A 
HETATM   29  C   UNL     1      25.879  47.897  49.991  1.00  0.00     0.011 A 
ENDBRANCH  22  27
ENDBRANCH   1  18
TORSDOF 8
ENDMDL
MODEL 5
REMARK VINA RESULT:      -8.5      1.555      2.040
REMARK  8 active torsions:
REMARK  status: ('A' for Active; 'I' for Inactive)
REMARK    1  A    between atoms: C_2  and  C_3 
REMARK    2  A    between atoms: C_3  and  N_4 
REMARK    3  A    between atoms: C_7  and  C_8 
REMARK       I    between atoms: C_8  and  N_9 
REMARK    4  A    between atoms: N_9  and  N_10 
REMARK       I    between atoms: N_10  and  C_11 
REMARK    5  A    between atoms: C_11  and  C_12 
REMARK    6  A    between atoms: C_12  and  O_13 
REMARK    7  A    between atoms: O_13  and  C_14 
REMARK    8  A    between atoms: C_23  and  C_24 
ROOT
HETATM    1  C   UNL     1      25.724  46.560  50.390  1.00  0.00     0.273 C 
HETATM    2  N   UNL     1      24.345  46.484  50.506  1.00  0.00    -0.263 N 
HETATM    3  O   UNL     1      26.269  47.407  49.687  1.00  0.00    -0.266 OA
HETATM    4  H   UNL     1      23.921  45.994  51.293  1.00  0.00     0.190 HD
ENDROOT
BRANCH   2   5
HETATM    5  N   UNL     1      23.566  47.502  49.934  1.00  0.00    -0.265 N 
HETATM    6  C   UNL     1      22.811  47.180  48.822  1.00  0.00     0.260 C 
HETATM    7  O   UNL     1      22.897  46.085  48.263  1.00  0.00    -0.269 OA
HETATM    8  H   UNL     1      23.333  48.288  50.539  1.00  0.00     0.190 HD
BRANCH   6   9
HETATM    9  C   UNL     1      21.887  48.289  48.344  1.00  0.00     0.280 C 
BRANCH   9  10
HETATM   10  O   UNL     1      21.920  49.330  49.315  1.00  0.00    -0.342 OA
BRANCH  10  11
HETATM   11  C   UNL     1      20.865  50.201  49.303  1.00  0.00     0.069 A 
HETATM   12  C   UNL     1      19.797  49.846  50.128  1.00  0.00     0.037 A 
HETATM   13  C   UNL     1      18.657  50.650  50.202  1.00  0.00     0.009 A 
HETATM   14  C   UNL     1      18.563  51.814  49.433  1.00  0.00    -0.062 A 
HETATM   15  C   UNL     1      17.356  52.700  49.521  1.00  0.00     0.048 C 
HETATM   16  C   UNL     1      19.635  52.165  48.604  1.00  0.00     0.009 A 
HETATM   17  C   UNL     1      20.779  51.360  48.534  1.00  0.00     0.037 A 
ENDBRANCH  10  11
ENDBRANCH   9  10
ENDBRANCH   6   9
ENDBRANCH   2   5
BRANCH   1  18
HETATM   18  C   UNL     1      26.424  45.531  51.140  1.00  0.00     0.077 A 
HETATM   19  C   UNL     1      27.167  44.474  50.555  1.00  0.00     0.158 A 
HETATM   20  N   UNL     1      27.698  43.646  51.448  1.00  0.00    -0.183 NA
HETATM   21  N   UNL     1      27.365  44.196  52.631  1.00  0.00    -0.268 N 
HETATM   22  C   UNL     1      26.534  45.295  52.507  1.00  0.00     0.052 A 
BRANCH  21  23
HETATM   23  C   UNL     1      27.859  43.579  53.863  1.00  0.00     0.106 C 
HETATM   24  C   UNL     1      27.988  42.066  53.674  1.00  0.00     0.034 C 
BRANCH  23  25
HETATM   25  C   UNL     1      29.192  44.174  54.367  1.00  0.00     0.022 C 
HETATM   26  C   UNL     1      30.177  43.113  54.844  1.00  0.00     0.007 C 
ENDBRANCH  23  25
ENDBRANCH  21  23
BRANCH  22  27
HETATM   27  C   UNL     1      25.873  45.992  53.699  1.00  0.00     0.038 A 
HETATM   28  C   UNL     1      26.692  46.724  54.730  1.00  0.00     0.011 A 
HETATM   29  C   UNL     1      25.849  47.501  53.775  1.00  0.00     0.011 A 
ENDBRANCH  22  27
ENDBRANCH   1  18
TORSDOF 8
ENDMDL
MODEL 6
REMARK VINA RESULT:      -8.3      2.073      3.213
REMARK  8 active torsions:
REMARK  status: ('A' for Active; 'I' for Inactive)
REMARK    1  A    between atoms: C_2  and  C_3 
REMARK    2  A    between atoms: C_3  and  N_4 
REMARK    3  A    between atoms: C_7  and  C_8 
REMARK       I    between atoms: C_8  and  N_9 
REMARK    4  A    between atoms: N_9  and  N_10 
REMARK       I    between atoms: N_10  and  C_11 
REMARK    5  A    between atoms: C_11  and  C_12 
REMARK    6  A    between atoms: C_12  and  O_13 
REMARK    7  A    between atoms: O_13  and  C_14 
REMARK    8  A    between atoms: C_23  and  C_24 
ROOT
HETATM    1  C   UNL     1      26.304  45.442  53.765  1.00  0.00     0.273 C 
HETATM    2  N   UNL     1      26.086  46.550  52.961  1.00  0.00    -0.263 N 
HETATM    3  O   UNL     1      25.559  44.466  53.737  1.00  0.00    -0.266 OA
HETATM    4  H   UNL     1      26.843  47.205  52.772  1.00  0.00     0.190 HD
ENDROOT
BRANCH   2   5
HETATM    5  N   UNL     1      25.085  46.480  51.980  1.00  0.00    -0.265 N 
HETATM    6  C   UNL     1      25.277  47.205  50.819  1.00  0.00     0.260 C 
HETATM    7  O   UNL     1      26.219  47.987  50.681  1.00  0.00    -0.269 OA
HETATM    8  H   UNL     1      24.470  45.667  52.016  1.00  0.00     0.190 HD
BRANCH   6   9
HETATM    9  C   UNL     1      24.225  46.970  49.747  1.00  0.00     0.280 C 
BRANCH   9  10
HETATM   10  O   UNL     1      24.298  48.051  48.822  1.00  0.00    -0.342 OA
BRANCH  10  11
HETATM   11  C   UNL     1      23.217  48.887  48.782  1.00  0.00     0.069 A 
HETATM   12  C   UNL     1      23.520  50.237  48.599  1.00  0.00     0.037 A 
HETATM   13  C   UNL     1      22.504  51.194  48.545  1.00  0.00     0.009 A 
HETATM   14  C   UNL     1      21.167  50.813  48.694  1.00  0.00    -0.062 A 
HETATM   15  C   UNL     1      20.064  51.826  48.614  1.00  0.00     0.048 C 
HETATM   16  C   UNL     1      20.866  49.459  48.881  1.00  0.00     0.009 A 
HETATM   17  C   UNL     1      21.886  48.500  48.931  1.00  0.00     0.037 A 
ENDBRANCH  10  11
ENDBRANCH   9  10
ENDBRANCH   6   9
ENDBRANCH   2   5
BRANCH   1  18
HETATM   18  C   UNL     1      27.453  45.582  54.642  1.00  0.00     0.077 A 
HETATM   19  C   UNL     1      27.578  46.566  55.655  1.00  0.00     0.158 A 
HETATM   20  N   UNL     1      28.731  46.505  56.311  1.00  0.00    -0.183 NA
HETATM   21  N   UNL     1      29.345  45.431  55.778  1.00  0.00    -0.268 N 
HETATM   22  C   UNL     1      28.652  44.879  54.716  1.00  0.00     0.052 A 
BRANCH  21  23
HETATM   23  C   UNL     1      30.635  45.009  56.325  1.00  0.00     0.106 C 
HETATM   24  C   UNL     1      30.737  45.416  57.797  1.00  0.00     0.034 C 
BRANCH  23  25
HETATM   25  C   UNL     1      30.918  43.500  56.163  1.00  0.00     0.022 C 
HETATM   26  C   UNL     1      31.952  42.976  57.153  1.00  0.00     0.007 C 
ENDBRANCH  23  25
ENDBRANCH  21  23
BRANCH  22  27
HETATM   27  C   UNL     1      29.215  43.765  53.829  1.00  0.00     0.038 A 
HETATM   28  C   UNL     1      28.395  42.547  53.488  1.00  0.00     0.011 A 
HETATM   29  C   UNL     1      28.674  43.564  52.433  1.00  0.00     0.011 A 
ENDBRANCH  22  27
ENDBRANCH   1  18
TORSDOF 8
ENDMDL
MODEL 7
REMARK VINA RESULT:      -8.3      2.371     10.032
REMARK  8 active torsions:
REMARK  status: ('A' for Active; 'I' for Inactive)
REMARK    1  A    between atoms: C_2  and  C_3 
REMARK    2  A    between atoms: C_3  and  N_4 
REMARK    3  A    between atoms: C_7  and  C_8 
REMARK       I    between atoms: C_8  and  N_9 
REMARK    4  A    between atoms: N_9  and  N_10 
REMARK       I    between atoms: N_10  and  C_11 
REMARK    5  A    between atoms: C_11  and  C_12 
REMARK    6  A    between atoms: C_12  and  O_13 
REMARK    7  A    between atoms: O_13  and  C_14 
REMARK    8  A    between atoms: C_23  and  C_24 
ROOT
HETATM    1  C   UNL     1      22.051  47.689  48.321  1.00  0.00     0.273 C 
HETATM    2  N   UNL     1      22.685  47.535  49.543  1.00  0.00    -0.263 N 
HETATM    3  O   UNL     1      22.409  47.068  47.323  1.00  0.00    -0.266 OA
HETATM    4  H   UNL     1      22.217  47.811  50.404  1.00  0.00     0.190 HD
ENDROOT
BRANCH   2   5
HETATM    5  N   UNL     1      23.652  46.525  49.675  1.00  0.00    -0.265 N 
HETATM    6  C   UNL     1      24.820  46.843  50.341  1.00  0.00     0.260 C 
HETATM    7  O   UNL     1      25.079  47.992  50.702  1.00  0.00    -0.269 OA
HETATM    8  H   UNL     1      23.318  45.565  49.592  1.00  0.00     0.190 HD
BRANCH   6   9
HETATM    9  C   UNL     1      25.756  45.667  50.570  1.00  0.00     0.280 C 
BRANCH   9  10
HETATM   10  O   UNL     1      25.683  45.316  51.949  1.00  0.00    -0.342 OA
BRANCH  10  11
HETATM   11  C   UNL     1      26.811  44.767  52.493  1.00  0.00     0.069 A 
HETATM   12  C   UNL     1      27.080  45.152  53.808  1.00  0.00     0.037 A 
HETATM   13  C   UNL     1      28.206  44.665  54.477  1.00  0.00     0.009 A 
HETATM   14  C   UNL     1      29.091  43.798  53.828  1.00  0.00    -0.062 A 
HETATM   15  C   UNL     1      30.291  43.248  54.542  1.00  0.00     0.048 C 
HETATM   16  C   UNL     1      28.821  43.418  52.509  1.00  0.00     0.009 A 
HETATM   17  C   UNL     1      27.690  43.903  51.842  1.00  0.00     0.037 A 
ENDBRANCH  10  11
ENDBRANCH   9  10
ENDBRANCH   6   9
ENDBRANCH   2   5
BRANCH   1  18
HETATM   18  C   UNL     1      20.977  48.667  48.346  1.00  0.00     0.077 A 
HETATM   19  C   UNL     1      19.597  48.346  48.365  1.00  0.00     0.158 A 
HETATM   20  N   UNL     1      18.806  49.414  48.364  1.00  0.00    -0.183 NA
HETATM   21  N   UNL     1      19.668  50.448  48.418  1.00  0.00    -0.268 N 
HETATM   22  C   UNL     1      20.993  50.058  48.336  1.00  0.00     0.052 A 
BRANCH  21  23
HETATM   23  C   UNL     1      19.136  51.808  48.512  1.00  0.00     0.106 C 
HETATM   24  C   UNL     1      18.160  52.068  47.362  1.00  0.00     0.034 C 
BRANCH  23  25
HETATM   25  C   UNL     1      18.467  52.124  49.867  1.00  0.00     0.022 C 
HETATM   26  C   UNL     1      17.078  52.735  49.720  1.00  0.00     0.007 C 
ENDBRANCH  23  25
ENDBRANCH  21  23
BRANCH  22  27
HETATM   27  C   UNL     1      22.155  51.045  48.198  1.00  0.00     0.038 A 
HETATM   28  C   UNL     1      23.277  51.077  49.204  1.00  0.00     0.011 A 
HETATM   29  C   UNL     1      23.533  50.545  47.833  1.00  0.00     0.011 A 
ENDBRANCH  22  27
ENDBRANCH   1  18
TORSDOF 8
ENDMDL
MODEL 8
REMARK VINA RESULT:      -8.0      2.738      9.575
REMARK  8 active torsions:
REMARK  status: ('A' for Active; 'I' for Inactive)
REMARK    1  A    between atoms: C_2  and  C_3 
REMARK    2  A    between atoms: C_3  and  N_4 
REMARK    3  A    between atoms: C_7  and  C_8 
REMARK       I    between atoms: C_8  and  N_9 
REMARK    4  A    between atoms: N_9  and  N_10 
REMARK       I    between atoms: N_10  and  C_11 
REMARK    5  A    between atoms: C_11  and  C_12 
REMARK    6  A    between atoms: C_12  and  O_13 
REMARK    7  A    between atoms: O_13  and  C_14 
REMARK    8  A    between atoms: C_23  and  C_24 
ROOT
HETATM    1  C   UNL     1      25.216  47.410  50.292  1.00  0.00     0.273 C 
HETATM    2  N   UNL     1      25.089  47.058  51.626  1.00  0.00    -0.263 N 
HETATM    3  O   UNL     1      26.311  47.644  49.785  1.00  0.00    -0.266 OA
HETATM    4  H   UNL     1      24.247  46.590  51.956  1.00  0.00     0.190 HD
ENDROOT
BRANCH   2   5
HETATM    5  N   UNL     1      26.255  46.805  52.367  1.00  0.00    -0.265 N 
HETATM    6  C   UNL     1      26.310  47.297  53.657  1.00  0.00     0.260 C 
HETATM    7  O   UNL     1      25.438  48.037  54.117  1.00  0.00    -0.269 OA
HETATM    8  H   UNL     1      26.822  46.014  52.063  1.00  0.00     0.190 HD
BRANCH   6   9
HETATM    9  C   UNL     1      27.536  46.864  54.446  1.00  0.00     0.280 C 
BRANCH   9  10
HETATM   10  O   UNL     1      27.778  45.492  54.154  1.00  0.00    -0.342 OA
BRANCH  10  11
HETATM   11  C   UNL     1      28.814  44.904  54.826  1.00  0.00     0.069 A 
HETATM   12  C   UNL     1      29.291  45.625  55.922  1.00  0.00     0.037 A 
HETATM   13  C   UNL     1      30.351  45.135  56.689  1.00  0.00     0.009 A 
HETATM   14  C   UNL     1      30.961  43.922  56.356  1.00  0.00    -0.062 A 
HETATM   15  C   UNL     1      32.084  43.372  57.186  1.00  0.00     0.048 C 
HETATM   16  C   UNL     1      30.483  43.204  55.255  1.00  0.00     0.009 A 
HETATM   17  C   UNL     1      29.418  43.694  54.489  1.00  0.00     0.037 A 
ENDBRANCH  10  11
ENDBRANCH   9  10
ENDBRANCH   6   9
ENDBRANCH   2   5
BRANCH   1  18
HETATM   18  C   UNL     1      23.945  47.508  49.597  1.00  0.00     0.077 A 
HETATM   19  C   UNL     1      23.262  48.722  49.334  1.00  0.00     0.158 A 
HETATM   20  N   UNL     1      22.105  48.551  48.703  1.00  0.00    -0.183 NA
HETATM   21  N   UNL     1      22.055  47.224  48.482  1.00  0.00    -0.268 N 
HETATM   22  C   UNL     1      23.104  46.535  49.065  1.00  0.00     0.052 A 
BRANCH  21  23
HETATM   23  C   UNL     1      20.931  46.674  47.724  1.00  0.00     0.106 C 
HETATM   24  C   UNL     1      19.711  47.588  47.861  1.00  0.00     0.034 C 
BRANCH  23  25
HETATM   25  C   UNL     1      21.248  46.421  46.234  1.00  0.00     0.022 C 
HETATM   26  C   UNL     1      20.041  45.934  45.440  1.00  0.00     0.007 C 
ENDBRANCH  23  25
ENDBRANCH  21  23
BRANCH  22  27
HETATM   27  C   UNL     1      23.186  45.007  49.112  1.00  0.00     0.038 A 
HETATM   28  C   UNL     1      23.578  44.206  47.897  1.00  0.00     0.011 A 
HETATM   29  C   UNL     1      24.530  44.319  49.040  1.00  0.00     0.011 A 
ENDBRANCH  22  27
ENDBRANCH   1  18
TORSDOF 8
ENDMDL
MODEL 9
REMARK VINA RESULT:      -7.9      2.219     10.089
REMARK  8 active torsions:
REMARK  status: ('A' for Active; 'I' for Inactive)
REMARK    1  A    between atoms: C_2  and  C_3 
REMARK    2  A    between atoms: C_3  and  N_4 
REMARK    3  A    between atoms: C_7  and  C_8 
REMARK       I    between atoms: C_8  and  N_9 
REMARK    4  A    between atoms: N_9  and  N_10 
REMARK       I    between atoms: N_10  and  C_11 
REMARK    5  A    between atoms: C_11  and  C_12 
REMARK    6  A    between atoms: C_12  and  O_13 
REMARK    7  A    between atoms: O_13  and  C_14 
REMARK    8  A    between atoms: C_23  and  C_24 
ROOT
HETATM    1  C   UNL     1      23.373  48.870  49.075  1.00  0.00     0.273 C 
HETATM    2  N   UNL     1      23.520  47.862  50.014  1.00  0.00    -0.263 N 
HETATM    3  O   UNL     1      24.258  49.136  48.266  1.00  0.00    -0.266 OA
HETATM    4  H   UNL     1      22.702  47.458  50.468  1.00  0.00     0.190 HD
ENDROOT
BRANCH   2   5
HETATM    5  N   UNL     1      24.642  47.022  49.926  1.00  0.00    -0.265 N 
HETATM    6  C   UNL     1      25.384  46.826  51.075  1.00  0.00     0.260 C 
HETATM    7  O   UNL     1      25.164  47.450  52.114  1.00  0.00    -0.269 OA
HETATM    8  H   UNL     1      24.650  46.355  49.155  1.00  0.00     0.190 HD
BRANCH   6   9
HETATM    9  C   UNL     1      26.495  45.797  50.941  1.00  0.00     0.280 C 
BRANCH   9  10
HETATM   10  O   UNL     1      26.258  44.774  51.902  1.00  0.00    -0.342 OA
BRANCH  10  11
HETATM   11  C   UNL     1      27.340  44.369  52.634  1.00  0.00     0.069 A 
HETATM   12  C   UNL     1      27.421  44.910  53.918  1.00  0.00     0.037 A 
HETATM   13  C   UNL     1      28.482  44.580  54.765  1.00  0.00     0.009 A 
HETATM   14  C   UNL     1      29.489  43.715  54.328  1.00  0.00    -0.062 A 
HETATM   15  C   UNL     1      30.622  43.332  55.235  1.00  0.00     0.048 C 
HETATM   16  C   UNL     1      29.408  43.177  53.039  1.00  0.00     0.009 A 
HETATM   17  C   UNL     1      28.341  43.506  52.193  1.00  0.00     0.037 A 
ENDBRANCH  10  11
ENDBRANCH   9  10
ENDBRANCH   6   9
ENDBRANCH   2   5
BRANCH   1  18
HETATM   18  C   UNL     1      22.109  49.579  49.183  1.00  0.00     0.077 A 
HETATM   19  C   UNL     1      21.892  50.719  49.997  1.00  0.00     0.158 A 
HETATM   20  N   UNL     1      20.646  51.176  49.943  1.00  0.00    -0.183 NA
HETATM   21  N   UNL     1      20.052  50.379  49.035  1.00  0.00    -0.268 N 
HETATM   22  C   UNL     1      20.868  49.350  48.596  1.00  0.00     0.052 A 
BRANCH  21  23
HETATM   23  C   UNL     1      18.664  50.646  48.657  1.00  0.00     0.106 C 
HETATM   24  C   UNL     1      17.880  51.148  49.872  1.00  0.00     0.034 C 
BRANCH  23  25
HETATM   25  C   UNL     1      18.517  51.631  47.478  1.00  0.00     0.022 C 
HETATM   26  C   UNL     1      18.379  50.933  46.130  1.00  0.00     0.007 C 
ENDBRANCH  23  25
ENDBRANCH  21  23
BRANCH  22  27
HETATM   27  C   UNL     1      20.379  48.209  47.701  1.00  0.00     0.038 A 
HETATM   28  C   UNL     1      21.329  47.162  47.179  1.00  0.00     0.011 A 
HETATM   29  C   UNL     1      20.338  46.795  48.232  1.00  0.00     0.011 A 
ENDBRANCH  22  27
ENDBRANCH   1  18
TORSDOF 8
ENDMDL
MODEL 10
REMARK VINA RESULT:      -7.7      3.062     10.131
REMARK  8 active torsions:
REMARK  status: ('A' for Active; 'I' for Inactive)
REMARK    1  A    between atoms: C_2  and  C_3 
REMARK    2  A    between atoms: C_3  and  N_4 
REMARK    3  A    between atoms: C_7  and  C_8 
REMARK       I    between atoms: C_8  and  N_9 
REMARK    4  A    between atoms: N_9  and  N_10 
REMARK       I    between atoms: N_10  and  C_11 
REMARK    5  A    between atoms: C_11  and  C_12 
REMARK    6  A    between atoms: C_12  and  O_13 
REMARK    7  A    between atoms: O_13  and  C_14 
REMARK    8  A    between atoms: C_23  and  C_24 
ROOT
HETATM    1  C   UNL     1      21.576  47.402  47.825  1.00  0.00     0.273 C 
HETATM    2  N   UNL     1      21.979  47.444  49.150  1.00  0.00    -0.263 N 
HETATM    3  O   UNL     1      22.311  46.978  46.937  1.00  0.00    -0.266 OA
HETATM    4  H   UNL     1      21.288  47.511  49.896  1.00  0.00     0.190 HD
ENDROOT
BRANCH   2   5
HETATM    5  N   UNL     1      23.194  46.834  49.501  1.00  0.00    -0.265 N 
HETATM    6  C   UNL     1      24.211  47.652  49.956  1.00  0.00     0.260 C 
HETATM    7  O   UNL     1      24.121  48.881  49.944  1.00  0.00    -0.269 OA
HETATM    8  H   UNL     1      23.153  45.841  49.729  1.00  0.00     0.190 HD
BRANCH   6   9
HETATM    9  C   UNL     1      25.443  46.911  50.451  1.00  0.00     0.280 C 
BRANCH   9  10
HETATM   10  O   UNL     1      25.057  46.132  51.578  1.00  0.00    -0.342 OA
BRANCH  10  11
HETATM   11  C   UNL     1      25.964  46.056  52.600  1.00  0.00     0.069 A 
HETATM   12  C   UNL     1      26.124  47.231  53.336  1.00  0.00     0.037 A 
HETATM   13  C   UNL     1      27.024  47.285  54.403  1.00  0.00     0.009 A 
HETATM   14  C   UNL     1      27.792  46.166  54.735  1.00  0.00    -0.062 A 
HETATM   15  C   UNL     1      28.745  46.202  55.894  1.00  0.00     0.048 C 
HETATM   16  C   UNL     1      27.633  44.990  53.993  1.00  0.00     0.009 A 
HETATM   17  C   UNL     1      26.727  44.936  52.926  1.00  0.00     0.037 A 
ENDBRANCH  10  11
ENDBRANCH   9  10
ENDBRANCH   6   9
ENDBRANCH   2   5
BRANCH   1  18
HETATM   18  C   UNL     1      20.243  47.939  47.610  1.00  0.00     0.077 A 
HETATM   19  C   UNL     1      19.084  47.153  47.391  1.00  0.00     0.158 A 
HETATM   20  N   UNL     1      17.986  47.875  47.198  1.00  0.00    -0.183 NA
HETATM   21  N   UNL     1      18.405  49.144  47.360  1.00  0.00    -0.268 N 
HETATM   22  C   UNL     1      19.774  49.248  47.539  1.00  0.00     0.052 A 
BRANCH  21  23
HETATM   23  C   UNL     1      17.425  50.228  47.293  1.00  0.00     0.106 C 
HETATM   24  C   UNL     1      17.305  50.737  45.854  1.00  0.00     0.034 C 
BRANCH  23  25
HETATM   25  C   UNL     1      16.035  49.847  47.847  1.00  0.00     0.022 C 
HETATM   26  C   UNL     1      14.983  49.679  46.756  1.00  0.00     0.007 C 
ENDBRANCH  23  25
ENDBRANCH  21  23
BRANCH  22  27
HETATM   27  C   UNL     1      20.522  50.583  47.570  1.00  0.00     0.038 A 
HETATM   28  C   UNL     1      20.078  51.707  48.471  1.00  0.00     0.011 A 
HETATM   29  C   UNL     1      21.335  50.966  48.785  1.00  0.00     0.011 A 
ENDBRANCH  22  27
ENDBRANCH   1  18
TORSDOF 8
ENDMDL
