MODEL 1
REMARK VINA RESULT:      -8.3      0.000      0.000
REMARK  6 active torsions:
REMARK  status: ('A' for Active; 'I' for Inactive)
REMARK    1  A    between atoms: C_3  and  O_4 
REMARK    2  A    between atoms: O_4  and  C_5 
REMARK    3  A    between atoms: C_13  and  N_14 
REMARK       I    between atoms: N_14  and  C_15 
REMARK       I    between atoms: C_15  and  N_16 
REMARK    4  A    between atoms: N_16  and  C_17 
REMARK    5  A    between atoms: C_17  and  C_18 
REMARK    6  A    between atoms: C_18  and  C_19 
ROOT
HETATM    1  N   UNL     1      25.952  46.415  50.465  1.00  0.00    -0.308 N 
HETATM    2  C   UNL     1      26.506  47.320  49.587  1.00  0.00     0.320 C 
HETATM    3  N   UNL     1      25.651  48.388  49.394  1.00  0.00    -0.342 N 
HETATM    4  O   UNL     1      27.610  47.262  49.061  1.00  0.00    -0.247 OA
HETATM    5  H   UNL     1      25.147  46.769  50.956  1.00  0.00     0.170 HD
HETATM    6  H   UNL     1      24.665  48.152  49.367  1.00  0.00     0.164 HD
ENDROOT
BRANCH   1   7
HETATM    7  C   UNL     1      26.505  45.194  50.922  1.00  0.00     0.045 A 
HETATM    8  C   UNL     1      26.784  45.040  52.302  1.00  0.00    -0.002 A 
HETATM    9  C   UNL     1      26.472  46.134  53.291  1.00  0.00     0.053 C 
HETATM   10  C   UNL     1      27.415  43.857  52.741  1.00  0.00     0.077 A 
HETATM   11  C   UNL     1      27.666  42.808  51.856  1.00  0.00     0.037 A 
HETATM   12  C   UNL     1      27.349  42.949  50.511  1.00  0.00     0.005 A 
HETATM   13  C   UNL     1      26.783  44.138  50.047  1.00  0.00     0.030 A 
BRANCH  10  14
HETATM   14  O   UNL     1      27.734  43.757  54.073  1.00  0.00    -0.345 OA
BRANCH  14  15
HETATM   15  C   UNL     1      29.077  44.121  54.394  1.00  0.00     0.129 C 
HETATM   16  C   UNL     1      29.202  45.039  55.610  1.00  0.00     0.032 C 
HETATM   17  C   UNL     1      30.644  44.842  56.043  1.00  0.00     0.002 C 
HETATM   18  C   UNL     1      30.930  43.365  55.792  1.00  0.00     0.002 C 
HETATM   19  C   UNL     1      29.828  42.869  54.857  1.00  0.00     0.032 C 
ENDBRANCH  14  15
ENDBRANCH  10  14
ENDBRANCH   1   7
BRANCH   3  20
HETATM   20  C   UNL     1      26.025  49.476  48.502  1.00  0.00     0.132 C 
BRANCH  20  21
HETATM   21  C   UNL     1      24.819  50.182  47.882  1.00  0.00     0.102 C 
BRANCH  21  22
HETATM   22  C   UNL     1      23.526  49.667  48.412  1.00  0.00     0.148 A 
HETATM   23  N   UNL     1      22.979  50.117  49.549  1.00  0.00    -0.158 NA
HETATM   24  N   UNL     1      21.852  49.392  49.613  1.00  0.00    -0.270 N 
HETATM   25  H   UNL     1      21.214  49.531  50.390  1.00  0.00     0.190 HD
HETATM   26  C   UNL     1      21.755  48.541  48.558  1.00  0.00     0.227 A 
HETATM   27  N   UNL     1      22.799  48.686  47.778  1.00  0.00    -0.226 NA
ENDBRANCH  21  22
ENDBRANCH  20  21
ENDBRANCH   3  20
TORSDOF 6
ENDMDL
MODEL 2
REMARK VINA RESULT:      -8.0      1.690      2.748
REMARK  6 active torsions:
REMARK  status: ('A' for Active; 'I' for Inactive)
REMARK    1  A    between atoms: C_3  and  O_4 
REMARK    2  A    between atoms: O_4  and  C_5 
REMARK    3  A    between atoms: C_13  and  N_14 
REMARK       I    between atoms: N_14  and  C_15 
REMARK       I    between atoms: C_15  and  N_16 
REMARK    4  A    between atoms: N_16  and  C_17 
REMARK    5  A    between atoms: C_17  and  C_18 
REMARK    6  A    between atoms: C_18  and  C_19 
ROOT
HETATM    1  N   UNL     1      25.382  45.175  52.084  1.00  0.00    -0.308 N 
HETATM    2  C   UNL     1      25.240  45.543  50.764  1.00  0.00     0.320 C 
HETATM    3  N   UNL     1      24.005  46.125  50.558  1.00  0.00    -0.342 N 
HETATM    4  O   UNL     1      26.072  45.439  49.872  1.00  0.00    -0.247 OA
HETATM    5  H   UNL     1      24.677  45.564  52.690  1.00  0.00     0.170 HD
HETATM    6  H   UNL     1      23.240  45.714  51.083  1.00  0.00     0.164 HD
ENDROOT
BRANCH   1   7
HETATM    7  C   UNL     1      26.495  44.552  52.700  1.00  0.00     0.045 A 
HETATM    8  C   UNL     1      27.274  45.292  53.622  1.00  0.00    -0.002 A 
HETATM    9  C   UNL     1      26.922  46.713  53.981  1.00  0.00     0.053 C 
HETATM   10  C   UNL     1      28.431  44.697  54.166  1.00  0.00     0.077 A 
HETATM   11  C   UNL     1      28.751  43.367  53.891  1.00  0.00     0.037 A 
HETATM   12  C   UNL     1      27.955  42.632  53.020  1.00  0.00     0.005 A 
HETATM   13  C   UNL     1      26.842  43.225  52.422  1.00  0.00     0.030 A 
BRANCH  10  14
HETATM   14  O   UNL     1      29.207  45.456  55.007  1.00  0.00    -0.345 OA
BRANCH  14  15
HETATM   15  C   UNL     1      29.625  44.790  56.199  1.00  0.00     0.129 C 
HETATM   16  C   UNL     1      31.054  44.250  56.146  1.00  0.00     0.032 C 
HETATM   17  C   UNL     1      31.417  44.091  57.612  1.00  0.00     0.002 C 
HETATM   18  C   UNL     1      30.752  45.274  58.310  1.00  0.00     0.002 C 
HETATM   19  C   UNL     1      29.710  45.816  57.333  1.00  0.00     0.032 C 
ENDBRANCH  14  15
ENDBRANCH  10  14
ENDBRANCH   1   7
BRANCH   3  20
HETATM   20  C   UNL     1      23.627  46.596  49.233  1.00  0.00     0.132 C 
BRANCH  20  21
HETATM   21  C   UNL     1      23.315  48.092  49.196  1.00  0.00     0.102 C 
BRANCH  21  22
HETATM   22  C   UNL     1      24.480  48.903  48.745  1.00  0.00     0.148 A 
HETATM   23  N   UNL     1      24.404  49.778  47.733  1.00  0.00    -0.158 NA
HETATM   24  N   UNL     1      25.655  50.262  47.700  1.00  0.00    -0.270 N 
HETATM   25  H   UNL     1      25.897  50.972  47.017  1.00  0.00     0.190 HD
HETATM   26  C   UNL     1      26.433  49.678  48.649  1.00  0.00     0.227 A 
HETATM   27  N   UNL     1      25.723  48.810  49.328  1.00  0.00    -0.226 NA
ENDBRANCH  21  22
ENDBRANCH  20  21
ENDBRANCH   3  20
TORSDOF 6
ENDMDL
MODEL 3
REMARK VINA RESULT:      -7.9      2.830      5.133
REMARK  6 active torsions:
REMARK  status: ('A' for Active; 'I' for Inactive)
REMARK    1  A    between atoms: C_3  and  O_4 
REMARK    2  A    between atoms: O_4  and  C_5 
REMARK    3  A    between atoms: C_13  and  N_14 
REMARK       I    between atoms: N_14  and  C_15 
REMARK       I    between atoms: C_15  and  N_16 
REMARK    4  A    between atoms: N_16  and  C_17 
REMARK    5  A    between atoms: C_17  and  C_18 
REMARK    6  A    between atoms: C_18  and  C_19 
ROOT
HETATM    1  N   UNL     1      23.529  49.812  48.162  1.00  0.00    -0.308 N 
HETATM    2  C   UNL     1      22.626  50.561  48.884  1.00  0.00     0.320 C 
HETATM    3  N   UNL     1      21.533  50.881  48.101  1.00  0.00    -0.342 N 
HETATM    4  O   UNL     1      22.704  50.883  50.062  1.00  0.00    -0.247 OA
HETATM    5  H   UNL     1      23.161  49.465  47.291  1.00  0.00     0.170 HD
HETATM    6  H   UNL     1      21.743  51.087  47.130  1.00  0.00     0.164 HD
ENDROOT
BRANCH   1   7
HETATM    7  C   UNL     1      24.770  49.287  48.597  1.00  0.00     0.045 A 
HETATM    8  C   UNL     1      24.792  48.041  49.270  1.00  0.00    -0.002 A 
HETATM    9  C   UNL     1      23.527  47.253  49.499  1.00  0.00     0.053 C 
HETATM   10  C   UNL     1      26.017  47.564  49.778  1.00  0.00     0.077 A 
HETATM   11  C   UNL     1      27.209  48.246  49.535  1.00  0.00     0.037 A 
HETATM   12  C   UNL     1      27.186  49.446  48.835  1.00  0.00     0.005 A 
HETATM   13  C   UNL     1      25.974  49.967  48.379  1.00  0.00     0.030 A 
BRANCH  10  14
HETATM   14  O   UNL     1      26.003  46.385  50.483  1.00  0.00    -0.345 OA
BRANCH  14  15
HETATM   15  C   UNL     1      26.490  46.484  51.822  1.00  0.00     0.129 C 
HETATM   16  C   UNL     1      25.541  47.199  52.782  1.00  0.00     0.032 C 
HETATM   17  C   UNL     1      26.004  46.719  54.147  1.00  0.00     0.002 C 
HETATM   18  C   UNL     1      26.402  45.262  53.934  1.00  0.00     0.002 C 
HETATM   19  C   UNL     1      26.559  45.078  52.425  1.00  0.00     0.032 C 
ENDBRANCH  14  15
ENDBRANCH  10  14
ENDBRANCH   1   7
BRANCH   3  20
HETATM   20  C   UNL     1      20.442  51.673  48.652  1.00  0.00     0.132 C 
BRANCH  20  21
HETATM   21  C   UNL     1      19.096  50.949  48.608  1.00  0.00     0.102 C 
BRANCH  21  22
HETATM   22  C   UNL     1      19.040  49.798  49.552  1.00  0.00     0.148 A 
HETATM   23  N   UNL     1      19.595  48.610  49.279  1.00  0.00    -0.158 NA
HETATM   24  N   UNL     1      19.308  47.915  50.390  1.00  0.00    -0.270 N 
HETATM   25  H   UNL     1      19.622  46.954  50.471  1.00  0.00     0.190 HD
HETATM   26  C   UNL     1      18.599  48.668  51.271  1.00  0.00     0.227 A 
HETATM   27  N   UNL     1      18.408  49.866  50.773  1.00  0.00    -0.226 NA
ENDBRANCH  21  22
ENDBRANCH  20  21
ENDBRANCH   3  20
TORSDOF 6
ENDMDL
MODEL 4
REMARK VINA RESULT:      -7.8      4.950      7.002
REMARK  6 active torsions:
REMARK  status: ('A' for Active; 'I' for Inactive)
REMARK    1  A    between atoms: C_3  and  O_4 
REMARK    2  A    between atoms: O_4  and  C_5 
REMARK    3  A    between atoms: C_13  and  N_14 
REMARK       I    between atoms: N_14  and  C_15 
REMARK       I    between atoms: C_15  and  N_16 
REMARK    4  A    between atoms: N_16  and  C_17 
REMARK    5  A    between atoms: C_17  and  C_18 
REMARK    6  A    between atoms: C_18  and  C_19 
ROOT
HETATM    1  N   UNL     1      27.037  42.388  51.522  1.00  0.00    -0.308 N 
HETATM    2  C   UNL     1      27.101  42.564  50.157  1.00  0.00     0.320 C 
HETATM    3  N   UNL     1      27.034  41.345  49.512  1.00  0.00    -0.342 N 
HETATM    4  O   UNL     1      27.159  43.625  49.549  1.00  0.00    -0.247 OA
HETATM    5  H   UNL     1      26.755  41.461  51.797  1.00  0.00     0.170 HD
HETATM    6  H   UNL     1      27.518  40.583  49.975  1.00  0.00     0.164 HD
ENDROOT
BRANCH   1   7
HETATM    7  C   UNL     1      27.073  43.380  52.531  1.00  0.00     0.045 A 
HETATM    8  C   UNL     1      28.323  43.764  53.075  1.00  0.00    -0.002 A 
HETATM    9  C   UNL     1      29.611  43.160  52.576  1.00  0.00     0.053 C 
HETATM   10  C   UNL     1      28.347  44.689  54.139  1.00  0.00     0.077 A 
HETATM   11  C   UNL     1      27.176  45.302  54.583  1.00  0.00     0.037 A 
HETATM   12  C   UNL     1      25.957  44.954  54.014  1.00  0.00     0.005 A 
HETATM   13  C   UNL     1      25.906  43.992  53.003  1.00  0.00     0.030 A 
BRANCH  10  14
HETATM   14  O   UNL     1      29.566  44.996  54.693  1.00  0.00    -0.345 OA
BRANCH  14  15
HETATM   15  C   UNL     1      29.843  44.337  55.930  1.00  0.00     0.129 C 
HETATM   16  C   UNL     1      31.084  43.446  55.899  1.00  0.00     0.032 C 
HETATM   17  C   UNL     1      31.448  43.313  57.368  1.00  0.00     0.002 C 
HETATM   18  C   UNL     1      31.132  44.676  57.975  1.00  0.00     0.002 C 
HETATM   19  C   UNL     1      30.228  45.391  56.972  1.00  0.00     0.032 C 
ENDBRANCH  14  15
ENDBRANCH  10  14
ENDBRANCH   1   7
BRANCH   3  20
HETATM   20  C   UNL     1      27.083  41.280  48.058  1.00  0.00     0.132 C 
BRANCH  20  21
HETATM   21  C   UNL     1      27.659  39.963  47.536  1.00  0.00     0.102 C 
BRANCH  21  22
HETATM   22  C   UNL     1      28.030  39.032  48.637  1.00  0.00     0.148 A 
HETATM   23  N   UNL     1      27.156  38.180  49.190  1.00  0.00    -0.158 NA
HETATM   24  N   UNL     1      27.922  37.560  50.101  1.00  0.00    -0.270 N 
HETATM   25  H   UNL     1      27.516  36.834  50.681  1.00  0.00     0.190 HD
HETATM   26  C   UNL     1      29.191  38.045  50.088  1.00  0.00     0.227 A 
HETATM   27  N   UNL     1      29.296  38.981  49.175  1.00  0.00    -0.226 NA
ENDBRANCH  21  22
ENDBRANCH  20  21
ENDBRANCH   3  20
TORSDOF 6
ENDMDL
MODEL 5
REMARK VINA RESULT:      -7.6      1.793      2.367
REMARK  6 active torsions:
REMARK  status: ('A' for Active; 'I' for Inactive)
REMARK    1  A    between atoms: C_3  and  O_4 
REMARK    2  A    between atoms: O_4  and  C_5 
REMARK    3  A    between atoms: C_13  and  N_14 
REMARK       I    between atoms: N_14  and  C_15 
REMARK       I    between atoms: C_15  and  N_16 
REMARK    4  A    between atoms: N_16  and  C_17 
REMARK    5  A    between atoms: C_17  and  C_18 
REMARK    6  A    between atoms: C_18  and  C_19 
ROOT
HETATM    1  N   UNL     1      25.402  45.855  52.193  1.00  0.00    -0.308 N 
HETATM    2  C   UNL     1      25.497  46.437  50.948  1.00  0.00     0.320 C 
HETATM    3  N   UNL     1      24.324  47.097  50.635  1.00  0.00    -0.342 N 
HETATM    4  O   UNL     1      26.470  46.444  50.205  1.00  0.00    -0.247 OA
HETATM    5  H   UNL     1      24.608  46.170  52.727  1.00  0.00     0.170 HD
HETATM    6  H   UNL     1      23.475  46.638  50.947  1.00  0.00     0.164 HD
ENDROOT
BRANCH   1   7
HETATM    7  C   UNL     1      26.382  45.095  52.876  1.00  0.00     0.045 A 
HETATM    8  C   UNL     1      27.248  45.747  53.787  1.00  0.00    -0.002 A 
HETATM    9  C   UNL     1      27.122  47.223  54.065  1.00  0.00     0.053 C 
HETATM   10  C   UNL     1      28.278  45.003  54.399  1.00  0.00     0.077 A 
HETATM   11  C   UNL     1      28.383  43.626  54.200  1.00  0.00     0.037 A 
HETATM   12  C   UNL     1      27.501  42.984  53.339  1.00  0.00     0.005 A 
HETATM   13  C   UNL     1      26.515  43.716  52.674  1.00  0.00     0.030 A 
BRANCH  10  14
HETATM   14  O   UNL     1      29.144  45.671  55.228  1.00  0.00    -0.345 OA
BRANCH  14  15
HETATM   15  C   UNL     1      29.647  44.895  56.317  1.00  0.00     0.129 C 
HETATM   16  C   UNL     1      31.046  44.325  56.085  1.00  0.00     0.032 C 
HETATM   17  C   UNL     1      31.537  44.033  57.493  1.00  0.00     0.002 C 
HETATM   18  C   UNL     1      30.979  45.169  58.344  1.00  0.00     0.002 C 
HETATM   19  C   UNL     1      29.871  45.819  57.518  1.00  0.00     0.032 C 
ENDBRANCH  14  15
ENDBRANCH  10  14
ENDBRANCH   1   7
BRANCH   3  20
HETATM   20  C   UNL     1      24.190  47.791  49.363  1.00  0.00     0.132 C 
BRANCH  20  21
HETATM   21  C   UNL     1      22.741  47.886  48.883  1.00  0.00     0.102 C 
BRANCH  21  22
HETATM   22  C   UNL     1      22.041  49.082  49.428  1.00  0.00     0.148 A 
HETATM   23  N   UNL     1      22.684  50.065  50.073  1.00  0.00    -0.158 NA
HETATM   24  N   UNL     1      21.677  50.905  50.360  1.00  0.00    -0.270 N 
HETATM   25  H   UNL     1      21.874  51.768  50.854  1.00  0.00     0.190 HD
HETATM   26  C   UNL     1      20.490  50.419  49.911  1.00  0.00     0.227 A 
HETATM   27  N   UNL     1      20.682  49.265  49.318  1.00  0.00    -0.226 NA
ENDBRANCH  21  22
ENDBRANCH  20  21
ENDBRANCH   3  20
TORSDOF 6
ENDMDL
MODEL 6
REMARK VINA RESULT:      -7.6      1.600      2.019
REMARK  6 active torsions:
REMARK  status: ('A' for Active; 'I' for Inactive)
REMARK    1  A    between atoms: C_3  and  O_4 
REMARK    2  A    between atoms: O_4  and  C_5 
REMARK    3  A    between atoms: C_13  and  N_14 
REMARK       I    between atoms: N_14  and  C_15 
REMARK       I    between atoms: C_15  and  N_16 
REMARK    4  A    between atoms: N_16  and  C_17 
REMARK    5  A    between atoms: C_17  and  C_18 
REMARK    6  A    between atoms: C_18  and  C_19 
ROOT
HETATM    1  N   UNL     1      24.309  46.085  50.468  1.00  0.00    -0.308 N 
HETATM    2  C   UNL     1      24.440  47.333  49.900  1.00  0.00     0.320 C 
HETATM    3  N   UNL     1      23.220  47.982  49.880  1.00  0.00    -0.342 N 
HETATM    4  O   UNL     1      25.469  47.861  49.500  1.00  0.00    -0.247 OA
HETATM    5  H   UNL     1      23.430  45.945  50.940  1.00  0.00     0.170 HD
HETATM    6  H   UNL     1      22.419  47.390  49.690  1.00  0.00     0.164 HD
ENDROOT
BRANCH   1   7
HETATM    7  C   UNL     1      25.317  45.112  50.674  1.00  0.00     0.045 A 
HETATM    8  C   UNL     1      25.693  44.781  51.998  1.00  0.00    -0.002 A 
HETATM    9  C   UNL     1      25.018  45.419  53.186  1.00  0.00     0.053 C 
HETATM   10  C   UNL     1      26.757  43.876  52.198  1.00  0.00     0.077 A 
HETATM   11  C   UNL     1      27.362  43.232  51.119  1.00  0.00     0.037 A 
HETATM   12  C   UNL     1      26.957  43.528  49.823  1.00  0.00     0.005 A 
HETATM   13  C   UNL     1      25.949  44.469  49.603  1.00  0.00     0.030 A 
BRANCH  10  14
HETATM   14  O   UNL     1      27.146  43.620  53.490  1.00  0.00    -0.345 OA
BRANCH  14  15
HETATM   15  C   UNL     1      28.448  44.100  53.828  1.00  0.00     0.129 C 
HETATM   16  C   UNL     1      28.489  44.960  55.090  1.00  0.00     0.032 C 
HETATM   17  C   UNL     1      29.947  44.888  55.509  1.00  0.00     0.002 C 
HETATM   18  C   UNL     1      30.378  43.462  55.179  1.00  0.00     0.002 C 
HETATM   19  C   UNL     1      29.325  42.908  54.221  1.00  0.00     0.032 C 
ENDBRANCH  14  15
ENDBRANCH  10  14
ENDBRANCH   1   7
BRANCH   3  20
HETATM   20  C   UNL     1      23.111  49.323  49.323  1.00  0.00     0.132 C 
BRANCH  20  21
HETATM   21  C   UNL     1      21.743  49.602  48.700  1.00  0.00     0.102 C 
BRANCH  21  22
HETATM   22  C   UNL     1      20.781  48.487  48.920  1.00  0.00     0.148 A 
HETATM   23  N   UNL     1      19.816  48.537  49.848  1.00  0.00    -0.158 NA
HETATM   24  N   UNL     1      19.213  47.350  49.676  1.00  0.00    -0.270 N 
HETATM   25  H   UNL     1      18.416  47.108  50.254  1.00  0.00     0.190 HD
HETATM   26  C   UNL     1      19.816  46.632  48.693  1.00  0.00     0.227 A 
HETATM   27  N   UNL     1      20.815  47.319  48.193  1.00  0.00    -0.226 NA
ENDBRANCH  21  22
ENDBRANCH  20  21
ENDBRANCH   3  20
TORSDOF 6
ENDMDL
MODEL 7
REMARK VINA RESULT:      -7.6      3.315      8.442
REMARK  6 active torsions:
REMARK  status: ('A' for Active; 'I' for Inactive)
REMARK    1  A    between atoms: C_3  and  O_4 
REMARK    2  A    between atoms: O_4  and  C_5 
REMARK    3  A    between atoms: C_13  and  N_14 
REMARK       I    between atoms: N_14  and  C_15 
REMARK       I    between atoms: C_15  and  N_16 
REMARK    4  A    between atoms: N_16  and  C_17 
REMARK    5  A    between atoms: C_17  and  C_18 
REMARK    6  A    between atoms: C_18  and  C_19 
ROOT
HETATM    1  N   UNL     1      25.981  44.272  52.660  1.00  0.00    -0.308 N 
HETATM    2  C   UNL     1      27.112  43.489  52.588  1.00  0.00     0.320 C 
HETATM    3  N   UNL     1      27.523  43.120  53.854  1.00  0.00    -0.342 N 
HETATM    4  O   UNL     1      27.684  43.104  51.576  1.00  0.00    -0.247 OA
HETATM    5  H   UNL     1      25.546  44.270  53.568  1.00  0.00     0.170 HD
HETATM    6  H   UNL     1      27.410  43.831  54.569  1.00  0.00     0.164 HD
ENDROOT
BRANCH   1   7
HETATM    7  C   UNL     1      25.252  44.849  51.593  1.00  0.00     0.045 A 
HETATM    8  C   UNL     1      25.281  46.254  51.420  1.00  0.00    -0.002 A 
HETATM    9  C   UNL     1      26.098  47.138  52.329  1.00  0.00     0.053 C 
HETATM   10  C   UNL     1      24.484  46.833  50.410  1.00  0.00     0.077 A 
HETATM   11  C   UNL     1      23.761  46.035  49.523  1.00  0.00     0.037 A 
HETATM   12  C   UNL     1      23.772  44.654  49.670  1.00  0.00     0.005 A 
HETATM   13  C   UNL     1      24.504  44.067  50.705  1.00  0.00     0.030 A 
BRANCH  10  14
HETATM   14  O   UNL     1      24.479  48.202  50.304  1.00  0.00    -0.345 OA
BRANCH  14  15
HETATM   15  C   UNL     1      23.816  48.708  49.144  1.00  0.00     0.129 C 
HETATM   16  C   UNL     1      22.592  49.571  49.451  1.00  0.00     0.032 C 
HETATM   17  C   UNL     1      22.412  50.378  48.177  1.00  0.00     0.002 C 
HETATM   18  C   UNL     1      23.830  50.675  47.699  1.00  0.00     0.002 C 
HETATM   19  C   UNL     1      24.745  49.704  48.443  1.00  0.00     0.032 C 
ENDBRANCH  14  15
ENDBRANCH  10  14
ENDBRANCH   1   7
BRANCH   3  20
HETATM   20  C   UNL     1      28.704  42.286  54.029  1.00  0.00     0.132 C 
BRANCH  20  21
HETATM   21  C   UNL     1      30.002  43.092  54.086  1.00  0.00     0.102 C 
BRANCH  21  22
HETATM   22  C   UNL     1      30.003  44.087  55.193  1.00  0.00     0.148 A 
HETATM   23  N   UNL     1      30.887  44.048  56.200  1.00  0.00    -0.158 NA
HETATM   24  N   UNL     1      30.517  45.115  56.926  1.00  0.00    -0.270 N 
HETATM   25  H   UNL     1      31.031  45.345  57.769  1.00  0.00     0.190 HD
HETATM   26  C   UNL     1      29.449  45.742  56.368  1.00  0.00     0.227 A 
HETATM   27  N   UNL     1      29.094  45.117  55.271  1.00  0.00    -0.226 NA
ENDBRANCH  21  22
ENDBRANCH  20  21
ENDBRANCH   3  20
TORSDOF 6
ENDMDL
MODEL 8
REMARK VINA RESULT:      -7.4     10.909     12.330
REMARK  6 active torsions:
REMARK  status: ('A' for Active; 'I' for Inactive)
REMARK    1  A    between atoms: C_3  and  O_4 
REMARK    2  A    between atoms: O_4  and  C_5 
REMARK    3  A    between atoms: C_13  and  N_14 
REMARK       I    between atoms: N_14  and  C_15 
REMARK       I    between atoms: C_15  and  N_16 
REMARK    4  A    between atoms: N_16  and  C_17 
REMARK    5  A    between atoms: C_17  and  C_18 
REMARK    6  A    between atoms: C_18  and  C_19 
ROOT
HETATM    1  N   UNL     1      26.810  50.952  40.194  1.00  0.00    -0.308 N 
HETATM    2  C   UNL     1      26.445  50.198  39.100  1.00  0.00     0.320 C 
HETATM    3  N   UNL     1      25.140  49.766  39.228  1.00  0.00    -0.342 N 
HETATM    4  O   UNL     1      27.121  49.956  38.108  1.00  0.00    -0.247 OA
HETATM    5  H   UNL     1      26.033  51.222  40.776  1.00  0.00     0.170 HD
HETATM    6  H   UNL     1      24.859  49.512  40.169  1.00  0.00     0.164 HD
ENDROOT
BRANCH   1   7
HETATM    7  C   UNL     1      28.056  51.575  40.446  1.00  0.00     0.045 A 
HETATM    8  C   UNL     1      28.999  50.919  41.274  1.00  0.00    -0.002 A 
HETATM    9  C   UNL     1      28.712  49.560  41.861  1.00  0.00     0.053 C 
HETATM   10  C   UNL     1      30.202  51.581  41.593  1.00  0.00     0.077 A 
HETATM   11  C   UNL     1      30.516  52.814  41.021  1.00  0.00     0.037 A 
HETATM   12  C   UNL     1      29.605  53.432  40.173  1.00  0.00     0.005 A 
HETATM   13  C   UNL     1      28.380  52.821  39.897  1.00  0.00     0.030 A 
BRANCH  10  14
HETATM   14  O   UNL     1      31.072  50.952  42.449  1.00  0.00    -0.345 OA
BRANCH  14  15
HETATM   15  C   UNL     1      32.207  51.732  42.828  1.00  0.00     0.129 C 
HETATM   16  C   UNL     1      32.516  51.699  44.325  1.00  0.00     0.032 C 
HETATM   17  C   UNL     1      33.974  52.120  44.384  1.00  0.00     0.002 C 
HETATM   18  C   UNL     1      34.614  51.489  43.151  1.00  0.00     0.002 C 
HETATM   19  C   UNL     1      33.464  51.098  42.225  1.00  0.00     0.032 C 
ENDBRANCH  14  15
ENDBRANCH  10  14
ENDBRANCH   1   7
BRANCH   3  20
HETATM   20  C   UNL     1      24.532  48.948  38.188  1.00  0.00     0.132 C 
BRANCH  20  21
HETATM   21  C   UNL     1      23.071  49.310  37.920  1.00  0.00     0.102 C 
BRANCH  21  22
HETATM   22  C   UNL     1      22.439  50.010  39.073  1.00  0.00     0.148 A 
HETATM   23  N   UNL     1      22.105  49.379  40.207  1.00  0.00    -0.158 NA
HETATM   24  N   UNL     1      21.595  50.384  40.935  1.00  0.00    -0.270 N 
HETATM   25  H   UNL     1      21.258  50.198  41.873  1.00  0.00     0.190 HD
HETATM   26  C   UNL     1      21.619  51.554  40.243  1.00  0.00     0.227 A 
HETATM   27  N   UNL     1      22.144  51.354  39.058  1.00  0.00    -0.226 NA
ENDBRANCH  21  22
ENDBRANCH  20  21
ENDBRANCH   3  20
TORSDOF 6
ENDMDL
MODEL 9
REMARK VINA RESULT:      -7.2      2.130      3.357
REMARK  6 active torsions:
REMARK  status: ('A' for Active; 'I' for Inactive)
REMARK    1  A    between atoms: C_3  and  O_4 
REMARK    2  A    between atoms: O_4  and  C_5 
REMARK    3  A    between atoms: C_13  and  N_14 
REMARK       I    between atoms: N_14  and  C_15 
REMARK       I    between atoms: C_15  and  N_16 
REMARK    4  A    between atoms: N_16  and  C_17 
REMARK    5  A    between atoms: C_17  and  C_18 
REMARK    6  A    between atoms: C_18  and  C_19 
ROOT
HETATM    1  N   UNL     1      26.192  43.163  51.795  1.00  0.00    -0.308 N 
HETATM    2  C   UNL     1      25.992  43.493  50.473  1.00  0.00     0.320 C 
HETATM    3  N   UNL     1      24.642  43.506  50.179  1.00  0.00    -0.342 N 
HETATM    4  O   UNL     1      26.845  43.789  49.646  1.00  0.00    -0.247 OA
HETATM    5  H   UNL     1      25.351  43.190  52.349  1.00  0.00     0.170 HD
HETATM    6  H   UNL     1      24.093  42.787  50.639  1.00  0.00     0.164 HD
ENDROOT
BRANCH   1   7
HETATM    7  C   UNL     1      27.421  43.043  52.487  1.00  0.00     0.045 A 
HETATM    8  C   UNL     1      27.815  44.074  53.374  1.00  0.00    -0.002 A 
HETATM    9  C   UNL     1      26.935  45.274  53.618  1.00  0.00     0.053 C 
HETATM   10  C   UNL     1      29.079  43.993  53.994  1.00  0.00     0.077 A 
HETATM   11  C   UNL     1      29.888  42.869  53.827  1.00  0.00     0.037 A 
HETATM   12  C   UNL     1      29.476  41.840  52.990  1.00  0.00     0.005 A 
HETATM   13  C   UNL     1      28.256  41.933  52.317  1.00  0.00     0.030 A 
BRANCH  10  14
HETATM   14  O   UNL     1      29.465  45.036  54.800  1.00  0.00    -0.345 OA
BRANCH  14  15
HETATM   15  C   UNL     1      29.668  44.689  56.171  1.00  0.00     0.129 C 
HETATM   16  C   UNL     1      31.120  44.374  56.527  1.00  0.00     0.032 C 
HETATM   17  C   UNL     1      31.154  44.565  58.034  1.00  0.00     0.002 C 
HETATM   18  C   UNL     1      30.226  45.745  58.299  1.00  0.00     0.002 C 
HETATM   19  C   UNL     1      29.383  45.919  57.037  1.00  0.00     0.032 C 
ENDBRANCH  14  15
ENDBRANCH  10  14
ENDBRANCH   1   7
BRANCH   3  20
HETATM   20  C   UNL     1      24.187  43.829  48.834  1.00  0.00     0.132 C 
BRANCH  20  21
HETATM   21  C   UNL     1      22.957  44.738  48.822  1.00  0.00     0.102 C 
BRANCH  21  22
HETATM   22  C   UNL     1      23.307  46.169  49.039  1.00  0.00     0.148 A 
HETATM   23  N   UNL     1      24.293  46.556  49.860  1.00  0.00    -0.158 NA
HETATM   24  N   UNL     1      24.246  47.891  49.729  1.00  0.00    -0.270 N 
HETATM   25  H   UNL     1      24.905  48.465  50.244  1.00  0.00     0.190 HD
HETATM   26  C   UNL     1      23.259  48.266  48.873  1.00  0.00     0.227 A 
HETATM   27  N   UNL     1      22.642  47.201  48.419  1.00  0.00    -0.226 NA
ENDBRANCH  21  22
ENDBRANCH  20  21
ENDBRANCH   3  20
TORSDOF 6
ENDMDL
MODEL 10
REMARK VINA RESULT:      -7.0      4.142      9.997
REMARK  6 active torsions:
REMARK  status: ('A' for Active; 'I' for Inactive)
REMARK    1  A    between atoms: C_3  and  O_4 
REMARK    2  A    between atoms: O_4  and  C_5 
REMARK    3  A    between atoms: C_13  and  N_14 
REMARK       I    between atoms: N_14  and  C_15 
REMARK       I    between atoms: C_15  and  N_16 
REMARK    4  A    between atoms: N_16  and  C_17 
REMARK    5  A    between atoms: C_17  and  C_18 
REMARK    6  A    between atoms: C_18  and  C_19 
ROOT
HETATM    1  N   UNL     1      22.675  49.802  49.103  1.00  0.00    -0.308 N 
HETATM    2  C   UNL     1      23.786  49.941  48.300  1.00  0.00     0.320 C 
HETATM    3  N   UNL     1      24.917  49.514  48.967  1.00  0.00    -0.342 N 
HETATM    4  O   UNL     1      23.818  50.333  47.141  1.00  0.00    -0.247 OA
HETATM    5  H   UNL     1      22.838  49.245  49.926  1.00  0.00     0.170 HD
HETATM    6  H   UNL     1      24.943  49.734  49.957  1.00  0.00     0.164 HD
ENDROOT
BRANCH   1   7
HETATM    7  C   UNL     1      21.331  50.123  48.793  1.00  0.00     0.045 A 
HETATM    8  C   UNL     1      20.415  49.075  48.537  1.00  0.00    -0.002 A 
HETATM    9  C   UNL     1      20.836  47.630  48.621  1.00  0.00     0.053 C 
HETATM   10  C   UNL     1      19.100  49.401  48.145  1.00  0.00     0.077 A 
HETATM   11  C   UNL     1      18.670  50.727  48.111  1.00  0.00     0.037 A 
HETATM   12  C   UNL     1      19.563  51.750  48.407  1.00  0.00     0.005 A 
HETATM   13  C   UNL     1      20.886  51.449  48.736  1.00  0.00     0.030 A 
BRANCH  10  14
HETATM   14  O   UNL     1      18.248  48.368  47.839  1.00  0.00    -0.345 OA
BRANCH  14  15
HETATM   15  C   UNL     1      17.702  48.415  46.520  1.00  0.00     0.129 C 
HETATM   16  C   UNL     1      18.705  48.084  45.416  1.00  0.00     0.032 C 
HETATM   17  C   UNL     1      17.816  47.689  44.249  1.00  0.00     0.002 C 
HETATM   18  C   UNL     1      16.648  46.941  44.884  1.00  0.00     0.002 C 
HETATM   19  C   UNL     1      16.676  47.287  46.372  1.00  0.00     0.032 C 
ENDBRANCH  14  15
ENDBRANCH  10  14
ENDBRANCH   1   7
BRANCH   3  20
HETATM   20  C   UNL     1      26.218  49.567  48.315  1.00  0.00     0.132 C 
BRANCH  20  21
HETATM   21  C   UNL     1      27.307  48.826  49.091  1.00  0.00     0.102 C 
BRANCH  21  22
HETATM   22  C   UNL     1      26.776  47.645  49.826  1.00  0.00     0.148 A 
HETATM   23  N   UNL     1      26.904  46.391  49.371  1.00  0.00    -0.158 NA
HETATM   24  N   UNL     1      26.301  45.688  50.341  1.00  0.00    -0.270 N 
HETATM   25  H   UNL     1      26.254  44.677  50.267  1.00  0.00     0.190 HD
HETATM   26  C   UNL     1      25.827  46.505  51.318  1.00  0.00     0.227 A 
HETATM   27  N   UNL     1      26.107  47.752  51.024  1.00  0.00    -0.226 NA
ENDBRANCH  21  22
ENDBRANCH  20  21
ENDBRANCH   3  20
TORSDOF 6
ENDMDL
