MODEL 1
REMARK VINA RESULT:     -10.2      0.000      0.000
REMARK  4 active torsions:
REMARK  status: ('A' for Active; 'I' for Inactive)
REMARK    1  A    between atoms: C_2  and  C_3 
REMARK    2  A    between atoms: C_6  and  C_7 
REMARK    3  A    between atoms: C_11  and  C_12 
REMARK       I    between atoms: C_12  and  N_13 
REMARK    4  A    between atoms: N_13  and  N_14 
ROOT
HETATM    1  C   UNL     1      26.297  45.383  50.570  1.00  0.00     0.289 C 
HETATM    2  N   UNL     1      26.273  45.172  51.938  1.00  0.00    -0.241 N 
HETATM    3  O   UNL     1      27.210  45.019  49.832  1.00  0.00    -0.264 OA
HETATM    4  H   UNL     1      25.500  45.519  52.505  1.00  0.00     0.192 HD
ENDROOT
BRANCH   1   5
HETATM    5  C   UNL     1      25.154  46.086  50.044  1.00  0.00     0.121 A 
HETATM    6  N   UNL     1      24.220  45.440  49.284  1.00  0.00    -0.272 N 
HETATM    7  N   UNL     1      23.223  46.223  48.852  1.00  0.00    -0.174 NA
HETATM    8  H   UNL     1      24.225  44.458  49.025  1.00  0.00     0.189 HD
HETATM    9  C   UNL     1      23.492  47.434  49.367  1.00  0.00     0.089 A 
HETATM   10  C   UNL     1      24.703  47.389  50.118  1.00  0.00     0.071 A 
BRANCH   9  11
HETATM   11  C   UNL     1      22.607  48.581  49.130  1.00  0.00    -0.006 A 
HETATM   12  C   UNL     1      23.105  49.891  49.097  1.00  0.00     0.014 A 
HETATM   13  C   UNL     1      22.247  50.976  48.876  1.00  0.00     0.008 A 
HETATM   14  C   UNL     1      20.876  50.772  48.686  1.00  0.00    -0.059 A 
HETATM   15  C   UNL     1      20.376  49.466  48.710  1.00  0.00     0.008 A 
HETATM   16  C   UNL     1      21.233  48.384  48.935  1.00  0.00     0.014 A 
BRANCH  14  17
HETATM   17  C   UNL     1      19.954  51.938  48.436  1.00  0.00     0.034 C 
HETATM   18  C   UNL     1      18.863  52.034  49.492  1.00  0.00     0.010 C 
ENDBRANCH  14  17
ENDBRANCH   9  11
ENDBRANCH   1   5
BRANCH   2  19
HETATM   19  N   UNL     1      27.305  44.522  52.557  1.00  0.00    -0.165 NA
HETATM   20  C   UNL     1      27.787  45.076  53.622  1.00  0.00     0.157 A 
HETATM   21  C   UNL     1      27.354  46.384  54.294  1.00  0.00     0.277 A 
HETATM   22  C   UNL     1      28.883  44.557  54.429  1.00  0.00     0.027 A 
HETATM   23  O   UNL     1      26.455  47.096  53.900  1.00  0.00    -0.266 OA
HETATM   24  N   UNL     1      28.186  46.533  55.382  1.00  0.00    -0.321 N 
HETATM   25  C   UNL     1      29.080  45.468  55.466  1.00  0.00     0.048 A 
HETATM   26  H   UNL     1      28.136  47.314  56.020  1.00  0.00     0.169 HD
HETATM   27  C   UNL     1      30.058  45.267  56.417  1.00  0.00     0.030 A 
HETATM   28  C   UNL     1      30.842  44.112  56.298  1.00  0.00     0.002 A 
HETATM   29  C   UNL     1      30.635  43.194  55.246  1.00  0.00     0.001 A 
HETATM   30  C   UNL     1      29.641  43.413  54.290  1.00  0.00     0.016 A 
ENDBRANCH   2  19
TORSDOF 4
ENDMDL
MODEL 2
REMARK VINA RESULT:      -9.8      1.972      9.905
REMARK  4 active torsions:
REMARK  status: ('A' for Active; 'I' for Inactive)
REMARK    1  A    between atoms: C_2  and  C_3 
REMARK    2  A    between atoms: C_6  and  C_7 
REMARK    3  A    between atoms: C_11  and  C_12 
REMARK       I    between atoms: C_12  and  N_13 
REMARK    4  A    between atoms: N_13  and  N_14 
ROOT
HETATM    1  C   UNL     1      24.597  44.854  50.982  1.00  0.00     0.289 C 
HETATM    2  N   UNL     1      24.589  45.991  50.191  1.00  0.00    -0.241 N 
HETATM    3  O   UNL     1      23.610  44.151  51.187  1.00  0.00    -0.264 OA
HETATM    4  H   UNL     1      25.433  46.551  50.078  1.00  0.00     0.192 HD
ENDROOT
BRANCH   1   5
HETATM    5  C   UNL     1      25.870  44.539  51.579  1.00  0.00     0.121 A 
HETATM    6  N   UNL     1      26.878  43.991  50.837  1.00  0.00    -0.272 N 
HETATM    7  N   UNL     1      27.997  43.737  51.528  1.00  0.00    -0.174 NA
HETATM    8  H   UNL     1      26.845  43.763  49.848  1.00  0.00     0.189 HD
HETATM    9  C   UNL     1      27.730  44.157  52.776  1.00  0.00     0.089 A 
HETATM   10  C   UNL     1      26.399  44.663  52.849  1.00  0.00     0.071 A 
BRANCH   9  11
HETATM   11  C   UNL     1      28.730  44.063  53.846  1.00  0.00    -0.006 A 
HETATM   12  C   UNL     1      28.767  44.992  54.894  1.00  0.00     0.014 A 
HETATM   13  C   UNL     1      29.731  44.893  55.904  1.00  0.00     0.008 A 
HETATM   14  C   UNL     1      30.680  43.864  55.884  1.00  0.00    -0.059 A 
HETATM   15  C   UNL     1      30.643  42.930  54.845  1.00  0.00     0.008 A 
HETATM   16  C   UNL     1      29.681  43.033  53.834  1.00  0.00     0.014 A 
BRANCH  14  17
HETATM   17  C   UNL     1      31.711  43.750  56.978  1.00  0.00     0.034 C 
HETATM   18  C   UNL     1      31.360  44.613  58.180  1.00  0.00     0.010 C 
ENDBRANCH  14  17
ENDBRANCH   9  11
ENDBRANCH   1   5
BRANCH   2  19
HETATM   19  N   UNL     1      23.437  46.398  49.576  1.00  0.00    -0.165 NA
HETATM   20  C   UNL     1      23.385  47.636  49.200  1.00  0.00     0.157 A 
HETATM   21  C   UNL     1      24.451  48.725  49.357  1.00  0.00     0.277 A 
HETATM   22  C   UNL     1      22.259  48.274  48.533  1.00  0.00     0.027 A 
HETATM   23  O   UNL     1      25.538  48.557  49.869  1.00  0.00    -0.266 OA
HETATM   24  N   UNL     1      23.902  49.862  48.808  1.00  0.00    -0.321 N 
HETATM   25  C   UNL     1      22.621  49.604  48.324  1.00  0.00     0.048 A 
HETATM   26  H   UNL     1      24.380  50.751  48.769  1.00  0.00     0.169 HD
HETATM   27  C   UNL     1      21.764  50.490  47.706  1.00  0.00     0.030 A 
HETATM   28  C   UNL     1      20.517  49.998  47.298  1.00  0.00     0.002 A 
HETATM   29  C   UNL     1      20.158  48.650  47.513  1.00  0.00     0.001 A 
HETATM   30  C   UNL     1      21.037  47.765  48.141  1.00  0.00     0.016 A 
ENDBRANCH   2  19
TORSDOF 4
ENDMDL
MODEL 3
REMARK VINA RESULT:      -9.7      2.220      9.751
REMARK  4 active torsions:
REMARK  status: ('A' for Active; 'I' for Inactive)
REMARK    1  A    between atoms: C_2  and  C_3 
REMARK    2  A    between atoms: C_6  and  C_7 
REMARK    3  A    between atoms: C_11  and  C_12 
REMARK       I    between atoms: C_12  and  N_13 
REMARK    4  A    between atoms: N_13  and  N_14 
ROOT
HETATM    1  C   UNL     1      24.228  44.848  48.975  1.00  0.00     0.289 C 
HETATM    2  N   UNL     1      23.651  45.998  49.487  1.00  0.00    -0.241 N 
HETATM    3  O   UNL     1      23.805  44.243  47.993  1.00  0.00    -0.264 OA
HETATM    4  H   UNL     1      24.031  46.443  50.322  1.00  0.00     0.192 HD
ENDROOT
BRANCH   1   5
HETATM    5  C   UNL     1      25.388  44.380  49.692  1.00  0.00     0.121 A 
HETATM    6  N   UNL     1      26.293  43.547  49.097  1.00  0.00    -0.272 N 
HETATM    7  N   UNL     1      27.311  43.183  49.888  1.00  0.00    -0.174 NA
HETATM    8  H   UNL     1      26.253  43.191  48.147  1.00  0.00     0.189 HD
HETATM    9  C   UNL     1      27.086  43.820  51.048  1.00  0.00     0.089 A 
HETATM   10  C   UNL     1      25.882  44.579  50.966  1.00  0.00     0.071 A 
BRANCH   9  11
HETATM   11  C   UNL     1      28.005  43.688  52.185  1.00  0.00    -0.006 A 
HETATM   12  C   UNL     1      29.122  42.843  52.124  1.00  0.00     0.014 A 
HETATM   13  C   UNL     1      29.987  42.722  53.219  1.00  0.00     0.008 A 
HETATM   14  C   UNL     1      29.749  43.441  54.397  1.00  0.00    -0.059 A 
HETATM   15  C   UNL     1      28.641  44.290  54.459  1.00  0.00     0.008 A 
HETATM   16  C   UNL     1      27.776  44.408  53.366  1.00  0.00     0.014 A 
BRANCH  14  17
HETATM   17  C   UNL     1      30.686  43.320  55.572  1.00  0.00     0.034 C 
HETATM   18  C   UNL     1      30.769  44.614  56.365  1.00  0.00     0.010 C 
ENDBRANCH  14  17
ENDBRANCH   9  11
ENDBRANCH   1   5
BRANCH   2  19
HETATM   19  N   UNL     1      22.539  46.536  48.899  1.00  0.00    -0.165 NA
HETATM   20  C   UNL     1      22.463  47.827  48.872  1.00  0.00     0.157 A 
HETATM   21  C   UNL     1      23.460  48.852  49.422  1.00  0.00     0.277 A 
HETATM   22  C   UNL     1      21.370  48.602  48.299  1.00  0.00     0.027 A 
HETATM   23  O   UNL     1      24.504  48.572  49.972  1.00  0.00    -0.266 OA
HETATM   24  N   UNL     1      22.909  50.086  49.154  1.00  0.00    -0.321 N 
HETATM   25  C   UNL     1      21.688  49.945  48.497  1.00  0.00     0.048 A 
HETATM   26  H   UNL     1      23.347  50.960  49.406  1.00  0.00     0.169 HD
HETATM   27  C   UNL     1      20.848  50.949  48.064  1.00  0.00     0.030 A 
HETATM   28  C   UNL     1      19.665  50.564  47.420  1.00  0.00     0.002 A 
HETATM   29  C   UNL     1      19.351  49.202  47.222  1.00  0.00     0.001 A 
HETATM   30  C   UNL     1      20.213  48.196  47.667  1.00  0.00     0.016 A 
ENDBRANCH   2  19
TORSDOF 4
ENDMDL
MODEL 4
REMARK VINA RESULT:      -9.5      1.559      2.229
REMARK  4 active torsions:
REMARK  status: ('A' for Active; 'I' for Inactive)
REMARK    1  A    between atoms: C_2  and  C_3 
REMARK    2  A    between atoms: C_6  and  C_7 
REMARK    3  A    between atoms: C_11  and  C_12 
REMARK       I    between atoms: C_12  and  N_13 
REMARK    4  A    between atoms: N_13  and  N_14 
ROOT
HETATM    1  C   UNL     1      25.871  47.182  49.781  1.00  0.00     0.289 C 
HETATM    2  N   UNL     1      25.537  46.291  50.788  1.00  0.00    -0.241 N 
HETATM    3  O   UNL     1      26.954  47.192  49.202  1.00  0.00    -0.264 OA
HETATM    4  H   UNL     1      24.631  46.347  51.251  1.00  0.00     0.192 HD
ENDROOT
BRANCH   1   5
HETATM    5  C   UNL     1      24.843  48.136  49.448  1.00  0.00     0.121 A 
HETATM    6  N   UNL     1      25.150  49.312  48.826  1.00  0.00    -0.272 N 
HETATM    7  N   UNL     1      24.095  50.105  48.593  1.00  0.00    -0.174 NA
HETATM    8  H   UNL     1      26.074  49.623  48.544  1.00  0.00     0.189 HD
HETATM    9  C   UNL     1      23.041  49.416  49.058  1.00  0.00     0.089 A 
HETATM   10  C   UNL     1      23.471  48.174  49.610  1.00  0.00     0.071 A 
BRANCH   9  11
HETATM   11  C   UNL     1      21.677  49.952  48.971  1.00  0.00    -0.006 A 
HETATM   12  C   UNL     1      20.561  49.154  49.256  1.00  0.00     0.014 A 
HETATM   13  C   UNL     1      19.265  49.677  49.162  1.00  0.00     0.008 A 
HETATM   14  C   UNL     1      19.061  51.008  48.778  1.00  0.00    -0.059 A 
HETATM   15  C   UNL     1      20.172  51.810  48.500  1.00  0.00     0.008 A 
HETATM   16  C   UNL     1      21.465  51.284  48.591  1.00  0.00     0.014 A 
BRANCH  14  17
HETATM   17  C   UNL     1      17.668  51.575  48.687  1.00  0.00     0.034 C 
HETATM   18  C   UNL     1      17.374  52.538  49.827  1.00  0.00     0.010 C 
ENDBRANCH  14  17
ENDBRANCH   9  11
ENDBRANCH   1   5
BRANCH   2  19
HETATM   19  N   UNL     1      26.433  45.343  51.198  1.00  0.00    -0.165 NA
HETATM   20  C   UNL     1      26.896  45.462  52.401  1.00  0.00     0.157 A 
HETATM   21  C   UNL     1      26.575  46.539  53.442  1.00  0.00     0.277 A 
HETATM   22  C   UNL     1      27.856  44.568  53.034  1.00  0.00     0.027 A 
HETATM   23  O   UNL     1      25.802  47.457  53.269  1.00  0.00    -0.266 OA
HETATM   24  N   UNL     1      27.334  46.222  54.548  1.00  0.00    -0.321 N 
HETATM   25  C   UNL     1      28.083  45.071  54.314  1.00  0.00     0.048 A 
HETATM   26  H   UNL     1      27.331  46.762  55.400  1.00  0.00     0.169 HD
HETATM   27  C   UNL     1      28.954  44.446  55.182  1.00  0.00     0.030 A 
HETATM   28  C   UNL     1      29.599  43.290  54.724  1.00  0.00     0.002 A 
HETATM   29  C   UNL     1      29.362  42.787  53.427  1.00  0.00     0.001 A 
HETATM   30  C   UNL     1      28.478  43.431  52.559  1.00  0.00     0.016 A 
ENDBRANCH   2  19
TORSDOF 4
ENDMDL
MODEL 5
REMARK VINA RESULT:      -9.2      2.396     10.393
REMARK  4 active torsions:
REMARK  status: ('A' for Active; 'I' for Inactive)
REMARK    1  A    between atoms: C_2  and  C_3 
REMARK    2  A    between atoms: C_6  and  C_7 
REMARK    3  A    between atoms: C_11  and  C_12 
REMARK       I    between atoms: C_12  and  N_13 
REMARK    4  A    between atoms: N_13  and  N_14 
ROOT
HETATM    1  C   UNL     1      24.136  47.916  49.869  1.00  0.00     0.289 C 
HETATM    2  N   UNL     1      22.788  47.689  49.643  1.00  0.00    -0.241 N 
HETATM    3  O   UNL     1      24.743  48.908  49.472  1.00  0.00    -0.264 OA
HETATM    4  H   UNL     1      22.342  46.834  49.975  1.00  0.00     0.192 HD
ENDROOT
BRANCH   1   5
HETATM    5  C   UNL     1      24.809  46.884  50.616  1.00  0.00     0.121 A 
HETATM    6  N   UNL     1      24.251  45.646  50.763  1.00  0.00    -0.272 N 
HETATM    7  N   UNL     1      24.982  44.794  51.494  1.00  0.00    -0.174 NA
HETATM    8  H   UNL     1      23.361  45.335  50.386  1.00  0.00     0.189 HD
HETATM    9  C   UNL     1      26.084  45.487  51.825  1.00  0.00     0.089 A 
HETATM   10  C   UNL     1      26.009  46.809  51.296  1.00  0.00     0.071 A 
BRANCH   9  11
HETATM   11  C   UNL     1      27.156  44.884  52.626  1.00  0.00    -0.006 A 
HETATM   12  C   UNL     1      27.984  43.884  52.100  1.00  0.00     0.014 A 
HETATM   13  C   UNL     1      28.999  43.314  52.878  1.00  0.00     0.008 A 
HETATM   14  C   UNL     1      29.203  43.730  54.199  1.00  0.00    -0.059 A 
HETATM   15  C   UNL     1      28.383  44.733  54.726  1.00  0.00     0.008 A 
HETATM   16  C   UNL     1      27.368  45.299  53.948  1.00  0.00     0.014 A 
BRANCH  14  17
HETATM   17  C   UNL     1      30.302  43.125  55.034  1.00  0.00     0.034 C 
HETATM   18  C   UNL     1      30.932  44.147  55.968  1.00  0.00     0.010 C 
ENDBRANCH  14  17
ENDBRANCH   9  11
ENDBRANCH   1   5
BRANCH   2  19
HETATM   19  N   UNL     1      22.042  48.594  48.940  1.00  0.00    -0.165 NA
HETATM   20  C   UNL     1      21.066  48.119  48.234  1.00  0.00     0.157 A 
HETATM   21  C   UNL     1      20.629  46.660  48.072  1.00  0.00     0.277 A 
HETATM   22  C   UNL     1      20.154  48.902  47.411  1.00  0.00     0.027 A 
HETATM   23  O   UNL     1      21.161  45.717  48.620  1.00  0.00    -0.266 OA
HETATM   24  N   UNL     1      19.555  46.688  47.210  1.00  0.00    -0.321 N 
HETATM   25  C   UNL     1      19.273  47.996  46.821  1.00  0.00     0.048 A 
HETATM   26  H   UNL     1      19.055  45.863  46.914  1.00  0.00     0.169 HD
HETATM   27  C   UNL     1      18.273  48.422  45.973  1.00  0.00     0.030 A 
HETATM   28  C   UNL     1      18.179  49.798  45.730  1.00  0.00     0.002 A 
HETATM   29  C   UNL     1      19.074  50.709  46.332  1.00  0.00     0.001 A 
HETATM   30  C   UNL     1      20.083  50.262  47.189  1.00  0.00     0.016 A 
ENDBRANCH   2  19
TORSDOF 4
ENDMDL
MODEL 6
REMARK VINA RESULT:      -9.2      2.320      9.936
REMARK  4 active torsions:
REMARK  status: ('A' for Active; 'I' for Inactive)
REMARK    1  A    between atoms: C_2  and  C_3 
REMARK    2  A    between atoms: C_6  and  C_7 
REMARK    3  A    between atoms: C_11  and  C_12 
REMARK       I    between atoms: C_12  and  N_13 
REMARK    4  A    between atoms: N_13  and  N_14 
ROOT
HETATM    1  C   UNL     1      22.988  45.875  48.873  1.00  0.00     0.289 C 
HETATM    2  N   UNL     1      22.605  47.170  49.178  1.00  0.00    -0.241 N 
HETATM    3  O   UNL     1      22.379  45.139  48.101  1.00  0.00    -0.264 OA
HETATM    4  H   UNL     1      23.136  47.726  49.847  1.00  0.00     0.192 HD
ENDROOT
BRANCH   1   5
HETATM    5  C   UNL     1      24.180  45.420  49.545  1.00  0.00     0.121 A 
HETATM    6  N   UNL     1      25.114  44.670  48.889  1.00  0.00    -0.272 N 
HETATM    7  N   UNL     1      26.160  44.308  49.643  1.00  0.00    -0.174 NA
HETATM    8  H   UNL     1      25.077  44.371  47.919  1.00  0.00     0.189 HD
HETATM    9  C   UNL     1      25.923  44.862  50.843  1.00  0.00     0.089 A 
HETATM   10  C   UNL     1      24.684  45.565  50.823  1.00  0.00     0.071 A 
BRANCH   9  11
HETATM   11  C   UNL     1      26.865  44.704  51.958  1.00  0.00    -0.006 A 
HETATM   12  C   UNL     1      27.947  43.817  51.879  1.00  0.00     0.014 A 
HETATM   13  C   UNL     1      28.834  43.673  52.953  1.00  0.00     0.008 A 
HETATM   14  C   UNL     1      28.654  44.411  54.129  1.00  0.00    -0.059 A 
HETATM   15  C   UNL     1      27.580  45.303  54.210  1.00  0.00     0.008 A 
HETATM   16  C   UNL     1      26.693  45.443  53.137  1.00  0.00     0.014 A 
BRANCH  14  17
HETATM   17  C   UNL     1      29.614  44.265  55.281  1.00  0.00     0.034 C 
HETATM   18  C   UNL     1      30.706  43.249  54.983  1.00  0.00     0.010 C 
ENDBRANCH  14  17
ENDBRANCH   9  11
ENDBRANCH   1   5
BRANCH   2  19
HETATM   19  N   UNL     1      21.485  47.712  48.609  1.00  0.00    -0.165 NA
HETATM   20  C   UNL     1      21.331  48.991  48.733  1.00  0.00     0.157 A 
HETATM   21  C   UNL     1      22.244  49.996  49.444  1.00  0.00     0.277 A 
HETATM   22  C   UNL     1      20.216  49.767  48.209  1.00  0.00     0.027 A 
HETATM   23  O   UNL     1      23.282  49.710  50.001  1.00  0.00    -0.266 OA
HETATM   24  N   UNL     1      21.629  51.221  49.300  1.00  0.00    -0.321 N 
HETATM   25  C   UNL     1      20.444  51.092  48.578  1.00  0.00     0.048 A 
HETATM   26  H   UNL     1      22.003  52.080  49.673  1.00  0.00     0.169 HD
HETATM   27  C   UNL     1      19.561  52.093  48.232  1.00  0.00     0.030 A 
HETATM   28  C   UNL     1      18.428  51.723  47.495  1.00  0.00     0.002 A 
HETATM   29  C   UNL     1      18.205  50.380  47.123  1.00  0.00     0.001 A 
HETATM   30  C   UNL     1      19.109  49.377  47.483  1.00  0.00     0.016 A 
ENDBRANCH   2  19
TORSDOF 4
ENDMDL
MODEL 7
REMARK VINA RESULT:      -9.1      2.199      3.091
REMARK  4 active torsions:
REMARK  status: ('A' for Active; 'I' for Inactive)
REMARK    1  A    between atoms: C_2  and  C_3 
REMARK    2  A    between atoms: C_6  and  C_7 
REMARK    3  A    between atoms: C_11  and  C_12 
REMARK       I    between atoms: C_12  and  N_13 
REMARK    4  A    between atoms: N_13  and  N_14 
ROOT
HETATM    1  C   UNL     1      25.437  46.696  50.013  1.00  0.00     0.289 C 
HETATM    2  N   UNL     1      25.422  46.034  51.229  1.00  0.00    -0.241 N 
HETATM    3  O   UNL     1      26.433  46.812  49.303  1.00  0.00    -0.264 OA
HETATM    4  H   UNL     1      24.571  45.991  51.788  1.00  0.00     0.192 HD
ENDROOT
BRANCH   1   5
HETATM    5  C   UNL     1      24.174  47.269  49.619  1.00  0.00     0.121 A 
HETATM    6  N   UNL     1      23.169  46.484  49.129  1.00  0.00    -0.272 N 
HETATM    7  N   UNL     1      22.060  47.156  48.790  1.00  0.00    -0.174 NA
HETATM    8  H   UNL     1      23.196  45.477  49.001  1.00  0.00     0.189 HD
HETATM    9  C   UNL     1      22.332  48.436  49.090  1.00  0.00     0.089 A 
HETATM   10  C   UNL     1      23.655  48.549  49.608  1.00  0.00     0.071 A 
BRANCH   9  11
HETATM   11  C   UNL     1      21.343  49.499  48.874  1.00  0.00    -0.006 A 
HETATM   12  C   UNL     1      20.582  49.558  47.698  1.00  0.00     0.014 A 
HETATM   13  C   UNL     1      19.646  50.582  47.503  1.00  0.00     0.008 A 
HETATM   14  C   UNL     1      19.456  51.568  48.478  1.00  0.00    -0.059 A 
HETATM   15  C   UNL     1      20.208  51.509  49.656  1.00  0.00     0.008 A 
HETATM   16  C   UNL     1      21.144  50.488  49.848  1.00  0.00     0.014 A 
BRANCH  14  17
HETATM   17  C   UNL     1      18.442  52.664  48.275  1.00  0.00     0.034 C 
HETATM   18  C   UNL     1      17.429  52.716  49.408  1.00  0.00     0.010 C 
ENDBRANCH  14  17
ENDBRANCH   9  11
ENDBRANCH   1   5
BRANCH   2  19
HETATM   19  N   UNL     1      26.562  45.455  51.715  1.00  0.00    -0.165 NA
HETATM   20  C   UNL     1      26.588  44.161  51.749  1.00  0.00     0.157 A 
HETATM   21  C   UNL     1      25.498  43.175  51.317  1.00  0.00     0.277 A 
HETATM   22  C   UNL     1      27.695  43.345  52.229  1.00  0.00     0.027 A 
HETATM   23  O   UNL     1      24.422  43.495  50.856  1.00  0.00    -0.266 OA
HETATM   24  N   UNL     1      26.012  41.922  51.567  1.00  0.00    -0.321 N 
HETATM   25  C   UNL     1      27.297  42.016  52.098  1.00  0.00     0.048 A 
HETATM   26  H   UNL     1      25.511  41.065  51.380  1.00  0.00     0.169 HD
HETATM   27  C   UNL     1      28.129  40.981  52.470  1.00  0.00     0.030 A 
HETATM   28  C   UNL     1      29.388  41.321  52.982  1.00  0.00     0.002 A 
HETATM   29  C   UNL     1      29.784  42.669  53.109  1.00  0.00     0.001 A 
HETATM   30  C   UNL     1      28.930  43.707  52.730  1.00  0.00     0.016 A 
ENDBRANCH   2  19
TORSDOF 4
ENDMDL
MODEL 8
REMARK VINA RESULT:      -8.8      6.666      7.347
REMARK  4 active torsions:
REMARK  status: ('A' for Active; 'I' for Inactive)
REMARK    1  A    between atoms: C_2  and  C_3 
REMARK    2  A    between atoms: C_6  and  C_7 
REMARK    3  A    between atoms: C_11  and  C_12 
REMARK       I    between atoms: C_12  and  N_13 
REMARK    4  A    between atoms: N_13  and  N_14 
ROOT
HETATM    1  C   UNL     1      28.499  41.176  52.687  1.00  0.00     0.289 C 
HETATM    2  N   UNL     1      29.399  42.227  52.745  1.00  0.00    -0.241 N 
HETATM    3  O   UNL     1      28.244  40.434  53.633  1.00  0.00    -0.264 OA
HETATM    4  H   UNL     1      29.590  42.794  51.919  1.00  0.00     0.192 HD
ENDROOT
BRANCH   1   5
HETATM    5  C   UNL     1      27.862  40.990  51.407  1.00  0.00     0.121 A 
HETATM    6  N   UNL     1      26.576  40.540  51.321  1.00  0.00    -0.272 N 
HETATM    7  N   UNL     1      26.123  40.402  50.068  1.00  0.00    -0.174 NA
HETATM    8  H   UNL     1      25.965  40.303  52.097  1.00  0.00     0.189 HD
HETATM    9  C   UNL     1      27.142  40.801  49.290  1.00  0.00     0.089 A 
HETATM   10  C   UNL     1      28.257  41.174  50.096  1.00  0.00     0.071 A 
BRANCH   9  11
HETATM   11  C   UNL     1      27.030  40.812  47.827  1.00  0.00    -0.006 A 
HETATM   12  C   UNL     1      25.785  40.718  47.191  1.00  0.00     0.014 A 
HETATM   13  C   UNL     1      25.694  40.724  45.793  1.00  0.00     0.008 A 
HETATM   14  C   UNL     1      26.847  40.819  45.005  1.00  0.00    -0.059 A 
HETATM   15  C   UNL     1      28.091  40.920  45.636  1.00  0.00     0.008 A 
HETATM   16  C   UNL     1      28.180  40.911  47.031  1.00  0.00     0.014 A 
BRANCH  14  17
HETATM   17  C   UNL     1      26.749  40.837  43.501  1.00  0.00     0.034 C 
HETATM   18  C   UNL     1      26.379  42.214  42.974  1.00  0.00     0.010 C 
ENDBRANCH  14  17
ENDBRANCH   9  11
ENDBRANCH   1   5
BRANCH   2  19
HETATM   19  N   UNL     1      30.072  42.499  53.904  1.00  0.00    -0.165 NA
HETATM   20  C   UNL     1      29.706  43.555  54.555  1.00  0.00     0.157 A 
HETATM   21  C   UNL     1      28.606  44.561  54.198  1.00  0.00     0.277 A 
HETATM   22  C   UNL     1      30.287  44.028  55.804  1.00  0.00     0.027 A 
HETATM   23  O   UNL     1      27.897  44.487  53.216  1.00  0.00    -0.266 OA
HETATM   24  N   UNL     1      28.625  45.502  55.203  1.00  0.00    -0.321 N 
HETATM   25  C   UNL     1      29.605  45.195  56.145  1.00  0.00     0.048 A 
HETATM   26  H   UNL     1      28.004  46.297  55.235  1.00  0.00     0.169 HD
HETATM   27  C   UNL     1      29.919  45.898  57.289  1.00  0.00     0.030 A 
HETATM   28  C   UNL     1      30.949  45.391  58.092  1.00  0.00     0.002 A 
HETATM   29  C   UNL     1      31.634  44.208  57.741  1.00  0.00     0.001 A 
HETATM   30  C   UNL     1      31.305  43.508  56.578  1.00  0.00     0.016 A 
ENDBRANCH   2  19
TORSDOF 4
ENDMDL
MODEL 9
REMARK VINA RESULT:      -8.8      2.963     10.439
REMARK  4 active torsions:
REMARK  status: ('A' for Active; 'I' for Inactive)
REMARK    1  A    between atoms: C_2  and  C_3 
REMARK    2  A    between atoms: C_6  and  C_7 
REMARK    3  A    between atoms: C_11  and  C_12 
REMARK       I    between atoms: C_12  and  N_13 
REMARK    4  A    between atoms: N_13  and  N_14 
ROOT
HETATM    1  C   UNL     1      22.365  47.853  48.594  1.00  0.00     0.289 C 
HETATM    2  N   UNL     1      21.277  48.219  49.369  1.00  0.00    -0.241 N 
HETATM    3  O   UNL     1      22.354  47.816  47.366  1.00  0.00    -0.264 OA
HETATM    4  H   UNL     1      21.336  48.207  50.387  1.00  0.00     0.192 HD
ENDROOT
BRANCH   1   5
HETATM    5  C   UNL     1      23.548  47.499  49.337  1.00  0.00     0.121 A 
HETATM    6  N   UNL     1      24.555  48.402  49.529  1.00  0.00    -0.272 N 
HETATM    7  N   UNL     1      25.597  47.927  50.224  1.00  0.00    -0.174 NA
HETATM    8  H   UNL     1      24.579  49.360  49.194  1.00  0.00     0.189 HD
HETATM    9  C   UNL     1      25.257  46.664  50.528  1.00  0.00     0.089 A 
HETATM   10  C   UNL     1      23.977  46.355  49.982  1.00  0.00     0.071 A 
BRANCH   9  11
HETATM   11  C   UNL     1      26.147  45.800  51.312  1.00  0.00    -0.006 A 
HETATM   12  C   UNL     1      26.864  44.756  50.711  1.00  0.00     0.014 A 
HETATM   13  C   UNL     1      27.706  43.935  51.474  1.00  0.00     0.008 A 
HETATM   14  C   UNL     1      27.843  44.141  52.851  1.00  0.00    -0.059 A 
HETATM   15  C   UNL     1      27.135  45.186  53.453  1.00  0.00     0.008 A 
HETATM   16  C   UNL     1      26.294  46.002  52.691  1.00  0.00     0.014 A 
BRANCH  14  17
HETATM   17  C   UNL     1      28.757  43.265  53.670  1.00  0.00     0.034 C 
HETATM   18  C   UNL     1      30.080  43.012  52.965  1.00  0.00     0.010 C 
ENDBRANCH  14  17
ENDBRANCH   9  11
ENDBRANCH   1   5
BRANCH   2  19
HETATM   19  N   UNL     1      20.094  48.570  48.780  1.00  0.00    -0.165 NA
HETATM   20  C   UNL     1      19.634  49.749  49.055  1.00  0.00     0.157 A 
HETATM   21  C   UNL     1      20.241  50.818  49.969  1.00  0.00     0.277 A 
HETATM   22  C   UNL     1      18.397  50.320  48.541  1.00  0.00     0.027 A 
HETATM   23  O   UNL     1      21.286  50.697  50.573  1.00  0.00    -0.266 OA
HETATM   24  N   UNL     1      19.362  51.878  49.932  1.00  0.00    -0.321 N 
HETATM   25  C   UNL     1      18.283  51.592  49.098  1.00  0.00     0.048 A 
HETATM   26  H   UNL     1      19.500  52.736  50.446  1.00  0.00     0.169 HD
HETATM   27  C   UNL     1      17.208  52.406  48.809  1.00  0.00     0.030 A 
HETATM   28  C   UNL     1      16.238  51.901  47.933  1.00  0.00     0.002 A 
HETATM   29  C   UNL     1      16.361  50.612  47.372  1.00  0.00     0.001 A 
HETATM   30  C   UNL     1      17.456  49.799  47.675  1.00  0.00     0.016 A 
ENDBRANCH   2  19
TORSDOF 4
ENDMDL
MODEL 10
REMARK VINA RESULT:      -8.5      2.869     10.480
REMARK  4 active torsions:
REMARK  status: ('A' for Active; 'I' for Inactive)
REMARK    1  A    between atoms: C_2  and  C_3 
REMARK    2  A    between atoms: C_6  and  C_7 
REMARK    3  A    between atoms: C_11  and  C_12 
REMARK       I    between atoms: C_12  and  N_13 
REMARK    4  A    between atoms: N_13  and  N_14 
ROOT
HETATM    1  C   UNL     1      23.416  48.702  49.589  1.00  0.00     0.289 C 
HETATM    2  N   UNL     1      22.031  48.675  49.604  1.00  0.00    -0.241 N 
HETATM    3  O   UNL     1      24.082  49.691  49.294  1.00  0.00    -0.264 OA
HETATM    4  H   UNL     1      21.530  47.817  49.832  1.00  0.00     0.192 HD
ENDROOT
BRANCH   1   5
HETATM    5  C   UNL     1      24.051  47.458  49.942  1.00  0.00     0.121 A 
HETATM    6  N   UNL     1      23.493  46.260  49.595  1.00  0.00    -0.272 N 
HETATM    7  N   UNL     1      24.187  45.190  50.004  1.00  0.00    -0.174 NA
HETATM    8  H   UNL     1      22.628  46.123  49.081  1.00  0.00     0.189 HD
HETATM    9  C   UNL     1      25.263  45.697  50.627  1.00  0.00     0.089 A 
HETATM   10  C   UNL     1      25.211  47.122  50.614  1.00  0.00     0.071 A 
BRANCH   9  11
HETATM   11  C   UNL     1      26.291  44.827  51.211  1.00  0.00    -0.006 A 
HETATM   12  C   UNL     1      26.799  45.060  52.496  1.00  0.00     0.014 A 
HETATM   13  C   UNL     1      27.784  44.225  53.037  1.00  0.00     0.008 A 
HETATM   14  C   UNL     1      28.283  43.143  52.303  1.00  0.00    -0.059 A 
HETATM   15  C   UNL     1      27.774  42.902  51.023  1.00  0.00     0.008 A 
HETATM   16  C   UNL     1      26.792  43.739  50.482  1.00  0.00     0.014 A 
BRANCH  14  17
HETATM   17  C   UNL     1      29.335  42.237  52.889  1.00  0.00     0.034 C 
HETATM   18  C   UNL     1      28.750  40.907  53.338  1.00  0.00     0.010 C 
ENDBRANCH  14  17
ENDBRANCH   9  11
ENDBRANCH   1   5
BRANCH   2  19
HETATM   19  N   UNL     1      21.313  49.793  49.279  1.00  0.00    -0.165 NA
HETATM   20  C   UNL     1      20.044  49.632  49.079  1.00  0.00     0.157 A 
HETATM   21  C   UNL     1      19.225  48.339  49.153  1.00  0.00     0.277 A 
HETATM   22  C   UNL     1      19.100  50.682  48.722  1.00  0.00     0.027 A 
HETATM   23  O   UNL     1      19.680  47.250  49.431  1.00  0.00    -0.266 OA
HETATM   24  N   UNL     1      17.932  48.703  48.845  1.00  0.00    -0.321 N 
HETATM   25  C   UNL     1      17.854  50.071  48.593  1.00  0.00     0.048 A 
HETATM   26  H   UNL     1      17.162  48.051  48.813  1.00  0.00     0.169 HD
HETATM   27  C   UNL     1      16.732  50.799  48.259  1.00  0.00     0.030 A 
HETATM   28  C   UNL     1      16.897  52.175  48.054  1.00  0.00     0.002 A 
HETATM   29  C   UNL     1      18.162  52.787  48.188  1.00  0.00     0.001 A 
HETATM   30  C   UNL     1      19.289  52.035  48.527  1.00  0.00     0.016 A 
ENDBRANCH   2  19
TORSDOF 4
ENDMDL
