MODEL 1
REMARK VINA RESULT:     -10.0      0.000      0.000
REMARK  5 active torsions:
REMARK  status: ('A' for Active; 'I' for Inactive)
REMARK    1  A    between atoms: C_7  and  C_8 
REMARK    2  A    between atoms: C_16  and  C_17 
REMARK    3  A    between atoms: C_19  and  O_20 
REMARK    4  A    between atoms: C_24  and  C_25 
REMARK       I    between atoms: C_25  and  N_26 
REMARK    5  A    between atoms: N_26  and  C_27 
ROOT
HETATM    1  C   UNL     1      26.273  40.705  49.261  1.00  0.00     0.070 C 
HETATM    2  C   UNL     1      26.398  41.883  50.201  1.00  0.00     0.037 A 
HETATM    3  N   UNL     1      27.530  41.872  51.010  1.00  0.00    -0.192 N 
HETATM    4  C   UNL     1      27.753  42.766  51.987  1.00  0.00     0.726 A 
HETATM    5  N   UNL     1      26.884  43.801  52.150  1.00  0.00    -0.083 N 
HETATM    6  N   UNL     1      27.170  44.519  53.253  1.00  0.00    -0.135 NA
HETATM    7  C   UNL     1      28.307  43.927  53.665  1.00  0.00     0.199 A 
HETATM    8  N   UNL     1      28.681  42.831  52.905  1.00  0.00    -0.041 NA
HETATM    9  C   UNL     1      25.695  44.015  51.317  1.00  0.00     0.202 A 
HETATM   10  C   UNL     1      25.482  42.886  50.308  1.00  0.00     0.062 A 
HETATM   11  H   UNL     1      28.163  41.082  50.922  1.00  0.00     0.184 HD
ENDROOT
BRANCH  10  12
HETATM   12  C   UNL     1      24.281  42.932  49.401  1.00  0.00     0.256 C 
HETATM   13  N   UNL     1      24.469  43.577  48.194  1.00  0.00    -0.323 N 
HETATM   14  H   UNL     1      25.395  43.867  47.927  1.00  0.00     0.169 HD
HETATM   15  O   UNL     1      23.243  42.373  49.742  1.00  0.00    -0.267 OA
BRANCH  13  16
HETATM   16  C   UNL     1      23.487  43.837  47.210  1.00  0.00     0.035 A 
HETATM   17  C   UNL     1      23.198  42.981  46.146  1.00  0.00     0.029 A 
HETATM   18  C   UNL     1      22.188  43.301  45.231  1.00  0.00     0.002 A 
HETATM   19  C   UNL     1      21.463  44.482  45.370  1.00  0.00     0.000 A 
HETATM   20  C   UNL     1      21.744  45.343  46.425  1.00  0.00     0.002 A 
HETATM   21  C   UNL     1      22.746  45.020  47.344  1.00  0.00     0.029 A 
ENDBRANCH  13  16
ENDBRANCH  10  12
BRANCH   9  22
HETATM   22  C   UNL     1      25.757  45.408  50.695  1.00  0.00    -0.025 A 
HETATM   23  C   UNL     1      26.863  45.835  49.939  1.00  0.00     0.046 A 
HETATM   24  C   UNL     1      26.883  47.122  49.404  1.00  0.00     0.066 A 
HETATM   25  C   UNL     1      25.831  48.003  49.618  1.00  0.00     0.036 A 
HETATM   26  C   UNL     1      24.738  47.600  50.381  1.00  0.00     0.003 A 
HETATM   27  C   UNL     1      24.701  46.312  50.919  1.00  0.00     0.010 A 
BRANCH  24  28
HETATM   28  O   UNL     1      27.935  47.563  48.658  1.00  0.00    -0.361 OA
HETATM   29  H   UNL     1      28.734  47.568  49.211  1.00  0.00     0.217 HD
ENDBRANCH  24  28
ENDBRANCH   9  22
BRANCH   7  30
HETATM   30  C   UNL     1      29.078  44.371  54.822  1.00  0.00     0.016 A 
HETATM   31  C   UNL     1      30.132  43.594  55.323  1.00  0.00     0.039 A 
HETATM   32  C   UNL     1      30.859  44.029  56.430  1.00  0.00     0.035 A 
HETATM   33 CL   UNL     1      32.151  43.067  57.036  1.00  0.00    -0.084 Cl
HETATM   34  C   UNL     1      30.548  45.236  57.055  1.00  0.00     0.024 A 
HETATM   35  C   UNL     1      29.502  46.016  56.566  1.00  0.00     0.003 A 
HETATM   36  C   UNL     1      28.770  45.585  55.456  1.00  0.00     0.015 A 
ENDBRANCH   7  30
TORSDOF 5
ENDMDL
MODEL 2
REMARK VINA RESULT:      -9.7      1.271      1.742
REMARK  5 active torsions:
REMARK  status: ('A' for Active; 'I' for Inactive)
REMARK    1  A    between atoms: C_7  and  C_8 
REMARK    2  A    between atoms: C_16  and  C_17 
REMARK    3  A    between atoms: C_19  and  O_20 
REMARK    4  A    between atoms: C_24  and  C_25 
REMARK       I    between atoms: C_25  and  N_26 
REMARK    5  A    between atoms: N_26  and  C_27 
ROOT
HETATM    1  C   UNL     1      25.888  40.917  48.560  1.00  0.00     0.070 C 
HETATM    2  C   UNL     1      26.116  41.983  49.607  1.00  0.00     0.037 A 
HETATM    3  N   UNL     1      27.288  41.840  50.346  1.00  0.00    -0.192 N 
HETATM    4  C   UNL     1      27.603  42.616  51.395  1.00  0.00     0.726 A 
HETATM    5  N   UNL     1      26.793  43.662  51.713  1.00  0.00    -0.083 N 
HETATM    6  N   UNL     1      27.170  44.247  52.867  1.00  0.00    -0.135 NA
HETATM    7  C   UNL     1      28.298  43.570  53.150  1.00  0.00     0.199 A 
HETATM    8  N   UNL     1      28.580  42.546  52.260  1.00  0.00    -0.041 NA
HETATM    9  C   UNL     1      25.573  44.012  50.976  1.00  0.00     0.202 A 
HETATM   10  C   UNL     1      25.255  43.005  49.870  1.00  0.00     0.062 A 
HETATM   11  H   UNL     1      27.878  41.038  50.140  1.00  0.00     0.184 HD
ENDROOT
BRANCH  10  12
HETATM   12  C   UNL     1      24.012  43.196  49.042  1.00  0.00     0.256 C 
HETATM   13  N   UNL     1      24.174  43.922  47.879  1.00  0.00    -0.323 N 
HETATM   14  H   UNL     1      25.102  44.175  47.579  1.00  0.00     0.169 HD
HETATM   15  O   UNL     1      22.960  42.676  49.401  1.00  0.00    -0.267 OA
BRANCH  13  16
HETATM   16  C   UNL     1      23.159  44.318  46.977  1.00  0.00     0.035 A 
HETATM   17  C   UNL     1      22.826  43.619  45.815  1.00  0.00     0.029 A 
HETATM   18  C   UNL     1      21.786  44.066  44.993  1.00  0.00     0.002 A 
HETATM   19  C   UNL     1      21.074  45.216  45.321  1.00  0.00     0.000 A 
HETATM   20  C   UNL     1      21.398  45.921  46.476  1.00  0.00     0.002 A 
HETATM   21  C   UNL     1      22.431  45.471  47.303  1.00  0.00     0.029 A 
ENDBRANCH  13  16
ENDBRANCH  10  12
BRANCH   9  22
HETATM   22  C   UNL     1      25.667  45.459  50.499  1.00  0.00    -0.025 A 
HETATM   23  C   UNL     1      24.584  46.350  50.613  1.00  0.00     0.046 A 
HETATM   24  C   UNL     1      24.709  47.657  50.148  1.00  0.00     0.066 A 
HETATM   25  C   UNL     1      25.885  48.098  49.556  1.00  0.00     0.036 A 
HETATM   26  C   UNL     1      26.959  47.221  49.420  1.00  0.00     0.003 A 
HETATM   27  C   UNL     1      26.851  45.910  49.886  1.00  0.00     0.010 A 
BRANCH  24  28
HETATM   28  O   UNL     1      23.682  48.548  50.252  1.00  0.00    -0.361 OA
HETATM   29  H   UNL     1      22.883  48.154  49.866  1.00  0.00     0.217 HD
ENDBRANCH  24  28
ENDBRANCH   9  22
BRANCH   7  30
HETATM   30  C   UNL     1      29.148  43.857  54.300  1.00  0.00     0.016 A 
HETATM   31  C   UNL     1      28.790  44.846  55.228  1.00  0.00     0.039 A 
HETATM   32  C   UNL     1      29.612  45.111  56.322  1.00  0.00     0.035 A 
HETATM   33 CL   UNL     1      29.162  46.327  57.454  1.00  0.00    -0.084 Cl
HETATM   34  C   UNL     1      30.798  44.402  56.508  1.00  0.00     0.024 A 
HETATM   35  C   UNL     1      31.164  43.417  55.593  1.00  0.00     0.003 A 
HETATM   36  C   UNL     1      30.343  43.147  54.494  1.00  0.00     0.015 A 
ENDBRANCH   7  30
TORSDOF 5
ENDMDL
MODEL 3
REMARK VINA RESULT:      -9.4      5.190      9.768
REMARK  5 active torsions:
REMARK  status: ('A' for Active; 'I' for Inactive)
REMARK    1  A    between atoms: C_7  and  C_8 
REMARK    2  A    between atoms: C_16  and  C_17 
REMARK    3  A    between atoms: C_19  and  O_20 
REMARK    4  A    between atoms: C_24  and  C_25 
REMARK       I    between atoms: C_25  and  N_26 
REMARK    5  A    between atoms: N_26  and  C_27 
ROOT
HETATM    1  C   UNL     1      27.539  48.940  49.107  1.00  0.00     0.070 C 
HETATM    2  C   UNL     1      26.045  48.711  49.146  1.00  0.00     0.037 A 
HETATM    3  N   UNL     1      25.292  49.618  48.405  1.00  0.00    -0.192 N 
HETATM    4  C   UNL     1      23.950  49.649  48.412  1.00  0.00     0.726 A 
HETATM    5  N   UNL     1      23.269  48.695  49.102  1.00  0.00    -0.083 N 
HETATM    6  N   UNL     1      21.946  48.951  49.127  1.00  0.00    -0.135 NA
HETATM    7  C   UNL     1      21.873  50.033  48.329  1.00  0.00     0.199 A 
HETATM    8  N   UNL     1      23.102  50.492  47.885  1.00  0.00    -0.041 NA
HETATM    9  C   UNL     1      23.908  47.609  49.854  1.00  0.00     0.202 A 
HETATM   10  C   UNL     1      25.432  47.729  49.864  1.00  0.00     0.062 A 
HETATM   11  H   UNL     1      25.793  50.358  47.919  1.00  0.00     0.184 HD
ENDROOT
BRANCH  10  12
HETATM   12  C   UNL     1      26.242  46.714  50.627  1.00  0.00     0.256 C 
HETATM   13  N   UNL     1      26.088  46.737  51.999  1.00  0.00    -0.323 N 
HETATM   14  H   UNL     1      25.376  47.321  52.407  1.00  0.00     0.169 HD
HETATM   15  O   UNL     1      26.939  45.912  50.014  1.00  0.00    -0.267 OA
BRANCH  13  16
HETATM   16  C   UNL     1      26.796  45.959  52.945  1.00  0.00     0.035 A 
HETATM   17  C   UNL     1      27.050  44.593  52.803  1.00  0.00     0.029 A 
HETATM   18  C   UNL     1      27.785  43.904  53.774  1.00  0.00     0.002 A 
HETATM   19  C   UNL     1      28.267  44.572  54.897  1.00  0.00     0.000 A 
HETATM   20  C   UNL     1      28.018  45.932  55.049  1.00  0.00     0.002 A 
HETATM   21  C   UNL     1      27.292  46.624  54.075  1.00  0.00     0.029 A 
ENDBRANCH  13  16
ENDBRANCH  10  12
BRANCH   9  22
HETATM   22  C   UNL     1      23.388  46.267  49.347  1.00  0.00    -0.025 A 
HETATM   23  C   UNL     1      23.368  45.122  50.164  1.00  0.00     0.046 A 
HETATM   24  C   UNL     1      22.900  43.912  49.654  1.00  0.00     0.066 A 
HETATM   25  C   UNL     1      22.464  43.811  48.339  1.00  0.00     0.036 A 
HETATM   26  C   UNL     1      22.496  44.932  47.513  1.00  0.00     0.003 A 
HETATM   27  C   UNL     1      22.957  46.152  48.012  1.00  0.00     0.010 A 
BRANCH  24  28
HETATM   28  O   UNL     1      22.858  42.787  50.422  1.00  0.00    -0.361 OA
HETATM   29  H   UNL     1      23.667  42.272  50.271  1.00  0.00     0.217 HD
ENDBRANCH  24  28
ENDBRANCH   9  22
BRANCH   7  30
HETATM   30  C   UNL     1      20.621  50.693  47.973  1.00  0.00     0.016 A 
HETATM   31  C   UNL     1      19.831  50.213  46.918  1.00  0.00     0.039 A 
HETATM   32  C   UNL     1      18.638  50.854  46.587  1.00  0.00     0.035 A 
HETATM   33 CL   UNL     1      17.678  50.256  45.291  1.00  0.00    -0.084 Cl
HETATM   34  C   UNL     1      18.216  51.978  47.296  1.00  0.00     0.024 A 
HETATM   35  C   UNL     1      18.993  52.464  48.346  1.00  0.00     0.003 A 
HETATM   36  C   UNL     1      20.189  51.825  48.682  1.00  0.00     0.015 A 
ENDBRANCH   7  30
TORSDOF 5
ENDMDL
MODEL 4
REMARK VINA RESULT:      -8.9      3.703      9.289
REMARK  5 active torsions:
REMARK  status: ('A' for Active; 'I' for Inactive)
REMARK    1  A    between atoms: C_7  and  C_8 
REMARK    2  A    between atoms: C_16  and  C_17 
REMARK    3  A    between atoms: C_19  and  O_20 
REMARK    4  A    between atoms: C_24  and  C_25 
REMARK       I    between atoms: C_25  and  N_26 
REMARK    5  A    between atoms: N_26  and  C_27 
ROOT
HETATM    1  C   UNL     1      25.591  47.244  51.947  1.00  0.00     0.070 C 
HETATM    2  C   UNL     1      24.947  46.073  51.238  1.00  0.00     0.037 A 
HETATM    3  N   UNL     1      24.140  46.413  50.156  1.00  0.00    -0.192 N 
HETATM    4  C   UNL     1      23.393  45.526  49.479  1.00  0.00     0.726 A 
HETATM    5  N   UNL     1      23.485  44.206  49.793  1.00  0.00    -0.083 N 
HETATM    6  N   UNL     1      22.574  43.473  49.125  1.00  0.00    -0.135 NA
HETATM    7  C   UNL     1      22.020  44.405  48.326  1.00  0.00     0.199 A 
HETATM    8  N   UNL     1      22.502  45.687  48.537  1.00  0.00    -0.041 NA
HETATM    9  C   UNL     1      24.362  43.668  50.839  1.00  0.00     0.202 A 
HETATM   10  C   UNL     1      25.086  44.771  51.613  1.00  0.00     0.062 A 
HETATM   11  H   UNL     1      24.034  47.401  49.941  1.00  0.00     0.184 HD
ENDROOT
BRANCH  10  12
HETATM   12  C   UNL     1      25.997  44.391  52.750  1.00  0.00     0.256 C 
HETATM   13  N   UNL     1      27.348  44.556  52.514  1.00  0.00    -0.323 N 
HETATM   14  H   UNL     1      27.650  45.023  51.674  1.00  0.00     0.169 HD
HETATM   15  O   UNL     1      25.513  44.011  53.812  1.00  0.00    -0.267 OA
BRANCH  13  16
HETATM   16  C   UNL     1      28.410  44.192  53.374  1.00  0.00     0.035 A 
HETATM   17  C   UNL     1      28.656  44.789  54.612  1.00  0.00     0.029 A 
HETATM   18  C   UNL     1      29.713  44.347  55.415  1.00  0.00     0.002 A 
HETATM   19  C   UNL     1      30.535  43.309  54.987  1.00  0.00     0.000 A 
HETATM   20  C   UNL     1      30.300  42.707  53.755  1.00  0.00     0.002 A 
HETATM   21  C   UNL     1      29.239  43.142  52.956  1.00  0.00     0.029 A 
ENDBRANCH  13  16
ENDBRANCH  10  12
BRANCH   9  22
HETATM   22  C   UNL     1      25.288  42.616  50.234  1.00  0.00    -0.025 A 
HETATM   23  C   UNL     1      25.300  41.286  50.692  1.00  0.00     0.046 A 
HETATM   24  C   UNL     1      26.174  40.362  50.122  1.00  0.00     0.066 A 
HETATM   25  C   UNL     1      27.051  40.736  49.112  1.00  0.00     0.036 A 
HETATM   26  C   UNL     1      27.063  42.054  48.662  1.00  0.00     0.003 A 
HETATM   27  C   UNL     1      26.190  42.989  49.219  1.00  0.00     0.010 A 
BRANCH  24  28
HETATM   28  O   UNL     1      26.203  39.064  50.536  1.00  0.00    -0.361 OA
HETATM   29  H   UNL     1      26.242  38.486  49.758  1.00  0.00     0.217 HD
ENDBRANCH  24  28
ENDBRANCH   9  22
BRANCH   7  30
HETATM   30  C   UNL     1      20.986  44.115  47.339  1.00  0.00     0.016 A 
HETATM   31  C   UNL     1      21.204  43.167  46.329  1.00  0.00     0.039 A 
HETATM   32  C   UNL     1      20.207  42.901  45.391  1.00  0.00     0.035 A 
HETATM   33 CL   UNL     1      20.486  41.735  44.156  1.00  0.00    -0.084 Cl
HETATM   34  C   UNL     1      18.986  43.571  45.442  1.00  0.00     0.024 A 
HETATM   35  C   UNL     1      18.759  44.515  46.441  1.00  0.00     0.003 A 
HETATM   36  C   UNL     1      19.754  44.786  47.384  1.00  0.00     0.015 A 
ENDBRANCH   7  30
TORSDOF 5
ENDMDL
MODEL 5
REMARK VINA RESULT:      -8.9      4.213      7.513
REMARK  5 active torsions:
REMARK  status: ('A' for Active; 'I' for Inactive)
REMARK    1  A    between atoms: C_7  and  C_8 
REMARK    2  A    between atoms: C_16  and  C_17 
REMARK    3  A    between atoms: C_19  and  O_20 
REMARK    4  A    between atoms: C_24  and  C_25 
REMARK       I    between atoms: C_25  and  N_26 
REMARK    5  A    between atoms: N_26  and  C_27 
ROOT
HETATM    1  C   UNL     1      23.001  41.216  48.349  1.00  0.00     0.070 C 
HETATM    2  C   UNL     1      23.613  42.526  48.792  1.00  0.00     0.037 A 
HETATM    3  N   UNL     1      22.780  43.635  48.668  1.00  0.00    -0.192 N 
HETATM    4  C   UNL     1      23.183  44.895  48.897  1.00  0.00     0.726 A 
HETATM    5  N   UNL     1      24.442  45.114  49.365  1.00  0.00    -0.083 N 
HETATM    6  N   UNL     1      24.734  46.428  49.404  1.00  0.00    -0.135 NA
HETATM    7  C   UNL     1      23.555  46.971  49.046  1.00  0.00     0.199 A 
HETATM    8  N   UNL     1      22.583  46.041  48.714  1.00  0.00    -0.041 NA
HETATM    9  C   UNL     1      25.412  44.050  49.644  1.00  0.00     0.202 A 
HETATM   10  C   UNL     1      24.887  42.668  49.252  1.00  0.00     0.062 A 
HETATM   11  H   UNL     1      21.852  43.485  48.282  1.00  0.00     0.184 HD
ENDROOT
BRANCH  10  12
HETATM   12  C   UNL     1      25.776  41.467  49.437  1.00  0.00     0.256 C 
HETATM   13  N   UNL     1      26.649  41.204  48.399  1.00  0.00    -0.323 N 
HETATM   14  H   UNL     1      26.741  41.870  47.650  1.00  0.00     0.169 HD
HETATM   15  O   UNL     1      25.720  40.828  50.483  1.00  0.00    -0.267 OA
BRANCH  13  16
HETATM   16  C   UNL     1      27.519  40.095  48.282  1.00  0.00     0.035 A 
HETATM   17  C   UNL     1      28.602  39.855  49.130  1.00  0.00     0.029 A 
HETATM   18  C   UNL     1      29.396  38.716  48.963  1.00  0.00     0.002 A 
HETATM   19  C   UNL     1      29.117  37.809  47.944  1.00  0.00     0.000 A 
HETATM   20  C   UNL     1      28.041  38.038  47.092  1.00  0.00     0.002 A 
HETATM   21  C   UNL     1      27.242  39.172  47.264  1.00  0.00     0.029 A 
ENDBRANCH  13  16
ENDBRANCH  10  12
BRANCH   9  22
HETATM   22  C   UNL     1      25.877  44.155  51.095  1.00  0.00    -0.025 A 
HETATM   23  C   UNL     1      24.965  44.195  52.165  1.00  0.00     0.046 A 
HETATM   24  C   UNL     1      25.433  44.309  53.473  1.00  0.00     0.066 A 
HETATM   25  C   UNL     1      26.793  44.400  53.740  1.00  0.00     0.036 A 
HETATM   26  C   UNL     1      27.706  44.380  52.689  1.00  0.00     0.003 A 
HETATM   27  C   UNL     1      27.252  44.261  51.374  1.00  0.00     0.010 A 
BRANCH  24  28
HETATM   28  O   UNL     1      24.577  44.341  54.532  1.00  0.00    -0.361 OA
HETATM   29  H   UNL     1      24.470  43.440  54.879  1.00  0.00     0.217 HD
ENDBRANCH  24  28
ENDBRANCH   9  22
BRANCH   7  30
HETATM   30  C   UNL     1      23.311  48.408  48.982  1.00  0.00     0.016 A 
HETATM   31  C   UNL     1      22.050  48.937  49.294  1.00  0.00     0.039 A 
HETATM   32  C   UNL     1      21.830  50.312  49.226  1.00  0.00     0.035 A 
HETATM   33 CL   UNL     1      20.279  50.949  49.612  1.00  0.00    -0.084 Cl
HETATM   34  C   UNL     1      22.856  51.178  48.848  1.00  0.00     0.024 A 
HETATM   35  C   UNL     1      24.113  50.663  48.536  1.00  0.00     0.003 A 
HETATM   36  C   UNL     1      24.339  49.286  48.602  1.00  0.00     0.015 A 
ENDBRANCH   7  30
TORSDOF 5
ENDMDL
MODEL 6
REMARK VINA RESULT:      -8.7      7.965     11.829
REMARK  5 active torsions:
REMARK  status: ('A' for Active; 'I' for Inactive)
REMARK    1  A    between atoms: C_7  and  C_8 
REMARK    2  A    between atoms: C_16  and  C_17 
REMARK    3  A    between atoms: C_19  and  O_20 
REMARK    4  A    between atoms: C_24  and  C_25 
REMARK       I    between atoms: C_25  and  N_26 
REMARK    5  A    between atoms: N_26  and  C_27 
ROOT
HETATM    1  C   UNL     1      23.077  50.918  48.022  1.00  0.00     0.070 C 
HETATM    2  C   UNL     1      21.636  50.670  48.408  1.00  0.00     0.037 A 
HETATM    3  N   UNL     1      20.825  51.801  48.408  1.00  0.00    -0.192 N 
HETATM    4  C   UNL     1      19.552  51.803  48.835  1.00  0.00     0.726 A 
HETATM    5  N   UNL     1      18.977  50.626  49.207  1.00  0.00    -0.083 N 
HETATM    6  N   UNL     1      17.755  50.820  49.741  1.00  0.00    -0.135 NA
HETATM    7  C   UNL     1      17.597  52.145  49.563  1.00  0.00     0.199 A 
HETATM    8  N   UNL     1      18.702  52.778  49.017  1.00  0.00    -0.041 NA
HETATM    9  C   UNL     1      19.661  49.329  49.172  1.00  0.00     0.202 A 
HETATM   10  C   UNL     1      21.130  49.458  48.770  1.00  0.00     0.062 A 
HETATM   11  H   UNL     1      21.258  52.690  48.170  1.00  0.00     0.184 HD
ENDROOT
BRANCH  10  12
HETATM   12  C   UNL     1      21.989  48.222  48.724  1.00  0.00     0.256 C 
HETATM   13  N   UNL     1      23.013  48.171  49.650  1.00  0.00    -0.323 N 
HETATM   14  H   UNL     1      23.064  48.873  50.370  1.00  0.00     0.169 HD
HETATM   15  O   UNL     1      21.720  47.328  47.928  1.00  0.00    -0.267 OA
BRANCH  13  16
HETATM   16  C   UNL     1      24.009  47.173  49.758  1.00  0.00     0.035 A 
HETATM   17  C   UNL     1      23.756  45.801  49.690  1.00  0.00     0.029 A 
HETATM   18  C   UNL     1      24.806  44.881  49.776  1.00  0.00     0.002 A 
HETATM   19  C   UNL     1      26.117  45.323  49.937  1.00  0.00     0.000 A 
HETATM   20  C   UNL     1      26.381  46.687  50.007  1.00  0.00     0.002 A 
HETATM   21  C   UNL     1      25.333  47.608  49.912  1.00  0.00     0.029 A 
ENDBRANCH  13  16
ENDBRANCH  10  12
BRANCH   9  22
HETATM   22  C   UNL     1      18.859  48.356  48.312  1.00  0.00    -0.025 A 
HETATM   23  C   UNL     1      18.240  47.217  48.859  1.00  0.00     0.046 A 
HETATM   24  C   UNL     1      17.532  46.347  48.032  1.00  0.00     0.066 A 
HETATM   25  C   UNL     1      17.438  46.575  46.666  1.00  0.00     0.036 A 
HETATM   26  C   UNL     1      18.061  47.689  46.108  1.00  0.00     0.003 A 
HETATM   27  C   UNL     1      18.769  48.573  46.923  1.00  0.00     0.010 A 
BRANCH  24  28
HETATM   28  O   UNL     1      16.913  45.240  48.532  1.00  0.00    -0.361 OA
HETATM   29  H   UNL     1      17.545  44.745  49.079  1.00  0.00     0.217 HD
ENDBRANCH  24  28
ENDBRANCH   9  22
BRANCH   7  30
HETATM   30  C   UNL     1      16.387  52.873  49.932  1.00  0.00     0.016 A 
HETATM   31  C   UNL     1      16.408  54.265  50.093  1.00  0.00     0.039 A 
HETATM   32  C   UNL     1      15.245  54.948  50.448  1.00  0.00     0.035 A 
HETATM   33 CL   UNL     1      15.283  56.657  50.642  1.00  0.00    -0.084 Cl
HETATM   34  C   UNL     1      14.050  54.258  50.647  1.00  0.00     0.024 A 
HETATM   35  C   UNL     1      14.017  52.874  50.490  1.00  0.00     0.003 A 
HETATM   36  C   UNL     1      15.180  52.185  50.135  1.00  0.00     0.015 A 
ENDBRANCH   7  30
TORSDOF 5
ENDMDL
MODEL 7
REMARK VINA RESULT:      -8.6      3.755      8.613
REMARK  5 active torsions:
REMARK  status: ('A' for Active; 'I' for Inactive)
REMARK    1  A    between atoms: C_7  and  C_8 
REMARK    2  A    between atoms: C_16  and  C_17 
REMARK    3  A    between atoms: C_19  and  O_20 
REMARK    4  A    between atoms: C_24  and  C_25 
REMARK       I    between atoms: C_25  and  N_26 
REMARK    5  A    between atoms: N_26  and  C_27 
ROOT
HETATM    1  C   UNL     1      28.370  40.404  53.451  1.00  0.00     0.070 C 
HETATM    2  C   UNL     1      28.047  40.943  52.076  1.00  0.00     0.037 A 
HETATM    3  N   UNL     1      28.066  39.998  51.055  1.00  0.00    -0.192 N 
HETATM    4  C   UNL     1      27.922  40.305  49.755  1.00  0.00     0.726 A 
HETATM    5  N   UNL     1      27.651  41.592  49.405  1.00  0.00    -0.083 N 
HETATM    6  N   UNL     1      27.679  41.758  48.068  1.00  0.00    -0.135 NA
HETATM    7  C   UNL     1      27.868  40.492  47.650  1.00  0.00     0.199 A 
HETATM    8  N   UNL     1      28.034  39.576  48.677  1.00  0.00    -0.041 NA
HETATM    9  C   UNL     1      27.500  42.692  50.364  1.00  0.00     0.202 A 
HETATM   10  C   UNL     1      27.785  42.252  51.801  1.00  0.00     0.062 A 
HETATM   11  H   UNL     1      28.306  39.042  51.303  1.00  0.00     0.184 HD
ENDROOT
BRANCH  10  12
HETATM   12  C   UNL     1      27.713  43.271  52.907  1.00  0.00     0.256 C 
HETATM   13  N   UNL     1      28.925  43.648  53.451  1.00  0.00    -0.323 N 
HETATM   14  H   UNL     1      29.780  43.336  53.019  1.00  0.00     0.169 HD
HETATM   15  O   UNL     1      26.625  43.737  53.231  1.00  0.00    -0.267 OA
BRANCH  13  16
HETATM   16  C   UNL     1      29.128  44.512  54.553  1.00  0.00     0.035 A 
HETATM   17  C   UNL     1      28.346  45.638  54.821  1.00  0.00     0.029 A 
HETATM   18  C   UNL     1      28.598  46.423  55.951  1.00  0.00     0.002 A 
HETATM   19  C   UNL     1      29.635  46.093  56.820  1.00  0.00     0.000 A 
HETATM   20  C   UNL     1      30.421  44.975  56.562  1.00  0.00     0.002 A 
HETATM   21  C   UNL     1      30.165  44.185  55.438  1.00  0.00     0.029 A 
ENDBRANCH  13  16
ENDBRANCH  10  12
BRANCH   9  22
HETATM   22  C   UNL     1      26.137  43.351  50.169  1.00  0.00    -0.025 A 
HETATM   23  C   UNL     1      24.937  42.661  50.415  1.00  0.00     0.046 A 
HETATM   24  C   UNL     1      23.715  43.297  50.207  1.00  0.00     0.066 A 
HETATM   25  C   UNL     1      23.658  44.605  49.743  1.00  0.00     0.036 A 
HETATM   26  C   UNL     1      24.839  45.294  49.478  1.00  0.00     0.003 A 
HETATM   27  C   UNL     1      26.071  44.672  49.687  1.00  0.00     0.010 A 
BRANCH  24  28
HETATM   28  O   UNL     1      22.533  42.660  50.445  1.00  0.00    -0.361 OA
HETATM   29  H   UNL     1      22.242  42.862  51.349  1.00  0.00     0.217 HD
ENDBRANCH  24  28
ENDBRANCH   9  22
BRANCH   7  30
HETATM   30  C   UNL     1      27.920  40.103  46.245  1.00  0.00     0.016 A 
HETATM   31  C   UNL     1      27.846  41.067  45.230  1.00  0.00     0.039 A 
HETATM   32  C   UNL     1      27.895  40.681  43.891  1.00  0.00     0.035 A 
HETATM   33 CL   UNL     1      27.803  41.875  42.654  1.00  0.00    -0.084 Cl
HETATM   34  C   UNL     1      28.018  39.337  43.543  1.00  0.00     0.024 A 
HETATM   35  C   UNL     1      28.092  38.370  44.543  1.00  0.00     0.003 A 
HETATM   36  C   UNL     1      28.043  38.751  45.887  1.00  0.00     0.015 A 
ENDBRANCH   7  30
TORSDOF 5
ENDMDL
MODEL 8
REMARK VINA RESULT:      -8.6     18.073     19.879
REMARK  5 active torsions:
REMARK  status: ('A' for Active; 'I' for Inactive)
REMARK    1  A    between atoms: C_7  and  C_8 
REMARK    2  A    between atoms: C_16  and  C_17 
REMARK    3  A    between atoms: C_19  and  O_20 
REMARK    4  A    between atoms: C_24  and  C_25 
REMARK       I    between atoms: C_25  and  N_26 
REMARK    5  A    between atoms: N_26  and  C_27 
ROOT
HETATM    1  C   UNL     1      35.141  43.452  66.067  1.00  0.00     0.070 C 
HETATM    2  C   UNL     1      36.085  44.623  65.914  1.00  0.00     0.037 A 
HETATM    3  N   UNL     1      35.807  45.714  66.732  1.00  0.00    -0.192 N 
HETATM    4  C   UNL     1      36.459  46.886  66.654  1.00  0.00     0.726 A 
HETATM    5  N   UNL     1      37.512  47.003  65.800  1.00  0.00    -0.083 N 
HETATM    6  N   UNL     1      37.960  48.272  65.738  1.00  0.00    -0.135 NA
HETATM    7  C   UNL     1      37.197  48.867  66.675  1.00  0.00     0.199 A 
HETATM    8  N   UNL     1      36.251  48.032  67.246  1.00  0.00    -0.041 NA
HETATM    9  C   UNL     1      37.998  45.919  64.940  1.00  0.00     0.202 A 
HETATM   10  C   UNL     1      37.123  44.668  65.032  1.00  0.00     0.062 A 
HETATM   11  H   UNL     1      34.998  45.649  67.343  1.00  0.00     0.184 HD
ENDROOT
BRANCH  10  12
HETATM   12  C   UNL     1      37.462  43.473  64.181  1.00  0.00     0.256 C 
HETATM   13  N   UNL     1      38.206  42.489  64.801  1.00  0.00    -0.323 N 
HETATM   14  H   UNL     1      38.377  42.549  65.792  1.00  0.00     0.169 HD
HETATM   15  O   UNL     1      37.036  43.409  63.031  1.00  0.00    -0.267 OA
BRANCH  13  16
HETATM   16  C   UNL     1      38.729  41.318  64.205  1.00  0.00     0.035 A 
HETATM   17  C   UNL     1      38.937  41.163  62.832  1.00  0.00     0.029 A 
HETATM   18  C   UNL     1      39.488  39.980  62.328  1.00  0.00     0.002 A 
HETATM   19  C   UNL     1      39.832  38.942  63.189  1.00  0.00     0.000 A 
HETATM   20  C   UNL     1      39.629  39.085  64.557  1.00  0.00     0.002 A 
HETATM   21  C   UNL     1      39.086  40.269  65.063  1.00  0.00     0.029 A 
ENDBRANCH  13  16
ENDBRANCH  10  12
BRANCH   9  22
HETATM   22  C   UNL     1      39.477  45.671  65.224  1.00  0.00    -0.025 A 
HETATM   23  C   UNL     1      40.461  45.829  64.231  1.00  0.00     0.046 A 
HETATM   24  C   UNL     1      41.798  45.576  64.531  1.00  0.00     0.066 A 
HETATM   25  C   UNL     1      42.180  45.151  65.797  1.00  0.00     0.036 A 
HETATM   26  C   UNL     1      41.214  44.972  66.784  1.00  0.00     0.003 A 
HETATM   27  C   UNL     1      39.872  45.228  66.501  1.00  0.00     0.010 A 
BRANCH  24  28
HETATM   28  O   UNL     1      42.776  45.730  63.594  1.00  0.00    -0.361 OA
HETATM   29  H   UNL     1      42.534  45.227  62.799  1.00  0.00     0.217 HD
ENDBRANCH  24  28
ENDBRANCH   9  22
BRANCH   7  30
HETATM   30  C   UNL     1      37.323  50.271  67.050  1.00  0.00     0.016 A 
HETATM   31  C   UNL     1      36.976  50.704  68.337  1.00  0.00     0.039 A 
HETATM   32  C   UNL     1      37.100  52.050  68.682  1.00  0.00     0.035 A 
HETATM   33 CL   UNL     1      36.671  52.569  70.265  1.00  0.00    -0.084 Cl
HETATM   34  C   UNL     1      37.566  52.980  67.754  1.00  0.00     0.024 A 
HETATM   35  C   UNL     1      37.914  52.561  66.472  1.00  0.00     0.003 A 
HETATM   36  C   UNL     1      37.792  51.214  66.121  1.00  0.00     0.015 A 
ENDBRANCH   7  30
TORSDOF 5
ENDMDL
MODEL 9
REMARK VINA RESULT:      -8.6      6.846     10.037
REMARK  5 active torsions:
REMARK  status: ('A' for Active; 'I' for Inactive)
REMARK    1  A    between atoms: C_7  and  C_8 
REMARK    2  A    between atoms: C_16  and  C_17 
REMARK    3  A    between atoms: C_19  and  O_20 
REMARK    4  A    between atoms: C_24  and  C_25 
REMARK       I    between atoms: C_25  and  N_26 
REMARK    5  A    between atoms: N_26  and  C_27 
ROOT
HETATM    1  C   UNL     1      18.119  52.386  49.877  1.00  0.00     0.070 C 
HETATM    2  C   UNL     1      19.093  51.440  49.213  1.00  0.00     0.037 A 
HETATM    3  N   UNL     1      20.270  51.215  49.922  1.00  0.00    -0.192 N 
HETATM    4  C   UNL     1      21.303  50.503  49.441  1.00  0.00     0.726 A 
HETATM    5  N   UNL     1      21.175  49.883  48.237  1.00  0.00    -0.083 N 
HETATM    6  N   UNL     1      22.340  49.335  47.837  1.00  0.00    -0.135 NA
HETATM    7  C   UNL     1      23.121  49.566  48.909  1.00  0.00     0.199 A 
HETATM    8  N   UNL     1      22.505  50.300  49.910  1.00  0.00    -0.041 NA
HETATM    9  C   UNL     1      19.966  49.935  47.407  1.00  0.00     0.202 A 
HETATM   10  C   UNL     1      18.896  50.854  47.999  1.00  0.00     0.062 A 
HETATM   11  H   UNL     1      20.389  51.707  50.804  1.00  0.00     0.184 HD
ENDROOT
BRANCH  10  12
HETATM   12  C   UNL     1      17.605  51.051  47.250  1.00  0.00     0.256 C 
HETATM   13  N   UNL     1      17.564  52.146  46.409  1.00  0.00    -0.323 N 
HETATM   14  H   UNL     1      18.406  52.672  46.240  1.00  0.00     0.169 HD
HETATM   15  O   UNL     1      16.699  50.235  47.381  1.00  0.00    -0.267 OA
BRANCH  13  16
HETATM   16  C   UNL     1      16.450  52.605  45.668  1.00  0.00     0.035 A 
HETATM   17  C   UNL     1      15.229  52.973  46.236  1.00  0.00     0.029 A 
HETATM   18  C   UNL     1      14.186  53.446  45.431  1.00  0.00     0.002 A 
HETATM   19  C   UNL     1      14.354  53.550  44.053  1.00  0.00     0.000 A 
HETATM   20  C   UNL     1      15.566  53.185  43.476  1.00  0.00     0.002 A 
HETATM   21  C   UNL     1      16.611  52.721  44.280  1.00  0.00     0.029 A 
ENDBRANCH  13  16
ENDBRANCH  10  12
BRANCH   9  22
HETATM   22  C   UNL     1      19.485  48.515  47.122  1.00  0.00    -0.025 A 
HETATM   23  C   UNL     1      19.262  47.585  48.154  1.00  0.00     0.046 A 
HETATM   24  C   UNL     1      18.839  46.294  47.846  1.00  0.00     0.066 A 
HETATM   25  C   UNL     1      18.647  45.899  46.528  1.00  0.00     0.036 A 
HETATM   26  C   UNL     1      18.882  46.803  45.496  1.00  0.00     0.003 A 
HETATM   27  C   UNL     1      19.301  48.102  45.789  1.00  0.00     0.010 A 
BRANCH  24  28
HETATM   28  O   UNL     1      18.604  45.373  48.823  1.00  0.00    -0.361 OA
HETATM   29  H   UNL     1      18.853  45.752  49.681  1.00  0.00     0.217 HD
ENDBRANCH  24  28
ENDBRANCH   9  22
BRANCH   7  30
HETATM   30  C   UNL     1      24.505  49.115  49.014  1.00  0.00     0.016 A 
HETATM   31  C   UNL     1      24.822  47.923  49.683  1.00  0.00     0.039 A 
HETATM   32  C   UNL     1      26.148  47.505  49.778  1.00  0.00     0.035 A 
HETATM   33 CL   UNL     1      26.525  46.040  50.600  1.00  0.00    -0.084 Cl
HETATM   34  C   UNL     1      27.174  48.262  49.214  1.00  0.00     0.024 A 
HETATM   35  C   UNL     1      26.871  49.447  48.548  1.00  0.00     0.003 A 
HETATM   36  C   UNL     1      25.543  49.872  48.449  1.00  0.00     0.015 A 
ENDBRANCH   7  30
TORSDOF 5
ENDMDL
MODEL 10
REMARK VINA RESULT:      -8.4      3.706      8.129
REMARK  5 active torsions:
REMARK  status: ('A' for Active; 'I' for Inactive)
REMARK    1  A    between atoms: C_7  and  C_8 
REMARK    2  A    between atoms: C_16  and  C_17 
REMARK    3  A    between atoms: C_19  and  O_20 
REMARK    4  A    between atoms: C_24  and  C_25 
REMARK       I    between atoms: C_25  and  N_26 
REMARK    5  A    between atoms: N_26  and  C_27 
ROOT
HETATM    1  C   UNL     1      28.393  40.750  53.613  1.00  0.00     0.070 C 
HETATM    2  C   UNL     1      28.006  41.196  52.221  1.00  0.00     0.037 A 
HETATM    3  N   UNL     1      27.675  40.166  51.345  1.00  0.00    -0.192 N 
HETATM    4  C   UNL     1      27.421  40.354  50.040  1.00  0.00     0.726 A 
HETATM    5  N   UNL     1      27.392  41.622  49.547  1.00  0.00    -0.083 N 
HETATM    6  N   UNL     1      27.268  41.629  48.205  1.00  0.00    -0.135 NA
HETATM    7  C   UNL     1      27.115  40.316  47.948  1.00  0.00     0.199 A 
HETATM    8  N   UNL     1      27.220  39.505  49.067  1.00  0.00    -0.041 NA
HETATM    9  C   UNL     1      27.620  42.825  50.355  1.00  0.00     0.202 A 
HETATM   10  C   UNL     1      28.000  42.491  51.798  1.00  0.00     0.062 A 
HETATM   11  H   UNL     1      27.734  39.214  51.696  1.00  0.00     0.184 HD
ENDROOT
BRANCH  10  12
HETATM   12  C   UNL     1      28.308  43.614  52.753  1.00  0.00     0.256 C 
HETATM   13  N   UNL     1      27.213  44.301  53.239  1.00  0.00    -0.323 N 
HETATM   14  H   UNL     1      26.287  43.958  53.044  1.00  0.00     0.169 HD
HETATM   15  O   UNL     1      29.471  43.828  53.080  1.00  0.00    -0.267 OA
BRANCH  13  16
HETATM   16  C   UNL     1      27.231  45.445  54.071  1.00  0.00     0.035 A 
HETATM   17  C   UNL     1      28.041  45.581  55.200  1.00  0.00     0.029 A 
HETATM   18  C   UNL     1      28.018  46.760  55.952  1.00  0.00     0.002 A 
HETATM   19  C   UNL     1      27.182  47.812  55.585  1.00  0.00     0.000 A 
HETATM   20  C   UNL     1      26.370  47.687  54.463  1.00  0.00     0.002 A 
HETATM   21  C   UNL     1      26.399  46.512  53.706  1.00  0.00     0.029 A 
ENDBRANCH  13  16
ENDBRANCH  10  12
BRANCH   9  22
HETATM   22  C   UNL     1      26.421  43.760  50.223  1.00  0.00    -0.025 A 
HETATM   23  C   UNL     1      25.116  43.343  50.541  1.00  0.00     0.046 A 
HETATM   24  C   UNL     1      24.048  44.225  50.390  1.00  0.00     0.066 A 
HETATM   25  C   UNL     1      24.246  45.513  49.911  1.00  0.00     0.036 A 
HETATM   26  C   UNL     1      25.530  45.934  49.574  1.00  0.00     0.003 A 
HETATM   27  C   UNL     1      26.611  45.063  49.726  1.00  0.00     0.010 A 
BRANCH  24  28
HETATM   28  O   UNL     1      22.773  43.855  50.699  1.00  0.00    -0.361 OA
HETATM   29  H   UNL     1      22.752  43.528  51.613  1.00  0.00     0.217 HD
ENDBRANCH  24  28
ENDBRANCH   9  22
BRANCH   7  30
HETATM   30  C   UNL     1      26.885  39.773  46.613  1.00  0.00     0.016 A 
HETATM   31  C   UNL     1      27.958  39.366  45.809  1.00  0.00     0.039 A 
HETATM   32  C   UNL     1      27.724  38.851  44.535  1.00  0.00     0.035 A 
HETATM   33 CL   UNL     1      29.050  38.354  43.557  1.00  0.00    -0.084 Cl
HETATM   34  C   UNL     1      26.425  38.736  44.043  1.00  0.00     0.024 A 
HETATM   35  C   UNL     1      25.350  39.138  44.833  1.00  0.00     0.003 A 
HETATM   36  C   UNL     1      25.579  39.655  46.112  1.00  0.00     0.015 A 
ENDBRANCH   7  30
TORSDOF 5
ENDMDL
