MODEL 1
REMARK VINA RESULT:      -9.9      0.000      0.000
REMARK  8 active torsions:
REMARK  status: ('A' for Active; 'I' for Inactive)
REMARK    1  A    between atoms: C_4  and  C_5 
REMARK    2  A    between atoms: C_9  and  C_10 
REMARK       I    between atoms: C_10  and  N_11 
REMARK    3  A    between atoms: N_11  and  C_12 
REMARK    4  A    between atoms: C_12  and  C_13 
REMARK    5  A    between atoms: C_13  and  C_14 
REMARK    6  A    between atoms: C_14  and  C_15 
REMARK    7  A    between atoms: C_15  and  O_16 
REMARK    8  A    between atoms: O_16  and  C_17 
ROOT
HETATM    1  C   UNL     1      24.300  48.103  49.522  1.00  0.00     0.270 C 
HETATM    2  N   UNL     1      24.446  46.780  49.858  1.00  0.00    -0.345 N 
HETATM    3  O   UNL     1      25.250  48.859  49.345  1.00  0.00    -0.266 OA
HETATM    4  H   UNL     1      23.644  46.171  49.834  1.00  0.00     0.163 HD
ENDROOT
BRANCH   2   5
HETATM    5  C   UNL     1      25.740  46.179  50.032  1.00  0.00     0.217 C 
BRANCH   5   6
HETATM    6  C   UNL     1      26.041  45.990  51.510  1.00  0.00    -0.085 C 
BRANCH   6   7
HETATM    7  C   UNL     1      26.298  45.828  52.777  1.00  0.00    -0.078 C 
BRANCH   7   8
HETATM    8  C   UNL     1      26.597  45.639  54.256  1.00  0.00     0.269 C 
BRANCH   8   9
HETATM    9  O   UNL     1      27.917  46.090  54.533  1.00  0.00    -0.337 OA
BRANCH   9  10
HETATM   10  C   UNL     1      28.863  45.133  54.839  1.00  0.00     0.099 A 
HETATM   11  C   UNL     1      29.665  45.056  56.000  1.00  0.00     0.100 A 
HETATM   12  C   UNL     1      30.571  43.970  56.089  1.00  0.00    -0.005 A 
HETATM   13  N   UNL     1      29.601  45.960  57.012  1.00  0.00    -0.257 NA
HETATM   14  C   UNL     1      31.388  43.856  57.223  1.00  0.00     0.015 A 
HETATM   15  C   UNL     1      30.663  43.015  55.065  1.00  0.00     0.014 A 
HETATM   16  C   UNL     1      31.305  44.792  58.243  1.00  0.00     0.020 A 
HETATM   17  C   UNL     1      30.402  45.819  58.091  1.00  0.00     0.117 A 
HETATM   18  C   UNL     1      29.861  43.111  53.935  1.00  0.00     0.004 A 
HETATM   19  C   UNL     1      28.965  44.165  53.825  1.00  0.00     0.039 A 
ENDBRANCH   9  10
ENDBRANCH   8   9
ENDBRANCH   7   8
ENDBRANCH   6   7
ENDBRANCH   5   6
ENDBRANCH   2   5
BRANCH   1  20
HETATM   20  C   UNL     1      22.940  48.553  49.406  1.00  0.00     0.120 A 
HETATM   21  N   UNL     1      21.926  47.696  49.082  1.00  0.00    -0.272 N 
HETATM   22  N   UNL     1      20.719  48.276  48.999  1.00  0.00    -0.174 NA
HETATM   23  H   UNL     1      22.007  46.699  48.906  1.00  0.00     0.189 HD
HETATM   24  C   UNL     1      20.952  49.576  49.238  1.00  0.00     0.089 A 
HETATM   25  C   UNL     1      22.331  49.786  49.519  1.00  0.00     0.071 A 
BRANCH  24  26
HETATM   26  C   UNL     1      19.879  50.575  49.190  1.00  0.00    -0.006 A 
HETATM   27  C   UNL     1      20.006  51.713  48.381  1.00  0.00     0.014 A 
HETATM   28  C   UNL     1      18.988  52.668  48.327  1.00  0.00     0.001 A 
HETATM   29  C   UNL     1      17.833  52.499  49.089  1.00  0.00     0.000 A 
HETATM   30  C   UNL     1      17.696  51.378  49.902  1.00  0.00     0.001 A 
HETATM   31  C   UNL     1      18.713  50.420  49.953  1.00  0.00     0.014 A 
ENDBRANCH  24  26
ENDBRANCH   1  20
TORSDOF 8
ENDMDL
MODEL 2
REMARK VINA RESULT:      -9.6      1.937      2.491
REMARK  8 active torsions:
REMARK  status: ('A' for Active; 'I' for Inactive)
REMARK    1  A    between atoms: C_4  and  C_5 
REMARK    2  A    between atoms: C_9  and  C_10 
REMARK       I    between atoms: C_10  and  N_11 
REMARK    3  A    between atoms: N_11  and  C_12 
REMARK    4  A    between atoms: C_12  and  C_13 
REMARK    5  A    between atoms: C_13  and  C_14 
REMARK    6  A    between atoms: C_14  and  C_15 
REMARK    7  A    between atoms: C_15  and  O_16 
REMARK    8  A    between atoms: O_16  and  C_17 
ROOT
HETATM    1  C   UNL     1      24.961  49.571  48.363  1.00  0.00     0.270 C 
HETATM    2  N   UNL     1      25.449  48.670  49.277  1.00  0.00    -0.345 N 
HETATM    3  O   UNL     1      25.657  50.097  47.502  1.00  0.00    -0.266 OA
HETATM    4  H   UNL     1      24.807  48.152  49.855  1.00  0.00     0.163 HD
ENDROOT
BRANCH   2   5
HETATM    5  C   UNL     1      26.832  48.277  49.291  1.00  0.00     0.217 C 
BRANCH   5   6
HETATM    6  C   UNL     1      26.961  46.815  49.688  1.00  0.00    -0.085 C 
BRANCH   6   7
HETATM    7  C   UNL     1      27.072  45.561  50.028  1.00  0.00    -0.078 C 
BRANCH   7   8
HETATM    8  C   UNL     1      27.201  44.099  50.425  1.00  0.00     0.269 C 
BRANCH   8   9
HETATM    9  O   UNL     1      26.871  43.950  51.799  1.00  0.00    -0.337 OA
BRANCH   9  10
HETATM   10  C   UNL     1      27.915  43.804  52.690  1.00  0.00     0.099 A 
HETATM   11  C   UNL     1      28.201  44.604  53.819  1.00  0.00     0.100 A 
HETATM   12  C   UNL     1      29.338  44.252  54.589  1.00  0.00    -0.005 A 
HETATM   13  N   UNL     1      27.445  45.670  54.189  1.00  0.00    -0.257 NA
HETATM   14  C   UNL     1      29.660  45.020  55.717  1.00  0.00     0.015 A 
HETATM   15  C   UNL     1      30.141  43.155  54.239  1.00  0.00     0.014 A 
HETATM   16  C   UNL     1      28.874  46.104  56.074  1.00  0.00     0.020 A 
HETATM   17  C   UNL     1      27.784  46.387  55.283  1.00  0.00     0.117 A 
HETATM   18  C   UNL     1      29.837  42.383  53.126  1.00  0.00     0.004 A 
HETATM   19  C   UNL     1      28.727  42.707  52.357  1.00  0.00     0.039 A 
ENDBRANCH   9  10
ENDBRANCH   8   9
ENDBRANCH   7   8
ENDBRANCH   6   7
ENDBRANCH   5   6
ENDBRANCH   2   5
BRANCH   1  20
HETATM   20  C   UNL     1      23.562  49.872  48.497  1.00  0.00     0.120 A 
HETATM   21  N   UNL     1      22.814  49.366  49.523  1.00  0.00    -0.272 N 
HETATM   22  N   UNL     1      21.523  49.730  49.496  1.00  0.00    -0.174 NA
HETATM   23  H   UNL     1      23.141  48.764  50.273  1.00  0.00     0.189 HD
HETATM   24  C   UNL     1      21.404  50.472  48.384  1.00  0.00     0.089 A 
HETATM   25  C   UNL     1      22.667  50.602  47.742  1.00  0.00     0.071 A 
BRANCH  24  26
HETATM   26  C   UNL     1      20.115  51.028  47.960  1.00  0.00    -0.006 A 
HETATM   27  C   UNL     1      19.515  52.064  48.690  1.00  0.00     0.014 A 
HETATM   28  C   UNL     1      18.288  52.601  48.291  1.00  0.00     0.001 A 
HETATM   29  C   UNL     1      17.643  52.101  47.161  1.00  0.00     0.000 A 
HETATM   30  C   UNL     1      18.223  51.067  46.430  1.00  0.00     0.001 A 
HETATM   31  C   UNL     1      19.453  50.533  46.827  1.00  0.00     0.014 A 
ENDBRANCH  24  26
ENDBRANCH   1  20
TORSDOF 8
ENDMDL
MODEL 3
REMARK VINA RESULT:      -9.5      1.925     11.625
REMARK  8 active torsions:
REMARK  status: ('A' for Active; 'I' for Inactive)
REMARK    1  A    between atoms: C_4  and  C_5 
REMARK    2  A    between atoms: C_9  and  C_10 
REMARK       I    between atoms: C_10  and  N_11 
REMARK    3  A    between atoms: N_11  and  C_12 
REMARK    4  A    between atoms: C_12  and  C_13 
REMARK    5  A    between atoms: C_13  and  C_14 
REMARK    6  A    between atoms: C_14  and  C_15 
REMARK    7  A    between atoms: C_15  and  O_16 
REMARK    8  A    between atoms: O_16  and  C_17 
ROOT
HETATM    1  C   UNL     1      25.680  45.466  52.856  1.00  0.00     0.270 C 
HETATM    2  N   UNL     1      25.740  46.302  51.769  1.00  0.00    -0.345 N 
HETATM    3  O   UNL     1      24.776  44.655  53.030  1.00  0.00    -0.266 OA
HETATM    4  H   UNL     1      26.580  46.831  51.595  1.00  0.00     0.163 HD
ENDROOT
BRANCH   2   5
HETATM    5  C   UNL     1      24.731  46.290  50.745  1.00  0.00     0.217 C 
BRANCH   5   6
HETATM    6  C   UNL     1      24.804  47.562  49.916  1.00  0.00    -0.085 C 
BRANCH   6   7
HETATM    7  C   UNL     1      24.868  48.653  49.205  1.00  0.00    -0.078 C 
BRANCH   7   8
HETATM    8  C   UNL     1      24.943  49.925  48.377  1.00  0.00     0.269 C 
BRANCH   8   9
HETATM    9  O   UNL     1      23.940  49.895  47.370  1.00  0.00    -0.337 OA
BRANCH   9  10
HETATM   10  C   UNL     1      22.624  49.878  47.786  1.00  0.00     0.099 A 
HETATM   11  C   UNL     1      21.714  48.798  47.717  1.00  0.00     0.100 A 
HETATM   12  C   UNL     1      20.406  49.023  48.213  1.00  0.00    -0.005 A 
HETATM   13  N   UNL     1      22.038  47.582  47.207  1.00  0.00    -0.257 NA
HETATM   14  C   UNL     1      19.470  47.980  48.162  1.00  0.00     0.015 A 
HETATM   15  C   UNL     1      20.036  50.266  48.750  1.00  0.00     0.014 A 
HETATM   16  C   UNL     1      19.824  46.747  47.637  1.00  0.00     0.020 A 
HETATM   17  C   UNL     1      21.111  46.599  47.175  1.00  0.00     0.117 A 
HETATM   18  C   UNL     1      20.950  51.311  48.810  1.00  0.00     0.004 A 
HETATM   19  C   UNL     1      22.238  51.114  48.330  1.00  0.00     0.039 A 
ENDBRANCH   9  10
ENDBRANCH   8   9
ENDBRANCH   7   8
ENDBRANCH   6   7
ENDBRANCH   5   6
ENDBRANCH   2   5
BRANCH   1  20
HETATM   20  C   UNL     1      26.755  45.618  53.798  1.00  0.00     0.120 A 
HETATM   21  N   UNL     1      27.220  46.850  54.163  1.00  0.00    -0.272 N 
HETATM   22  N   UNL     1      28.237  46.818  55.038  1.00  0.00    -0.174 NA
HETATM   23  H   UNL     1      26.875  47.749  53.840  1.00  0.00     0.189 HD
HETATM   24  C   UNL     1      28.479  45.512  55.227  1.00  0.00     0.089 A 
HETATM   25  C   UNL     1      27.556  44.726  54.482  1.00  0.00     0.071 A 
BRANCH  24  26
HETATM   26  C   UNL     1      29.568  45.045  56.092  1.00  0.00    -0.006 A 
HETATM   27  C   UNL     1      30.394  43.988  55.684  1.00  0.00     0.014 A 
HETATM   28  C   UNL     1      31.434  43.539  56.501  1.00  0.00     0.001 A 
HETATM   29  C   UNL     1      31.656  44.138  57.740  1.00  0.00     0.000 A 
HETATM   30  C   UNL     1      30.840  45.184  58.162  1.00  0.00     0.001 A 
HETATM   31  C   UNL     1      29.801  45.636  57.342  1.00  0.00     0.014 A 
ENDBRANCH  24  26
ENDBRANCH   1  20
TORSDOF 8
ENDMDL
MODEL 4
REMARK VINA RESULT:      -9.4      1.241      2.425
REMARK  8 active torsions:
REMARK  status: ('A' for Active; 'I' for Inactive)
REMARK    1  A    between atoms: C_4  and  C_5 
REMARK    2  A    between atoms: C_9  and  C_10 
REMARK       I    between atoms: C_10  and  N_11 
REMARK    3  A    between atoms: N_11  and  C_12 
REMARK    4  A    between atoms: C_12  and  C_13 
REMARK    5  A    between atoms: C_13  and  C_14 
REMARK    6  A    between atoms: C_14  and  C_15 
REMARK    7  A    between atoms: C_15  and  O_16 
REMARK    8  A    between atoms: O_16  and  C_17 
ROOT
HETATM    1  C   UNL     1      24.083  48.438  49.541  1.00  0.00     0.270 C 
HETATM    2  N   UNL     1      24.326  47.216  50.118  1.00  0.00    -0.345 N 
HETATM    3  O   UNL     1      24.975  49.200  49.184  1.00  0.00    -0.266 OA
HETATM    4  H   UNL     1      23.565  46.567  50.243  1.00  0.00     0.163 HD
ENDROOT
BRANCH   2   5
HETATM    5  C   UNL     1      25.661  46.738  50.351  1.00  0.00     0.217 C 
BRANCH   5   6
HETATM    6  C   UNL     1      26.058  46.965  51.801  1.00  0.00    -0.085 C 
BRANCH   6   7
HETATM    7  C   UNL     1      26.399  47.159  53.044  1.00  0.00    -0.078 C 
BRANCH   7   8
HETATM    8  C   UNL     1      26.795  47.386  54.494  1.00  0.00     0.269 C 
BRANCH   8   9
HETATM    9  O   UNL     1      26.818  46.141  55.180  1.00  0.00    -0.337 OA
BRANCH   9  10
HETATM   10  C   UNL     1      28.047  45.541  55.364  1.00  0.00     0.099 A 
HETATM   11  C   UNL     1      28.633  44.523  54.577  1.00  0.00     0.100 A 
HETATM   12  C   UNL     1      29.915  44.064  54.967  1.00  0.00    -0.005 A 
HETATM   13  N   UNL     1      28.030  43.982  53.487  1.00  0.00    -0.257 NA
HETATM   14  C   UNL     1      30.534  43.053  54.217  1.00  0.00     0.015 A 
HETATM   15  C   UNL     1      30.571  44.601  56.086  1.00  0.00     0.014 A 
HETATM   16  C   UNL     1      29.898  42.516  53.108  1.00  0.00     0.020 A 
HETATM   17  C   UNL     1      28.655  43.011  52.786  1.00  0.00     0.117 A 
HETATM   18  C   UNL     1      29.975  45.603  56.841  1.00  0.00     0.004 A 
HETATM   19  C   UNL     1      28.719  46.070  56.478  1.00  0.00     0.039 A 
ENDBRANCH   9  10
ENDBRANCH   8   9
ENDBRANCH   7   8
ENDBRANCH   6   7
ENDBRANCH   5   6
ENDBRANCH   2   5
BRANCH   1  20
HETATM   20  C   UNL     1      22.694  48.775  49.396  1.00  0.00     0.120 A 
HETATM   21  N   UNL     1      21.730  47.813  49.283  1.00  0.00    -0.272 N 
HETATM   22  N   UNL     1      20.486  48.292  49.139  1.00  0.00    -0.174 NA
HETATM   23  H   UNL     1      21.872  46.807  49.297  1.00  0.00     0.189 HD
HETATM   24  C   UNL     1      20.638  49.626  49.115  1.00  0.00     0.089 A 
HETATM   25  C   UNL     1      22.008  49.968  49.296  1.00  0.00     0.071 A 
BRANCH  24  26
HETATM   26  C   UNL     1      19.501  50.531  48.920  1.00  0.00    -0.006 A 
HETATM   27  C   UNL     1      18.188  50.065  49.084  1.00  0.00     0.014 A 
HETATM   28  C   UNL     1      17.099  50.922  48.902  1.00  0.00     0.001 A 
HETATM   29  C   UNL     1      17.311  52.252  48.546  1.00  0.00     0.000 A 
HETATM   30  C   UNL     1      18.608  52.727  48.372  1.00  0.00     0.001 A 
HETATM   31  C   UNL     1      19.698  51.871  48.558  1.00  0.00     0.014 A 
ENDBRANCH  24  26
ENDBRANCH   1  20
TORSDOF 8
ENDMDL
MODEL 5
REMARK VINA RESULT:      -9.3      2.120      3.095
REMARK  8 active torsions:
REMARK  status: ('A' for Active; 'I' for Inactive)
REMARK    1  A    between atoms: C_4  and  C_5 
REMARK    2  A    between atoms: C_9  and  C_10 
REMARK       I    between atoms: C_10  and  N_11 
REMARK    3  A    between atoms: N_11  and  C_12 
REMARK    4  A    between atoms: C_12  and  C_13 
REMARK    5  A    between atoms: C_13  and  C_14 
REMARK    6  A    between atoms: C_14  and  C_15 
REMARK    7  A    between atoms: C_15  and  O_16 
REMARK    8  A    between atoms: O_16  and  C_17 
ROOT
HETATM    1  C   UNL     1      22.706  49.421  49.556  1.00  0.00     0.270 C 
HETATM    2  N   UNL     1      23.100  48.122  49.758  1.00  0.00    -0.345 N 
HETATM    3  O   UNL     1      23.497  50.342  49.382  1.00  0.00    -0.266 OA
HETATM    4  H   UNL     1      22.413  47.385  49.734  1.00  0.00     0.163 HD
ENDROOT
BRANCH   2   5
HETATM    5  C   UNL     1      24.487  47.743  49.784  1.00  0.00     0.217 C 
BRANCH   5   6
HETATM    6  C   UNL     1      24.650  46.381  50.438  1.00  0.00    -0.085 C 
BRANCH   6   7
HETATM    7  C   UNL     1      24.790  45.213  50.999  1.00  0.00    -0.078 C 
BRANCH   7   8
HETATM    8  C   UNL     1      24.952  43.850  51.654  1.00  0.00     0.269 C 
BRANCH   8   9
HETATM    9  O   UNL     1      24.982  44.003  53.067  1.00  0.00    -0.337 OA
BRANCH   9  10
HETATM   10  C   UNL     1      26.189  44.342  53.642  1.00  0.00     0.099 A 
HETATM   11  C   UNL     1      26.561  45.592  54.187  1.00  0.00     0.100 A 
HETATM   12  C   UNL     1      27.867  45.698  54.727  1.00  0.00    -0.005 A 
HETATM   13  N   UNL     1      25.736  46.670  54.214  1.00  0.00    -0.257 NA
HETATM   14  C   UNL     1      28.279  46.921  55.276  1.00  0.00     0.015 A 
HETATM   15  C   UNL     1      28.748  44.605  54.720  1.00  0.00     0.014 A 
HETATM   16  C   UNL     1      27.418  48.007  55.291  1.00  0.00     0.020 A 
HETATM   17  C   UNL     1      26.165  47.832  54.751  1.00  0.00     0.117 A 
HETATM   18  C   UNL     1      28.356  43.386  54.182  1.00  0.00     0.004 A 
HETATM   19  C   UNL     1      27.082  43.257  53.647  1.00  0.00     0.039 A 
ENDBRANCH   9  10
ENDBRANCH   8   9
ENDBRANCH   7   8
ENDBRANCH   6   7
ENDBRANCH   5   6
ENDBRANCH   2   5
BRANCH   1  20
HETATM   20  C   UNL     1      21.285  49.634  49.577  1.00  0.00     0.120 A 
HETATM   21  N   UNL     1      20.406  48.597  49.712  1.00  0.00    -0.272 N 
HETATM   22  N   UNL     1      19.115  48.962  49.698  1.00  0.00    -0.174 NA
HETATM   23  H   UNL     1      20.639  47.614  49.816  1.00  0.00     0.189 HD
HETATM   24  C   UNL     1      19.142  50.291  49.506  1.00  0.00     0.089 A 
HETATM   25  C   UNL     1      20.487  50.753  49.447  1.00  0.00     0.071 A 
BRANCH  24  26
HETATM   26  C   UNL     1      17.912  51.078  49.379  1.00  0.00    -0.006 A 
HETATM   27  C   UNL     1      16.788  50.540  48.736  1.00  0.00     0.014 A 
HETATM   28  C   UNL     1      15.612  51.283  48.613  1.00  0.00     0.001 A 
HETATM   29  C   UNL     1      15.548  52.578  49.125  1.00  0.00     0.000 A 
HETATM   30  C   UNL     1      16.658  53.129  49.760  1.00  0.00     0.001 A 
HETATM   31  C   UNL     1      17.835  52.384  49.887  1.00  0.00     0.014 A 
ENDBRANCH  24  26
ENDBRANCH   1  20
TORSDOF 8
ENDMDL
MODEL 6
REMARK VINA RESULT:      -9.3      2.939     10.351
REMARK  8 active torsions:
REMARK  status: ('A' for Active; 'I' for Inactive)
REMARK    1  A    between atoms: C_4  and  C_5 
REMARK    2  A    between atoms: C_9  and  C_10 
REMARK       I    between atoms: C_10  and  N_11 
REMARK    3  A    between atoms: N_11  and  C_12 
REMARK    4  A    between atoms: C_12  and  C_13 
REMARK    5  A    between atoms: C_13  and  C_14 
REMARK    6  A    between atoms: C_14  and  C_15 
REMARK    7  A    between atoms: C_15  and  O_16 
REMARK    8  A    between atoms: O_16  and  C_17 
ROOT
HETATM    1  C   UNL     1      26.704  43.863  50.556  1.00  0.00     0.270 C 
HETATM    2  N   UNL     1      25.593  43.075  50.381  1.00  0.00    -0.345 N 
HETATM    3  O   UNL     1      27.258  44.454  49.636  1.00  0.00    -0.266 OA
HETATM    4  H   UNL     1      25.087  42.744  51.188  1.00  0.00     0.163 HD
ENDROOT
BRANCH   2   5
HETATM    5  C   UNL     1      24.994  42.881  49.089  1.00  0.00     0.217 C 
BRANCH   5   6
HETATM    6  C   UNL     1      24.042  44.023  48.772  1.00  0.00    -0.085 C 
BRANCH   6   7
HETATM    7  C   UNL     1      23.225  45.001  48.501  1.00  0.00    -0.078 C 
BRANCH   7   8
HETATM    8  C   UNL     1      22.272  46.143  48.185  1.00  0.00     0.269 C 
BRANCH   8   9
HETATM    9  O   UNL     1      22.452  47.187  49.134  1.00  0.00    -0.337 OA
BRANCH   9  10
HETATM   10  C   UNL     1      23.189  48.285  48.737  1.00  0.00     0.099 A 
HETATM   11  C   UNL     1      24.575  48.497  48.908  1.00  0.00     0.100 A 
HETATM   12  C   UNL     1      25.108  49.713  48.411  1.00  0.00    -0.005 A 
HETATM   13  N   UNL     1      25.398  47.603  49.514  1.00  0.00    -0.257 NA
HETATM   14  C   UNL     1      26.479  49.967  48.561  1.00  0.00     0.015 A 
HETATM   15  C   UNL     1      24.290  50.659  47.775  1.00  0.00     0.014 A 
HETATM   16  C   UNL     1      27.299  49.039  49.185  1.00  0.00     0.020 A 
HETATM   17  C   UNL     1      26.715  47.880  49.641  1.00  0.00     0.117 A 
HETATM   18  C   UNL     1      22.930  50.425  47.616  1.00  0.00     0.004 A 
HETATM   19  C   UNL     1      22.385  49.241  48.095  1.00  0.00     0.039 A 
ENDBRANCH   9  10
ENDBRANCH   8   9
ENDBRANCH   7   8
ENDBRANCH   6   7
ENDBRANCH   5   6
ENDBRANCH   2   5
BRANCH   1  20
HETATM   20  C   UNL     1      27.189  43.936  51.907  1.00  0.00     0.120 A 
HETATM   21  N   UNL     1      26.342  44.114  52.964  1.00  0.00    -0.272 N 
HETATM   22  N   UNL     1      26.954  44.176  54.157  1.00  0.00    -0.174 NA
HETATM   23  H   UNL     1      25.331  44.199  52.925  1.00  0.00     0.189 HD
HETATM   24  C   UNL     1      28.262  44.075  53.871  1.00  0.00     0.089 A 
HETATM   25  C   UNL     1      28.448  43.901  52.471  1.00  0.00     0.071 A 
BRANCH  24  26
HETATM   26  C   UNL     1      29.290  44.151  54.914  1.00  0.00    -0.006 A 
HETATM   27  C   UNL     1      29.420  45.306  55.698  1.00  0.00     0.014 A 
HETATM   28  C   UNL     1      30.396  45.385  56.696  1.00  0.00     0.001 A 
HETATM   29  C   UNL     1      31.256  44.312  56.915  1.00  0.00     0.000 A 
HETATM   30  C   UNL     1      31.144  43.161  56.140  1.00  0.00     0.001 A 
HETATM   31  C   UNL     1      30.165  43.080  55.145  1.00  0.00     0.014 A 
ENDBRANCH  24  26
ENDBRANCH   1  20
TORSDOF 8
ENDMDL
MODEL 7
REMARK VINA RESULT:      -9.1      2.735     11.168
REMARK  8 active torsions:
REMARK  status: ('A' for Active; 'I' for Inactive)
REMARK    1  A    between atoms: C_4  and  C_5 
REMARK    2  A    between atoms: C_9  and  C_10 
REMARK       I    between atoms: C_10  and  N_11 
REMARK    3  A    between atoms: N_11  and  C_12 
REMARK    4  A    between atoms: C_12  and  C_13 
REMARK    5  A    between atoms: C_13  and  C_14 
REMARK    6  A    between atoms: C_14  and  C_15 
REMARK    7  A    between atoms: C_15  and  O_16 
REMARK    8  A    between atoms: O_16  and  C_17 
ROOT
HETATM    1  C   UNL     1      26.516  42.991  50.222  1.00  0.00     0.270 C 
HETATM    2  N   UNL     1      25.211  42.567  50.235  1.00  0.00    -0.345 N 
HETATM    3  O   UNL     1      27.108  43.309  49.196  1.00  0.00    -0.266 OA
HETATM    4  H   UNL     1      24.728  42.473  51.115  1.00  0.00     0.163 HD
ENDROOT
BRANCH   2   5
HETATM    5  C   UNL     1      24.435  42.460  49.029  1.00  0.00     0.217 C 
BRANCH   5   6
HETATM    6  C   UNL     1      23.777  43.791  48.704  1.00  0.00    -0.085 C 
BRANCH   6   7
HETATM    7  C   UNL     1      23.213  44.933  48.426  1.00  0.00    -0.078 C 
BRANCH   7   8
HETATM    8  C   UNL     1      22.555  46.264  48.101  1.00  0.00     0.269 C 
BRANCH   8   9
HETATM    9  O   UNL     1      22.748  47.165  49.184  1.00  0.00    -0.337 OA
BRANCH   9  10
HETATM   10  C   UNL     1      22.686  48.515  48.904  1.00  0.00     0.099 A 
HETATM   11  C   UNL     1      21.551  49.356  48.972  1.00  0.00     0.100 A 
HETATM   12  C   UNL     1      21.738  50.720  48.635  1.00  0.00    -0.005 A 
HETATM   13  N   UNL     1      20.320  48.919  49.339  1.00  0.00    -0.257 NA
HETATM   14  C   UNL     1      20.639  51.590  48.687  1.00  0.00     0.015 A 
HETATM   15  C   UNL     1      22.997  51.209  48.254  1.00  0.00     0.014 A 
HETATM   16  C   UNL     1      19.391  51.119  49.064  1.00  0.00     0.020 A 
HETATM   17  C   UNL     1      19.283  49.784  49.379  1.00  0.00     0.117 A 
HETATM   18  C   UNL     1      24.097  50.362  48.199  1.00  0.00     0.004 A 
HETATM   19  C   UNL     1      23.940  49.022  48.524  1.00  0.00     0.039 A 
ENDBRANCH   9  10
ENDBRANCH   8   9
ENDBRANCH   7   8
ENDBRANCH   6   7
ENDBRANCH   5   6
ENDBRANCH   2   5
BRANCH   1  20
HETATM   20  C   UNL     1      27.156  43.023  51.509  1.00  0.00     0.120 A 
HETATM   21  N   UNL     1      26.882  42.092  52.470  1.00  0.00    -0.272 N 
HETATM   22  N   UNL     1      27.551  42.271  53.619  1.00  0.00    -0.174 NA
HETATM   23  H   UNL     1      26.240  41.308  52.390  1.00  0.00     0.189 HD
HETATM   24  C   UNL     1      28.265  43.390  53.422  1.00  0.00     0.089 A 
HETATM   25  C   UNL     1      28.061  43.880  52.102  1.00  0.00     0.071 A 
BRANCH  24  26
HETATM   26  C   UNL     1      29.108  43.964  54.476  1.00  0.00    -0.006 A 
HETATM   27  C   UNL     1      30.223  43.261  54.954  1.00  0.00     0.014 A 
HETATM   28  C   UNL     1      31.033  43.801  55.957  1.00  0.00     0.001 A 
HETATM   29  C   UNL     1      30.731  45.049  56.498  1.00  0.00     0.000 A 
HETATM   30  C   UNL     1      29.622  45.756  56.040  1.00  0.00     0.001 A 
HETATM   31  C   UNL     1      28.815  45.217  55.034  1.00  0.00     0.014 A 
ENDBRANCH  24  26
ENDBRANCH   1  20
TORSDOF 8
ENDMDL
MODEL 8
REMARK VINA RESULT:      -9.0      2.059     11.863
REMARK  8 active torsions:
REMARK  status: ('A' for Active; 'I' for Inactive)
REMARK    1  A    between atoms: C_4  and  C_5 
REMARK    2  A    between atoms: C_9  and  C_10 
REMARK       I    between atoms: C_10  and  N_11 
REMARK    3  A    between atoms: N_11  and  C_12 
REMARK    4  A    between atoms: C_12  and  C_13 
REMARK    5  A    between atoms: C_13  and  C_14 
REMARK    6  A    between atoms: C_14  and  C_15 
REMARK    7  A    between atoms: C_15  and  O_16 
REMARK    8  A    between atoms: O_16  and  C_17 
ROOT
HETATM    1  C   UNL     1      26.689  43.897  51.961  1.00  0.00     0.270 C 
HETATM    2  N   UNL     1      26.990  43.882  50.622  1.00  0.00    -0.345 N 
HETATM    3  O   UNL     1      25.541  43.948  52.390  1.00  0.00    -0.266 OA
HETATM    4  H   UNL     1      27.932  43.678  50.327  1.00  0.00     0.163 HD
ENDROOT
BRANCH   2   5
HETATM    5  C   UNL     1      25.967  43.928  49.613  1.00  0.00     0.217 C 
BRANCH   5   6
HETATM    6  C   UNL     1      25.304  45.296  49.595  1.00  0.00    -0.085 C 
BRANCH   6   7
HETATM    7  C   UNL     1      24.735  46.469  49.581  1.00  0.00    -0.078 C 
BRANCH   7   8
HETATM    8  C   UNL     1      24.072  47.837  49.563  1.00  0.00     0.269 C 
BRANCH   8   9
HETATM    9  O   UNL     1      22.680  47.686  49.317  1.00  0.00    -0.337 OA
BRANCH   9  10
HETATM   10  C   UNL     1      21.953  48.831  49.060  1.00  0.00     0.099 A 
HETATM   11  C   UNL     1      20.548  48.976  49.064  1.00  0.00     0.100 A 
HETATM   12  C   UNL     1      20.030  50.261  48.769  1.00  0.00    -0.005 A 
HETATM   13  N   UNL     1      19.693  47.956  49.335  1.00  0.00    -0.257 NA
HETATM   14  C   UNL     1      18.641  50.451  48.760  1.00  0.00     0.015 A 
HETATM   15  C   UNL     1      20.882  51.341  48.487  1.00  0.00     0.014 A 
HETATM   16  C   UNL     1      17.788  49.393  49.039  1.00  0.00     0.020 A 
HETATM   17  C   UNL     1      18.360  48.173  49.319  1.00  0.00     0.117 A 
HETATM   18  C   UNL     1      22.261  51.173  48.493  1.00  0.00     0.004 A 
HETATM   19  C   UNL     1      22.792  49.922  48.780  1.00  0.00     0.039 A 
ENDBRANCH   9  10
ENDBRANCH   8   9
ENDBRANCH   7   8
ENDBRANCH   6   7
ENDBRANCH   5   6
ENDBRANCH   2   5
BRANCH   1  20
HETATM   20  C   UNL     1      27.827  43.865  52.838  1.00  0.00     0.120 A 
HETATM   21  N   UNL     1      28.978  43.214  52.496  1.00  0.00    -0.272 N 
HETATM   22  N   UNL     1      29.939  43.265  53.431  1.00  0.00    -0.174 NA
HETATM   23  H   UNL     1      29.159  42.715  51.630  1.00  0.00     0.189 HD
HETATM   24  C   UNL     1      29.386  43.943  54.448  1.00  0.00     0.089 A 
HETATM   25  C   UNL     1      28.067  44.355  54.106  1.00  0.00     0.071 A 
BRANCH  24  26
HETATM   26  C   UNL     1      30.105  44.176  55.704  1.00  0.00    -0.006 A 
HETATM   27  C   UNL     1      29.821  45.305  56.485  1.00  0.00     0.014 A 
HETATM   28  C   UNL     1      30.501  45.534  57.685  1.00  0.00     0.001 A 
HETATM   29  C   UNL     1      31.479  44.639  58.113  1.00  0.00     0.000 A 
HETATM   30  C   UNL     1      31.778  43.517  57.344  1.00  0.00     0.001 A 
HETATM   31  C   UNL     1      31.095  43.286  56.146  1.00  0.00     0.014 A 
ENDBRANCH  24  26
ENDBRANCH   1  20
TORSDOF 8
ENDMDL
MODEL 9
REMARK VINA RESULT:      -8.9      2.225     12.324
REMARK  8 active torsions:
REMARK  status: ('A' for Active; 'I' for Inactive)
REMARK    1  A    between atoms: C_4  and  C_5 
REMARK    2  A    between atoms: C_9  and  C_10 
REMARK       I    between atoms: C_10  and  N_11 
REMARK    3  A    between atoms: N_11  and  C_12 
REMARK    4  A    between atoms: C_12  and  C_13 
REMARK    5  A    between atoms: C_13  and  C_14 
REMARK    6  A    between atoms: C_14  and  C_15 
REMARK    7  A    between atoms: C_15  and  O_16 
REMARK    8  A    between atoms: O_16  and  C_17 
ROOT
HETATM    1  C   UNL     1      24.996  44.998  51.628  1.00  0.00     0.270 C 
HETATM    2  N   UNL     1      25.280  45.591  50.423  1.00  0.00    -0.345 N 
HETATM    3  O   UNL     1      23.965  44.369  51.839  1.00  0.00    -0.266 OA
HETATM    4  H   UNL     1      26.204  45.955  50.254  1.00  0.00     0.163 HD
ENDROOT
BRANCH   2   5
HETATM    5  C   UNL     1      24.374  45.518  49.308  1.00  0.00     0.217 C 
BRANCH   5   6
HETATM    6  C   UNL     1      23.536  46.784  49.225  1.00  0.00    -0.085 C 
BRANCH   6   7
HETATM    7  C   UNL     1      22.818  47.870  49.154  1.00  0.00    -0.078 C 
BRANCH   7   8
HETATM    8  C   UNL     1      21.981  49.136  49.072  1.00  0.00     0.269 C 
BRANCH   8   9
HETATM    9  O   UNL     1      20.601  48.792  49.063  1.00  0.00    -0.337 OA
BRANCH   9  10
HETATM   10  C   UNL     1      19.699  49.797  48.777  1.00  0.00     0.099 A 
HETATM   11  C   UNL     1      18.315  49.664  48.526  1.00  0.00     0.100 A 
HETATM   12  C   UNL     1      17.591  50.851  48.256  1.00  0.00    -0.005 A 
HETATM   13  N   UNL     1      17.666  48.471  48.537  1.00  0.00    -0.257 NA
HETATM   14  C   UNL     1      16.214  50.766  47.999  1.00  0.00     0.015 A 
HETATM   15  C   UNL     1      18.226  52.103  48.239  1.00  0.00     0.014 A 
HETATM   16  C   UNL     1      15.574  49.536  48.015  1.00  0.00     0.020 A 
HETATM   17  C   UNL     1      16.339  48.425  48.287  1.00  0.00     0.117 A 
HETATM   18  C   UNL     1      19.588  52.207  48.492  1.00  0.00     0.004 A 
HETATM   19  C   UNL     1      20.319  51.058  48.761  1.00  0.00     0.039 A 
ENDBRANCH   9  10
ENDBRANCH   8   9
ENDBRANCH   7   8
ENDBRANCH   6   7
ENDBRANCH   5   6
ENDBRANCH   2   5
BRANCH   1  20
HETATM   20  C   UNL     1      25.996  45.181  52.644  1.00  0.00     0.120 A 
HETATM   21  N   UNL     1      26.107  46.352  53.338  1.00  0.00    -0.272 N 
HETATM   22  N   UNL     1      27.100  46.367  54.240  1.00  0.00    -0.174 NA
HETATM   23  H   UNL     1      25.525  47.178  53.234  1.00  0.00     0.189 HD
HETATM   24  C   UNL     1      27.695  45.171  54.107  1.00  0.00     0.089 A 
HETATM   25  C   UNL     1      27.018  44.390  53.129  1.00  0.00     0.071 A 
BRANCH  24  26
HETATM   26  C   UNL     1      28.878  44.804  54.892  1.00  0.00    -0.006 A 
HETATM   27  C   UNL     1      29.581  43.625  54.606  1.00  0.00     0.014 A 
HETATM   28  C   UNL     1      30.710  43.269  55.349  1.00  0.00     0.001 A 
HETATM   29  C   UNL     1      31.144  44.085  56.391  1.00  0.00     0.000 A 
HETATM   30  C   UNL     1      30.452  45.255  56.692  1.00  0.00     0.001 A 
HETATM   31  C   UNL     1      29.325  45.614  55.946  1.00  0.00     0.014 A 
ENDBRANCH  24  26
ENDBRANCH   1  20
TORSDOF 8
ENDMDL
MODEL 10
REMARK VINA RESULT:      -8.6      2.041      2.834
REMARK  8 active torsions:
REMARK  status: ('A' for Active; 'I' for Inactive)
REMARK    1  A    between atoms: C_4  and  C_5 
REMARK    2  A    between atoms: C_9  and  C_10 
REMARK       I    between atoms: C_10  and  N_11 
REMARK    3  A    between atoms: N_11  and  C_12 
REMARK    4  A    between atoms: C_12  and  C_13 
REMARK    5  A    between atoms: C_13  and  C_14 
REMARK    6  A    between atoms: C_14  and  C_15 
REMARK    7  A    between atoms: C_15  and  O_16 
REMARK    8  A    between atoms: O_16  and  C_17 
ROOT
HETATM    1  C   UNL     1      21.805  46.262  48.242  1.00  0.00     0.270 C 
HETATM    2  N   UNL     1      22.119  45.311  49.181  1.00  0.00    -0.345 N 
HETATM    3  O   UNL     1      22.295  46.282  47.118  1.00  0.00    -0.266 OA
HETATM    4  H   UNL     1      21.572  45.248  50.025  1.00  0.00     0.163 HD
ENDROOT
BRANCH   2   5
HETATM    5  C   UNL     1      23.061  44.259  48.911  1.00  0.00     0.217 C 
BRANCH   5   6
HETATM    6  C   UNL     1      23.978  44.052  50.106  1.00  0.00    -0.085 C 
BRANCH   6   7
HETATM    7  C   UNL     1      24.763  43.873  51.131  1.00  0.00    -0.078 C 
BRANCH   7   8
HETATM    8  C   UNL     1      25.680  43.664  52.326  1.00  0.00     0.269 C 
BRANCH   8   9
HETATM    9  O   UNL     1      26.854  44.449  52.166  1.00  0.00    -0.337 OA
BRANCH   9  10
HETATM   10  C   UNL     1      27.363  45.065  53.291  1.00  0.00     0.099 A 
HETATM   11  C   UNL     1      28.473  44.658  54.065  1.00  0.00     0.100 A 
HETATM   12  C   UNL     1      28.809  45.460  55.184  1.00  0.00    -0.005 A 
HETATM   13  N   UNL     1      29.215  43.556  53.785  1.00  0.00    -0.257 NA
HETATM   14  C   UNL     1      29.902  45.093  55.982  1.00  0.00     0.015 A 
HETATM   15  C   UNL     1      28.067  46.608  55.504  1.00  0.00     0.014 A 
HETATM   16  C   UNL     1      30.644  43.962  55.676  1.00  0.00     0.020 A 
HETATM   17  C   UNL     1      30.263  43.231  54.574  1.00  0.00     0.117 A 
HETATM   18  C   UNL     1      26.982  46.989  54.725  1.00  0.00     0.004 A 
HETATM   19  C   UNL     1      26.635  46.219  53.623  1.00  0.00     0.039 A 
ENDBRANCH   9  10
ENDBRANCH   8   9
ENDBRANCH   7   8
ENDBRANCH   6   7
ENDBRANCH   5   6
ENDBRANCH   2   5
BRANCH   1  20
HETATM   20  C   UNL     1      20.861  47.255  48.676  1.00  0.00     0.120 A 
HETATM   21  N   UNL     1      19.827  46.944  49.513  1.00  0.00    -0.272 N 
HETATM   22  N   UNL     1      19.028  47.979  49.811  1.00  0.00    -0.174 NA
HETATM   23  H   UNL     1      19.621  46.032  49.911  1.00  0.00     0.189 HD
HETATM   24  C   UNL     1      19.531  49.007  49.110  1.00  0.00     0.089 A 
HETATM   25  C   UNL     1      20.696  48.597  48.402  1.00  0.00     0.071 A 
BRANCH  24  26
HETATM   26  C   UNL     1      18.904  50.333  49.123  1.00  0.00    -0.006 A 
HETATM   27  C   UNL     1      19.556  51.431  48.544  1.00  0.00     0.014 A 
HETATM   28  C   UNL     1      18.964  52.697  48.550  1.00  0.00     0.001 A 
HETATM   29  C   UNL     1      17.717  52.880  49.143  1.00  0.00     0.000 A 
HETATM   30  C   UNL     1      17.060  51.801  49.728  1.00  0.00     0.001 A 
HETATM   31  C   UNL     1      17.651  50.533  49.719  1.00  0.00     0.014 A 
ENDBRANCH  24  26
ENDBRANCH   1  20
TORSDOF 8
ENDMDL
