MODEL 1
REMARK VINA RESULT:      -8.0      0.000      0.000
REMARK  4 active torsions:
REMARK  status: ('A' for Active; 'I' for Inactive)
REMARK    1  A    between atoms: C_3  and  N_4 
REMARK    2  A    between atoms: C_5  and  C_6 
REMARK    3  A    between atoms: C_13  and  N_14 
REMARK       I    between atoms: N_14  and  C_15 
REMARK    4  A    between atoms: C_15  and  C_16 
ROOT
HETATM    1  C   UNL     1      24.672  43.922  51.109  1.00  0.00     0.005 A 
HETATM    2  C   UNL     1      24.329  45.215  50.717  1.00  0.00     0.031 A 
HETATM    3  C   UNL     1      25.073  46.310  51.159  1.00  0.00     0.058 A 
HETATM    4  C   UNL     1      26.186  46.093  51.986  1.00  0.00     0.061 A 
HETATM    5  C   UNL     1      26.533  44.803  52.398  1.00  0.00     0.037 A 
HETATM    6  C   UNL     1      25.770  43.719  51.947  1.00  0.00     0.029 A 
ENDROOT
BRANCH   5   7
HETATM    7  N   UNL     1      27.621  44.513  53.242  1.00  0.00    -0.321 N 
HETATM    8  C   UNL     1      27.931  45.080  54.467  1.00  0.00     0.279 C 
HETATM    9  O   UNL     1      27.266  45.932  55.046  1.00  0.00    -0.265 OA
HETATM   10  H   UNL     1      28.255  43.779  52.945  1.00  0.00     0.169 HD
BRANCH   8  11
HETATM   11  C   UNL     1      29.151  44.536  55.038  1.00  0.00     0.142 A 
HETATM   12  O   UNL     1      29.829  45.251  55.994  1.00  0.00    -0.317 OA
HETATM   13  C   UNL     1      30.912  44.515  56.351  1.00  0.00     0.143 A 
HETATM   14  C   UNL     1      30.953  43.338  55.642  1.00  0.00     0.027 A 
HETATM   15  C   UNL     1      29.818  43.350  54.795  1.00  0.00     0.045 A 
ENDBRANCH   8  11
ENDBRANCH   5   7
BRANCH   3  16
HETATM   16  N   UNL     1      24.718  47.591  50.706  1.00  0.00    -0.259 NA
HETATM   17  C   UNL     1      23.886  47.656  49.718  1.00  0.00     0.146 C 
BRANCH  17  18
HETATM   18  C   UNL     1      23.479  48.942  49.223  1.00  0.00     0.049 A 
HETATM   19  N   UNL     1      22.403  49.641  49.722  1.00  0.00    -0.365 N 
HETATM   20  H   UNL     1      21.817  49.300  50.475  1.00  0.00     0.165 HD
HETATM   21  C   UNL     1      22.264  50.828  49.054  1.00  0.00     0.088 A 
HETATM   22  C   UNL     1      23.259  50.897  48.104  1.00  0.00     0.019 A 
HETATM   23  C   UNL     1      24.024  49.709  48.210  1.00  0.00     0.032 A 
ENDBRANCH  17  18
ENDBRANCH   3  16
TORSDOF 4
ENDMDL
MODEL 2
REMARK VINA RESULT:      -8.0      2.421      8.444
REMARK  4 active torsions:
REMARK  status: ('A' for Active; 'I' for Inactive)
REMARK    1  A    between atoms: C_3  and  N_4 
REMARK    2  A    between atoms: C_5  and  C_6 
REMARK    3  A    between atoms: C_13  and  N_14 
REMARK       I    between atoms: N_14  and  C_15 
REMARK    4  A    between atoms: C_15  and  C_16 
ROOT
HETATM    1  C   UNL     1      25.024  43.789  51.372  1.00  0.00     0.005 A 
HETATM    2  C   UNL     1      26.012  43.869  52.353  1.00  0.00     0.031 A 
HETATM    3  C   UNL     1      26.548  45.105  52.718  1.00  0.00     0.058 A 
HETATM    4  C   UNL     1      26.066  46.270  52.102  1.00  0.00     0.061 A 
HETATM    5  C   UNL     1      25.087  46.203  51.106  1.00  0.00     0.037 A 
HETATM    6  C   UNL     1      24.566  44.953  50.752  1.00  0.00     0.029 A 
ENDROOT
BRANCH   5   7
HETATM    7  N   UNL     1      24.573  47.326  50.432  1.00  0.00    -0.321 N 
HETATM    8  C   UNL     1      25.237  48.194  49.582  1.00  0.00     0.279 C 
HETATM    9  O   UNL     1      26.413  48.100  49.244  1.00  0.00    -0.265 OA
HETATM   10  H   UNL     1      23.586  47.526  50.550  1.00  0.00     0.169 HD
BRANCH   8  11
HETATM   11  C   UNL     1      24.376  49.255  49.087  1.00  0.00     0.142 A 
HETATM   12  O   UNL     1      23.300  49.658  49.837  1.00  0.00    -0.317 OA
HETATM   13  C   UNL     1      22.683  50.653  49.149  1.00  0.00     0.143 A 
HETATM   14  C   UNL     1      23.336  50.899  47.964  1.00  0.00     0.027 A 
HETATM   15  C   UNL     1      24.428  49.999  47.923  1.00  0.00     0.045 A 
ENDBRANCH   8  11
ENDBRANCH   5   7
BRANCH   3  16
HETATM   16  N   UNL     1      27.510  45.144  53.740  1.00  0.00    -0.259 NA
HETATM   17  C   UNL     1      28.353  44.164  53.793  1.00  0.00     0.146 C 
BRANCH  17  18
HETATM   18  C   UNL     1      29.366  44.161  54.812  1.00  0.00     0.049 A 
HETATM   19  N   UNL     1      29.543  45.189  55.709  1.00  0.00    -0.365 N 
HETATM   20  H   UNL     1      28.972  46.026  55.718  1.00  0.00     0.165 HD
HETATM   21  C   UNL     1      30.580  44.901  56.555  1.00  0.00     0.088 A 
HETATM   22  C   UNL     1      31.088  43.673  56.197  1.00  0.00     0.019 A 
HETATM   23  C   UNL     1      30.324  43.205  55.099  1.00  0.00     0.032 A 
ENDBRANCH  17  18
ENDBRANCH   3  16
TORSDOF 4
ENDMDL
MODEL 3
REMARK VINA RESULT:      -7.9      1.761      2.184
REMARK  4 active torsions:
REMARK  status: ('A' for Active; 'I' for Inactive)
REMARK    1  A    between atoms: C_3  and  N_4 
REMARK    2  A    between atoms: C_5  and  C_6 
REMARK    3  A    between atoms: C_13  and  N_14 
REMARK       I    between atoms: N_14  and  C_15 
REMARK    4  A    between atoms: C_15  and  C_16 
ROOT
HETATM    1  C   UNL     1      25.186  44.131  52.980  1.00  0.00     0.005 A 
HETATM    2  C   UNL     1      25.016  45.286  52.217  1.00  0.00     0.031 A 
HETATM    3  C   UNL     1      25.902  46.356  52.346  1.00  0.00     0.058 A 
HETATM    4  C   UNL     1      26.980  46.249  53.237  1.00  0.00     0.061 A 
HETATM    5  C   UNL     1      27.154  45.104  54.019  1.00  0.00     0.037 A 
HETATM    6  C   UNL     1      26.250  44.043  53.877  1.00  0.00     0.029 A 
ENDROOT
BRANCH   5   7
HETATM    7  N   UNL     1      28.198  44.936  54.948  1.00  0.00    -0.321 N 
HETATM    8  C   UNL     1      29.359  44.195  54.808  1.00  0.00     0.279 C 
HETATM    9  O   UNL     1      29.689  43.570  53.806  1.00  0.00    -0.265 OA
HETATM   10  H   UNL     1      28.121  45.436  55.827  1.00  0.00     0.169 HD
BRANCH   8  11
HETATM   11  C   UNL     1      30.197  44.245  55.995  1.00  0.00     0.142 A 
HETATM   12  O   UNL     1      29.982  45.223  56.933  1.00  0.00    -0.317 OA
HETATM   13  C   UNL     1      30.890  45.031  57.925  1.00  0.00     0.143 A 
HETATM   14  C   UNL     1      31.692  43.950  57.645  1.00  0.00     0.027 A 
HETATM   15  C   UNL     1      31.246  43.442  56.401  1.00  0.00     0.045 A 
ENDBRANCH   8  11
ENDBRANCH   5   7
BRANCH   3  16
HETATM   16  N   UNL     1      25.719  47.483  51.527  1.00  0.00    -0.259 NA
HETATM   17  C   UNL     1      25.688  47.283  50.250  1.00  0.00     0.146 C 
BRANCH  17  18
HETATM   18  C   UNL     1      25.490  48.400  49.367  1.00  0.00     0.049 A 
HETATM   19  N   UNL     1      26.523  49.085  48.768  1.00  0.00    -0.365 N 
HETATM   20  H   UNL     1      27.499  48.854  48.906  1.00  0.00     0.165 HD
HETATM   21  C   UNL     1      26.025  50.093  47.986  1.00  0.00     0.088 A 
HETATM   22  C   UNL     1      24.652  50.065  48.085  1.00  0.00     0.019 A 
HETATM   23  C   UNL     1      24.314  48.999  48.955  1.00  0.00     0.032 A 
ENDBRANCH  17  18
ENDBRANCH   3  16
TORSDOF 4
ENDMDL
MODEL 4
REMARK VINA RESULT:      -7.8      2.469      4.113
REMARK  4 active torsions:
REMARK  status: ('A' for Active; 'I' for Inactive)
REMARK    1  A    between atoms: C_3  and  N_4 
REMARK    2  A    between atoms: C_5  and  C_6 
REMARK    3  A    between atoms: C_13  and  N_14 
REMARK       I    between atoms: N_14  and  C_15 
REMARK    4  A    between atoms: C_15  and  C_16 
ROOT
HETATM    1  C   UNL     1      26.382  49.417  48.554  1.00  0.00     0.005 A 
HETATM    2  C   UNL     1      25.057  49.799  48.346  1.00  0.00     0.031 A 
HETATM    3  C   UNL     1      24.018  49.139  49.004  1.00  0.00     0.058 A 
HETATM    4  C   UNL     1      24.323  48.100  49.896  1.00  0.00     0.061 A 
HETATM    5  C   UNL     1      25.645  47.697  50.103  1.00  0.00     0.037 A 
HETATM    6  C   UNL     1      26.672  48.369  49.429  1.00  0.00     0.029 A 
ENDROOT
BRANCH   5   7
HETATM    7  N   UNL     1      26.022  46.650  50.965  1.00  0.00    -0.321 N 
HETATM    8  C   UNL     1      25.972  46.618  52.349  1.00  0.00     0.279 C 
HETATM    9  O   UNL     1      25.546  47.517  53.067  1.00  0.00    -0.265 OA
HETATM   10  H   UNL     1      26.350  45.791  50.536  1.00  0.00     0.169 HD
BRANCH   8  11
HETATM   11  C   UNL     1      26.467  45.365  52.894  1.00  0.00     0.142 A 
HETATM   12  O   UNL     1      26.583  44.270  52.075  1.00  0.00    -0.317 OA
HETATM   13  C   UNL     1      27.069  43.254  52.834  1.00  0.00     0.143 A 
HETATM   14  C   UNL     1      27.265  43.668  54.130  1.00  0.00     0.027 A 
HETATM   15  C   UNL     1      26.878  45.030  54.170  1.00  0.00     0.045 A 
ENDBRANCH   8  11
ENDBRANCH   5   7
BRANCH   3  16
HETATM   16  N   UNL     1      22.702  49.584  48.797  1.00  0.00    -0.259 NA
HETATM   17  C   UNL     1      22.250  50.482  49.612  1.00  0.00     0.146 C 
BRANCH  17  18
HETATM   18  C   UNL     1      20.914  50.982  49.438  1.00  0.00     0.049 A 
HETATM   19  N   UNL     1      19.894  50.749  50.333  1.00  0.00    -0.365 N 
HETATM   20  H   UNL     1      20.009  50.206  51.180  1.00  0.00     0.165 HD
HETATM   21  C   UNL     1      18.743  51.350  49.899  1.00  0.00     0.088 A 
HETATM   22  C   UNL     1      19.018  51.975  48.703  1.00  0.00     0.019 A 
HETATM   23  C   UNL     1      20.386  51.743  48.412  1.00  0.00     0.032 A 
ENDBRANCH  17  18
ENDBRANCH   3  16
TORSDOF 4
ENDMDL
MODEL 5
REMARK VINA RESULT:      -7.8      2.565      8.227
REMARK  4 active torsions:
REMARK  status: ('A' for Active; 'I' for Inactive)
REMARK    1  A    between atoms: C_3  and  N_4 
REMARK    2  A    between atoms: C_5  and  C_6 
REMARK    3  A    between atoms: C_13  and  N_14 
REMARK       I    between atoms: N_14  and  C_15 
REMARK    4  A    between atoms: C_15  and  C_16 
ROOT
HETATM    1  C   UNL     1      26.105  42.585  51.110  1.00  0.00     0.005 A 
HETATM    2  C   UNL     1      27.049  42.418  52.123  1.00  0.00     0.031 A 
HETATM    3  C   UNL     1      27.854  43.485  52.523  1.00  0.00     0.058 A 
HETATM    4  C   UNL     1      27.688  44.735  51.909  1.00  0.00     0.061 A 
HETATM    5  C   UNL     1      26.757  44.914  50.882  1.00  0.00     0.037 A 
HETATM    6  C   UNL     1      25.962  43.829  50.493  1.00  0.00     0.029 A 
ENDROOT
BRANCH   5   7
HETATM    7  N   UNL     1      26.552  46.132  50.209  1.00  0.00    -0.321 N 
HETATM    8  C   UNL     1      25.885  47.259  50.658  1.00  0.00     0.279 C 
HETATM    9  O   UNL     1      25.376  47.391  51.766  1.00  0.00    -0.265 OA
HETATM   10  H   UNL     1      26.961  46.226  49.285  1.00  0.00     0.169 HD
BRANCH   8  11
HETATM   11  C   UNL     1      25.862  48.323  49.669  1.00  0.00     0.142 A 
HETATM   12  O   UNL     1      24.666  48.906  49.331  1.00  0.00    -0.317 OA
HETATM   13  C   UNL     1      24.936  49.861  48.402  1.00  0.00     0.143 A 
HETATM   14  C   UNL     1      26.282  49.903  48.129  1.00  0.00     0.027 A 
HETATM   15  C   UNL     1      26.881  48.913  48.945  1.00  0.00     0.045 A 
ENDBRANCH   8  11
ENDBRANCH   5   7
BRANCH   3  16
HETATM   16  N   UNL     1      28.762  43.284  53.575  1.00  0.00    -0.259 NA
HETATM   17  C   UNL     1      29.010  44.297  54.340  1.00  0.00     0.146 C 
BRANCH  17  18
HETATM   18  C   UNL     1      29.922  44.142  55.440  1.00  0.00     0.049 A 
HETATM   19  N   UNL     1      30.084  45.085  56.430  1.00  0.00    -0.365 N 
HETATM   20  H   UNL     1      29.573  45.959  56.455  1.00  0.00     0.165 HD
HETATM   21  C   UNL     1      31.016  44.658  57.336  1.00  0.00     0.088 A 
HETATM   22  C   UNL     1      31.471  43.425  56.925  1.00  0.00     0.019 A 
HETATM   23  C   UNL     1      30.782  43.099  55.731  1.00  0.00     0.032 A 
ENDBRANCH  17  18
ENDBRANCH   3  16
TORSDOF 4
ENDMDL
MODEL 6
REMARK VINA RESULT:      -7.6      3.698      9.231
REMARK  4 active torsions:
REMARK  status: ('A' for Active; 'I' for Inactive)
REMARK    1  A    between atoms: C_3  and  N_4 
REMARK    2  A    between atoms: C_5  and  C_6 
REMARK    3  A    between atoms: C_13  and  N_14 
REMARK       I    between atoms: N_14  and  C_15 
REMARK    4  A    between atoms: C_15  and  C_16 
ROOT
HETATM    1  C   UNL     1      26.817  49.611  48.469  1.00  0.00     0.005 A 
HETATM    2  C   UNL     1      27.050  48.515  49.299  1.00  0.00     0.031 A 
HETATM    3  C   UNL     1      25.982  47.809  49.856  1.00  0.00     0.058 A 
HETATM    4  C   UNL     1      24.670  48.202  49.553  1.00  0.00     0.061 A 
HETATM    5  C   UNL     1      24.422  49.308  48.735  1.00  0.00     0.037 A 
HETATM    6  C   UNL     1      25.508  50.005  48.190  1.00  0.00     0.029 A 
ENDROOT
BRANCH   5   7
HETATM    7  N   UNL     1      23.134  49.771  48.407  1.00  0.00    -0.321 N 
HETATM    8  C   UNL     1      22.274  50.534  49.179  1.00  0.00     0.279 C 
HETATM    9  O   UNL     1      22.520  50.970  50.299  1.00  0.00    -0.265 OA
HETATM   10  H   UNL     1      22.784  49.551  47.481  1.00  0.00     0.169 HD
BRANCH   8  11
HETATM   11  C   UNL     1      21.014  50.803  48.508  1.00  0.00     0.142 A 
HETATM   12  O   UNL     1      20.634  50.023  47.444  1.00  0.00    -0.317 OA
HETATM   13  C   UNL     1      19.430  50.485  47.019  1.00  0.00     0.143 A 
HETATM   14  C   UNL     1      19.025  51.554  47.783  1.00  0.00     0.027 A 
HETATM   15  C   UNL     1      20.045  51.760  48.744  1.00  0.00     0.045 A 
ENDBRANCH   8  11
ENDBRANCH   5   7
BRANCH   3  16
HETATM   16  N   UNL     1      26.261  46.686  50.651  1.00  0.00    -0.259 NA
HETATM   17  C   UNL     1      25.932  46.753  51.900  1.00  0.00     0.146 C 
BRANCH  17  18
HETATM   18  C   UNL     1      26.183  45.626  52.756  1.00  0.00     0.049 A 
HETATM   19  N   UNL     1      25.440  45.347  53.880  1.00  0.00    -0.365 N 
HETATM   20  H   UNL     1      24.661  45.917  54.189  1.00  0.00     0.165 HD
HETATM   21  C   UNL     1      25.914  44.216  54.487  1.00  0.00     0.088 A 
HETATM   22  C   UNL     1      26.984  43.759  53.751  1.00  0.00     0.019 A 
HETATM   23  C   UNL     1      27.154  44.647  52.660  1.00  0.00     0.032 A 
ENDBRANCH  17  18
ENDBRANCH   3  16
TORSDOF 4
ENDMDL
MODEL 7
REMARK VINA RESULT:      -7.3      2.901      8.490
REMARK  4 active torsions:
REMARK  status: ('A' for Active; 'I' for Inactive)
REMARK    1  A    between atoms: C_3  and  N_4 
REMARK    2  A    between atoms: C_5  and  C_6 
REMARK    3  A    between atoms: C_13  and  N_14 
REMARK       I    between atoms: N_14  and  C_15 
REMARK    4  A    between atoms: C_15  and  C_16 
ROOT
HETATM    1  C   UNL     1      27.856  41.216  51.466  1.00  0.00     0.005 A 
HETATM    2  C   UNL     1      28.631  41.391  52.613  1.00  0.00     0.031 A 
HETATM    3  C   UNL     1      28.652  42.621  53.271  1.00  0.00     0.058 A 
HETATM    4  C   UNL     1      27.868  43.675  52.780  1.00  0.00     0.061 A 
HETATM    5  C   UNL     1      27.099  43.519  51.623  1.00  0.00     0.037 A 
HETATM    6  C   UNL     1      27.095  42.277  50.975  1.00  0.00     0.029 A 
ENDROOT
BRANCH   5   7
HETATM    7  N   UNL     1      26.306  44.537  51.062  1.00  0.00    -0.321 N 
HETATM    8  C   UNL     1      24.974  44.822  51.310  1.00  0.00     0.279 C 
HETATM    9  O   UNL     1      24.256  44.231  52.110  1.00  0.00    -0.265 OA
HETATM   10  H   UNL     1      26.757  45.170  50.411  1.00  0.00     0.169 HD
BRANCH   8  11
HETATM   11  C   UNL     1      24.489  45.944  50.524  1.00  0.00     0.142 A 
HETATM   12  O   UNL     1      23.550  45.729  49.546  1.00  0.00    -0.317 OA
HETATM   13  C   UNL     1      23.278  46.934  48.982  1.00  0.00     0.143 A 
HETATM   14  C   UNL     1      24.026  47.925  49.572  1.00  0.00     0.027 A 
HETATM   15  C   UNL     1      24.808  47.288  50.567  1.00  0.00     0.045 A 
ENDBRANCH   8  11
ENDBRANCH   5   7
BRANCH   3  16
HETATM   16  N   UNL     1      29.413  42.740  54.446  1.00  0.00    -0.259 NA
HETATM   17  C   UNL     1      29.636  43.937  54.883  1.00  0.00     0.146 C 
BRANCH  17  18
HETATM   18  C   UNL     1      30.398  44.116  56.089  1.00  0.00     0.049 A 
HETATM   19  N   UNL     1      30.210  45.168  56.956  1.00  0.00    -0.365 N 
HETATM   20  H   UNL     1      29.522  45.897  56.808  1.00  0.00     0.165 HD
HETATM   21  C   UNL     1      31.079  45.069  58.009  1.00  0.00     0.088 A 
HETATM   22  C   UNL     1      31.845  43.940  57.819  1.00  0.00     0.019 A 
HETATM   23  C   UNL     1      31.416  43.339  56.610  1.00  0.00     0.032 A 
ENDBRANCH  17  18
ENDBRANCH   3  16
TORSDOF 4
ENDMDL
MODEL 8
REMARK VINA RESULT:      -7.1      3.872      8.380
REMARK  4 active torsions:
REMARK  status: ('A' for Active; 'I' for Inactive)
REMARK    1  A    between atoms: C_3  and  N_4 
REMARK    2  A    between atoms: C_5  and  C_6 
REMARK    3  A    between atoms: C_13  and  N_14 
REMARK       I    between atoms: N_14  and  C_15 
REMARK    4  A    between atoms: C_15  and  C_16 
ROOT
HETATM    1  C   UNL     1      26.641  44.506  54.256  1.00  0.00     0.005 A 
HETATM    2  C   UNL     1      26.874  43.209  53.801  1.00  0.00     0.031 A 
HETATM    3  C   UNL     1      26.992  42.950  52.435  1.00  0.00     0.058 A 
HETATM    4  C   UNL     1      26.896  44.013  51.525  1.00  0.00     0.061 A 
HETATM    5  C   UNL     1      26.647  45.316  51.967  1.00  0.00     0.037 A 
HETATM    6  C   UNL     1      26.528  45.554  53.341  1.00  0.00     0.029 A 
ENDROOT
BRANCH   5   7
HETATM    7  N   UNL     1      26.518  46.425  51.111  1.00  0.00    -0.321 N 
HETATM    8  C   UNL     1      25.407  46.826  50.387  1.00  0.00     0.279 C 
HETATM    9  O   UNL     1      24.312  46.275  50.402  1.00  0.00    -0.265 OA
HETATM   10  H   UNL     1      27.322  47.038  51.020  1.00  0.00     0.169 HD
BRANCH   8  11
HETATM   11  C   UNL     1      25.660  48.017  49.595  1.00  0.00     0.142 A 
HETATM   12  O   UNL     1      24.601  48.739  49.102  1.00  0.00    -0.317 OA
HETATM   13  C   UNL     1      25.120  49.790  48.415  1.00  0.00     0.143 A 
HETATM   14  C   UNL     1      26.493  49.760  48.449  1.00  0.00     0.027 A 
HETATM   15  C   UNL     1      26.844  48.618  49.210  1.00  0.00     0.045 A 
ENDBRANCH   8  11
ENDBRANCH   5   7
BRANCH   3  16
HETATM   16  N   UNL     1      27.268  41.636  52.022  1.00  0.00    -0.259 NA
HETATM   17  C   UNL     1      28.224  41.478  51.165  1.00  0.00     0.146 C 
BRANCH  17  18
HETATM   18  C   UNL     1      28.557  40.153  50.718  1.00  0.00     0.049 A 
HETATM   19  N   UNL     1      29.392  39.306  51.411  1.00  0.00    -0.365 N 
HETATM   20  H   UNL     1      29.836  39.555  52.287  1.00  0.00     0.165 HD
HETATM   21  C   UNL     1      29.518  38.119  50.741  1.00  0.00     0.088 A 
HETATM   22  C   UNL     1      28.760  38.199  49.595  1.00  0.00     0.019 A 
HETATM   23  C   UNL     1      28.154  39.480  49.580  1.00  0.00     0.032 A 
ENDBRANCH  17  18
ENDBRANCH   3  16
TORSDOF 4
ENDMDL
MODEL 9
REMARK VINA RESULT:      -7.1      4.201      6.954
REMARK  4 active torsions:
REMARK  status: ('A' for Active; 'I' for Inactive)
REMARK    1  A    between atoms: C_3  and  N_4 
REMARK    2  A    between atoms: C_5  and  C_6 
REMARK    3  A    between atoms: C_13  and  N_14 
REMARK       I    between atoms: N_14  and  C_15 
REMARK    4  A    between atoms: C_15  and  C_16 
ROOT
HETATM    1  C   UNL     1      26.170  44.807  51.738  1.00  0.00     0.005 A 
HETATM    2  C   UNL     1      26.227  43.660  50.948  1.00  0.00     0.031 A 
HETATM    3  C   UNL     1      27.108  42.625  51.267  1.00  0.00     0.058 A 
HETATM    4  C   UNL     1      27.920  42.743  52.405  1.00  0.00     0.061 A 
HETATM    5  C   UNL     1      27.883  43.894  53.197  1.00  0.00     0.037 A 
HETATM    6  C   UNL     1      26.996  44.922  52.857  1.00  0.00     0.029 A 
ENDROOT
BRANCH   5   7
HETATM    7  N   UNL     1      28.683  44.088  54.338  1.00  0.00    -0.321 N 
HETATM    8  C   UNL     1      29.962  43.617  54.580  1.00  0.00     0.279 C 
HETATM    9  O   UNL     1      30.638  42.957  53.797  1.00  0.00    -0.265 OA
HETATM   10  H   UNL     1      28.301  44.668  55.078  1.00  0.00     0.169 HD
BRANCH   8  11
HETATM   11  C   UNL     1      30.461  44.009  55.888  1.00  0.00     0.142 A 
HETATM   12  O   UNL     1      30.012  45.171  56.463  1.00  0.00    -0.317 OA
HETATM   13  C   UNL     1      30.629  45.286  57.667  1.00  0.00     0.143 A 
HETATM   14  C   UNL     1      31.474  44.223  57.881  1.00  0.00     0.027 A 
HETATM   15  C   UNL     1      31.367  43.398  56.734  1.00  0.00     0.045 A 
ENDBRANCH   8  11
ENDBRANCH   5   7
BRANCH   3  16
HETATM   16  N   UNL     1      27.103  41.469  50.469  1.00  0.00    -0.259 NA
HETATM   17  C   UNL     1      28.103  40.659  50.600  1.00  0.00     0.146 C 
BRANCH  17  18
HETATM   18  C   UNL     1      28.141  39.455  49.816  1.00  0.00     0.049 A 
HETATM   19  N   UNL     1      27.257  38.414  49.983  1.00  0.00    -0.365 N 
HETATM   20  H   UNL     1      26.515  38.417  50.672  1.00  0.00     0.165 HD
HETATM   21  C   UNL     1      27.542  37.411  49.096  1.00  0.00     0.088 A 
HETATM   22  C   UNL     1      28.630  37.804  48.348  1.00  0.00     0.019 A 
HETATM   23  C   UNL     1      29.008  39.092  48.802  1.00  0.00     0.032 A 
ENDBRANCH  17  18
ENDBRANCH   3  16
TORSDOF 4
ENDMDL
MODEL 10
REMARK VINA RESULT:      -7.0      1.699      2.078
REMARK  4 active torsions:
REMARK  status: ('A' for Active; 'I' for Inactive)
REMARK    1  A    between atoms: C_3  and  N_4 
REMARK    2  A    between atoms: C_5  and  C_6 
REMARK    3  A    between atoms: C_13  and  N_14 
REMARK       I    between atoms: N_14  and  C_15 
REMARK    4  A    between atoms: C_15  and  C_16 
ROOT
HETATM    1  C   UNL     1      24.179  44.198  48.801  1.00  0.00     0.005 A 
HETATM    2  C   UNL     1      23.658  45.491  48.833  1.00  0.00     0.031 A 
HETATM    3  C   UNL     1      24.196  46.450  49.692  1.00  0.00     0.058 A 
HETATM    4  C   UNL     1      25.284  46.105  50.508  1.00  0.00     0.061 A 
HETATM    5  C   UNL     1      25.806  44.808  50.498  1.00  0.00     0.037 A 
HETATM    6  C   UNL     1      25.248  43.860  49.632  1.00  0.00     0.029 A 
ENDROOT
BRANCH   5   7
HETATM    7  N   UNL     1      26.879  44.386  51.304  1.00  0.00    -0.321 N 
HETATM    8  C   UNL     1      26.867  44.068  52.652  1.00  0.00     0.279 C 
HETATM    9  O   UNL     1      25.877  44.073  53.375  1.00  0.00    -0.265 OA
HETATM   10  H   UNL     1      27.780  44.268  50.852  1.00  0.00     0.169 HD
BRANCH   8  11
HETATM   11  C   UNL     1      28.180  43.690  53.146  1.00  0.00     0.142 A 
HETATM   12  O   UNL     1      28.532  43.997  54.436  1.00  0.00    -0.317 OA
HETATM   13  C   UNL     1      29.791  43.528  54.630  1.00  0.00     0.143 A 
HETATM   14  C   UNL     1      30.265  42.927  53.488  1.00  0.00     0.027 A 
HETATM   15  C   UNL     1      29.227  43.030  52.530  1.00  0.00     0.045 A 
ENDBRANCH   8  11
ENDBRANCH   5   7
BRANCH   3  16
HETATM   16  N   UNL     1      23.669  47.752  49.660  1.00  0.00    -0.259 NA
HETATM   17  C   UNL     1      22.516  47.906  49.094  1.00  0.00     0.146 C 
BRANCH  17  18
HETATM   18  C   UNL     1      21.925  49.215  49.046  1.00  0.00     0.049 A 
HETATM   19  N   UNL     1      21.045  49.685  49.994  1.00  0.00    -0.365 N 
HETATM   20  H   UNL     1      20.746  49.142  50.795  1.00  0.00     0.165 HD
HETATM   21  C   UNL     1      20.655  50.959  49.681  1.00  0.00     0.088 A 
HETATM   22  C   UNL     1      21.286  51.319  48.511  1.00  0.00     0.019 A 
HETATM   23  C   UNL     1      22.087  50.220  48.111  1.00  0.00     0.032 A 
ENDBRANCH  17  18
ENDBRANCH   3  16
TORSDOF 4
ENDMDL
