MODEL 1
REMARK VINA RESULT:      -9.0      0.000      0.000
REMARK  4 active torsions:
REMARK  status: ('A' for Active; 'I' for Inactive)
REMARK    1  A    between atoms: C_3  and  C_4 
REMARK    2  A    between atoms: C_15  and  C_16 
REMARK       I    between atoms: C_16  and  N_17 
REMARK    3  A    between atoms: N_17  and  C_18 
REMARK    4  A    between atoms: C_18  and  C_19 
ROOT
HETATM    1  C   UNL     1      28.988  40.938  53.151  1.00  0.00     0.055 C 
HETATM    2  C   UNL     1      28.492  42.350  53.247  1.00  0.00     0.024 A 
HETATM    3  C   UNL     1      27.624  42.966  52.424  1.00  0.00     0.096 A 
HETATM    4  O   UNL     1      27.152  44.256  52.584  1.00  0.00    -0.307 OA
HETATM    5  C   UNL     1      27.618  45.026  53.619  1.00  0.00     0.106 A 
HETATM    6  C   UNL     1      28.562  44.528  54.520  1.00  0.00     0.050 A 
HETATM    7  C   UNL     1      29.026  43.139  54.385  1.00  0.00     0.193 A 
HETATM    8  O   UNL     1      29.827  42.660  55.180  1.00  0.00    -0.287 OA
HETATM    9  C   UNL     1      27.146  46.341  53.766  1.00  0.00     0.066 A 
HETATM   10  C   UNL     1      27.670  47.138  54.803  1.00  0.00     0.020 A 
HETATM   11  C   UNL     1      28.625  46.638  55.688  1.00  0.00     0.002 A 
HETATM   12  C   UNL     1      29.067  45.327  55.552  1.00  0.00     0.018 A 
ENDROOT
BRANCH   9  13
HETATM   13  C   UNL     1      26.088  46.974  52.915  1.00  0.00     0.255 C 
HETATM   14  N   UNL     1      26.020  46.613  51.590  1.00  0.00    -0.349 N 
HETATM   15  H   UNL     1      26.727  46.004  51.197  1.00  0.00     0.163 HD
HETATM   16  O   UNL     1      25.291  47.763  53.416  1.00  0.00    -0.268 OA
BRANCH  14  17
HETATM   17  C   UNL     1      24.989  47.116  50.699  1.00  0.00     0.114 C 
HETATM   18  C   UNL     1      25.587  48.031  49.627  1.00  0.00     0.037 C 
BRANCH  17  19
HETATM   19  C   UNL     1      24.199  45.941  50.152  1.00  0.00    -0.033 A 
HETATM   20  C   UNL     1      24.201  44.677  50.749  1.00  0.00     0.028 A 
HETATM   21  C   UNL     1      23.420  43.673  50.194  1.00  0.00     0.116 A 
HETATM   22  N   UNL     1      22.630  43.842  49.114  1.00  0.00    -0.273 NA
HETATM   23  C   UNL     1      22.628  45.069  48.556  1.00  0.00     0.116 A 
HETATM   24  C   UNL     1      23.379  46.133  49.033  1.00  0.00     0.028 A 
ENDBRANCH  17  19
ENDBRANCH  14  17
ENDBRANCH   9  13
BRANCH   3  25
HETATM   25  C   UNL     1      27.071  42.314  51.229  1.00  0.00    -0.002 A 
HETATM   26  C   UNL     1      26.382  41.101  51.337  1.00  0.00     0.014 A 
HETATM   27  C   UNL     1      25.872  40.479  50.197  1.00  0.00     0.001 A 
HETATM   28  C   UNL     1      26.034  41.069  48.944  1.00  0.00     0.000 A 
HETATM   29  C   UNL     1      26.707  42.284  48.829  1.00  0.00     0.001 A 
HETATM   30  C   UNL     1      27.222  42.906  49.967  1.00  0.00     0.014 A 
ENDBRANCH   3  25
TORSDOF 4
ENDMDL
MODEL 2
REMARK VINA RESULT:      -8.7      2.124      5.042
REMARK  4 active torsions:
REMARK  status: ('A' for Active; 'I' for Inactive)
REMARK    1  A    between atoms: C_3  and  C_4 
REMARK    2  A    between atoms: C_15  and  C_16 
REMARK       I    between atoms: C_16  and  N_17 
REMARK    3  A    between atoms: N_17  and  C_18 
REMARK    4  A    between atoms: C_18  and  C_19 
ROOT
HETATM    1  C   UNL     1      28.806  40.583  52.986  1.00  0.00     0.055 C 
HETATM    2  C   UNL     1      28.003  41.665  52.327  1.00  0.00     0.024 A 
HETATM    3  C   UNL     1      27.995  42.974  52.634  1.00  0.00     0.096 A 
HETATM    4  O   UNL     1      27.278  43.947  51.962  1.00  0.00    -0.307 OA
HETATM    5  C   UNL     1      26.454  43.588  50.926  1.00  0.00     0.106 A 
HETATM    6  C   UNL     1      26.327  42.253  50.534  1.00  0.00     0.050 A 
HETATM    7  C   UNL     1      27.130  41.223  51.212  1.00  0.00     0.193 A 
HETATM    8  O   UNL     1      27.069  40.048  50.869  1.00  0.00    -0.287 OA
HETATM    9  C   UNL     1      25.715  44.578  50.257  1.00  0.00     0.066 A 
HETATM   10  C   UNL     1      24.835  44.191  49.228  1.00  0.00     0.020 A 
HETATM   11  C   UNL     1      24.702  42.854  48.855  1.00  0.00     0.002 A 
HETATM   12  C   UNL     1      25.456  41.882  49.503  1.00  0.00     0.018 A 
ENDROOT
BRANCH   9  13
HETATM   13  C   UNL     1      25.808  46.049  50.530  1.00  0.00     0.255 C 
HETATM   14  N   UNL     1      26.253  46.869  49.520  1.00  0.00    -0.349 N 
HETATM   15  H   UNL     1      26.587  46.465  48.654  1.00  0.00     0.163 HD
HETATM   16  O   UNL     1      25.457  46.491  51.620  1.00  0.00    -0.268 OA
BRANCH  14  17
HETATM   17  C   UNL     1      26.313  48.314  49.660  1.00  0.00     0.114 C 
HETATM   18  C   UNL     1      27.662  48.857  49.182  1.00  0.00     0.037 C 
BRANCH  17  19
HETATM   19  C   UNL     1      25.109  48.923  48.966  1.00  0.00    -0.033 A 
HETATM   20  C   UNL     1      25.186  50.073  48.175  1.00  0.00     0.028 A 
HETATM   21  C   UNL     1      24.035  50.536  47.554  1.00  0.00     0.116 A 
HETATM   22  N   UNL     1      22.832  49.932  47.644  1.00  0.00    -0.273 NA
HETATM   23  C   UNL     1      22.776  48.816  48.400  1.00  0.00     0.116 A 
HETATM   24  C   UNL     1      23.868  48.280  49.065  1.00  0.00     0.028 A 
ENDBRANCH  17  19
ENDBRANCH  14  17
ENDBRANCH   9  13
BRANCH   3  25
HETATM   25  C   UNL     1      28.769  43.527  53.755  1.00  0.00    -0.002 A 
HETATM   26  C   UNL     1      28.309  44.653  54.447  1.00  0.00     0.014 A 
HETATM   27  C   UNL     1      29.056  45.182  55.501  1.00  0.00     0.001 A 
HETATM   28  C   UNL     1      30.258  44.585  55.879  1.00  0.00     0.000 A 
HETATM   29  C   UNL     1      30.716  43.455  55.203  1.00  0.00     0.001 A 
HETATM   30  C   UNL     1      29.974  42.926  54.146  1.00  0.00     0.014 A 
ENDBRANCH   3  25
TORSDOF 4
ENDMDL
MODEL 3
REMARK VINA RESULT:      -8.2      2.804      7.702
REMARK  4 active torsions:
REMARK  status: ('A' for Active; 'I' for Inactive)
REMARK    1  A    between atoms: C_3  and  C_4 
REMARK    2  A    between atoms: C_15  and  C_16 
REMARK       I    between atoms: C_16  and  N_17 
REMARK    3  A    between atoms: N_17  and  C_18 
REMARK    4  A    between atoms: C_18  and  C_19 
ROOT
HETATM    1  C   UNL     1      20.710  46.519  47.558  1.00  0.00     0.055 C 
HETATM    2  C   UNL     1      21.869  46.210  48.458  1.00  0.00     0.024 A 
HETATM    3  C   UNL     1      22.718  47.087  49.023  1.00  0.00     0.096 A 
HETATM    4  O   UNL     1      23.742  46.760  49.892  1.00  0.00    -0.307 OA
HETATM    5  C   UNL     1      23.985  45.443  50.190  1.00  0.00     0.106 A 
HETATM    6  C   UNL     1      23.211  44.423  49.632  1.00  0.00     0.050 A 
HETATM    7  C   UNL     1      22.087  44.772  48.749  1.00  0.00     0.193 A 
HETATM    8  O   UNL     1      21.366  43.902  48.271  1.00  0.00    -0.287 OA
HETATM    9  C   UNL     1      25.037  45.116  51.062  1.00  0.00     0.066 A 
HETATM   10  C   UNL     1      25.307  43.758  51.320  1.00  0.00     0.020 A 
HETATM   11  C   UNL     1      24.540  42.745  50.744  1.00  0.00     0.002 A 
HETATM   12  C   UNL     1      23.483  43.078  49.904  1.00  0.00     0.018 A 
ENDROOT
BRANCH   9  13
HETATM   13  C   UNL     1      25.897  46.110  51.780  1.00  0.00     0.255 C 
HETATM   14  N   UNL     1      26.072  45.957  53.135  1.00  0.00    -0.349 N 
HETATM   15  H   UNL     1      25.557  45.241  53.631  1.00  0.00     0.163 HD
HETATM   16  O   UNL     1      26.450  47.008  51.150  1.00  0.00    -0.268 OA
BRANCH  14  17
HETATM   17  C   UNL     1      26.941  46.825  53.910  1.00  0.00     0.114 C 
HETATM   18  C   UNL     1      26.137  47.653  54.916  1.00  0.00     0.037 C 
BRANCH  17  19
HETATM   19  C   UNL     1      28.046  45.987  54.527  1.00  0.00    -0.033 A 
HETATM   20  C   UNL     1      28.851  46.440  55.576  1.00  0.00     0.028 A 
HETATM   21  C   UNL     1      29.815  45.587  56.096  1.00  0.00     0.116 A 
HETATM   22  N   UNL     1      30.016  44.324  55.667  1.00  0.00    -0.273 NA
HETATM   23  C   UNL     1      29.224  43.897  54.664  1.00  0.00     0.116 A 
HETATM   24  C   UNL     1      28.239  44.675  54.074  1.00  0.00     0.028 A 
ENDBRANCH  17  19
ENDBRANCH  14  17
ENDBRANCH   9  13
BRANCH   3  25
HETATM   25  C   UNL     1      22.646  48.533  48.766  1.00  0.00    -0.002 A 
HETATM   26  C   UNL     1      21.513  49.264  49.138  1.00  0.00     0.014 A 
HETATM   27  C   UNL     1      21.445  50.634  48.878  1.00  0.00     0.001 A 
HETATM   28  C   UNL     1      22.510  51.284  48.257  1.00  0.00     0.000 A 
HETATM   29  C   UNL     1      23.648  50.565  47.895  1.00  0.00     0.001 A 
HETATM   30  C   UNL     1      23.718  49.195  48.149  1.00  0.00     0.014 A 
ENDBRANCH   3  25
TORSDOF 4
ENDMDL
MODEL 4
REMARK VINA RESULT:      -8.0      3.442      8.295
REMARK  4 active torsions:
REMARK  status: ('A' for Active; 'I' for Inactive)
REMARK    1  A    between atoms: C_3  and  C_4 
REMARK    2  A    between atoms: C_15  and  C_16 
REMARK       I    between atoms: C_16  and  N_17 
REMARK    3  A    between atoms: N_17  and  C_18 
REMARK    4  A    between atoms: C_18  and  C_19 
ROOT
HETATM    1  C   UNL     1      22.951  51.263  48.754  1.00  0.00     0.055 C 
HETATM    2  C   UNL     1      22.515  49.830  48.692  1.00  0.00     0.024 A 
HETATM    3  C   UNL     1      23.292  48.737  48.800  1.00  0.00     0.096 A 
HETATM    4  O   UNL     1      22.838  47.431  48.791  1.00  0.00    -0.307 OA
HETATM    5  C   UNL     1      21.502  47.178  48.606  1.00  0.00     0.106 A 
HETATM    6  C   UNL     1      20.589  48.220  48.429  1.00  0.00     0.050 A 
HETATM    7  C   UNL     1      21.061  49.612  48.492  1.00  0.00     0.193 A 
HETATM    8  O   UNL     1      20.280  50.550  48.376  1.00  0.00    -0.287 OA
HETATM    9  C   UNL     1      21.049  45.849  48.582  1.00  0.00     0.066 A 
HETATM   10  C   UNL     1      19.684  45.601  48.341  1.00  0.00     0.020 A 
HETATM   11  C   UNL     1      18.782  46.647  48.148  1.00  0.00     0.002 A 
HETATM   12  C   UNL     1      19.233  47.961  48.200  1.00  0.00     0.018 A 
ENDROOT
BRANCH   9  13
HETATM   13  C   UNL     1      21.908  44.645  48.825  1.00  0.00     0.255 C 
HETATM   14  N   UNL     1      23.068  44.811  49.544  1.00  0.00    -0.349 N 
HETATM   15  H   UNL     1      23.363  45.740  49.817  1.00  0.00     0.163 HD
HETATM   16  O   UNL     1      21.547  43.545  48.416  1.00  0.00    -0.268 OA
BRANCH  14  17
HETATM   17  C   UNL     1      23.933  43.697  49.893  1.00  0.00     0.114 C 
HETATM   18  C   UNL     1      24.510  43.034  48.639  1.00  0.00     0.037 C 
BRANCH  17  19
HETATM   19  C   UNL     1      24.975  44.178  50.885  1.00  0.00    -0.033 A 
HETATM   20  C   UNL     1      26.321  43.806  50.819  1.00  0.00     0.028 A 
HETATM   21  C   UNL     1      27.206  44.324  51.753  1.00  0.00     0.116 A 
HETATM   22  N   UNL     1      26.856  45.194  52.723  1.00  0.00    -0.273 NA
HETATM   23  C   UNL     1      25.557  45.555  52.767  1.00  0.00     0.116 A 
HETATM   24  C   UNL     1      24.597  45.086  51.884  1.00  0.00     0.028 A 
ENDBRANCH  17  19
ENDBRANCH  14  17
ENDBRANCH   9  13
BRANCH   3  25
HETATM   25  C   UNL     1      24.753  48.818  48.940  1.00  0.00    -0.002 A 
HETATM   26  C   UNL     1      25.476  49.809  48.266  1.00  0.00     0.014 A 
HETATM   27  C   UNL     1      26.865  49.872  48.391  1.00  0.00     0.001 A 
HETATM   28  C   UNL     1      27.539  48.956  49.199  1.00  0.00     0.000 A 
HETATM   29  C   UNL     1      26.825  47.976  49.884  1.00  0.00     0.001 A 
HETATM   30  C   UNL     1      25.436  47.907  49.758  1.00  0.00     0.014 A 
ENDBRANCH   3  25
TORSDOF 4
ENDMDL
MODEL 5
REMARK VINA RESULT:      -8.0      2.614      5.341
REMARK  4 active torsions:
REMARK  status: ('A' for Active; 'I' for Inactive)
REMARK    1  A    between atoms: C_3  and  C_4 
REMARK    2  A    between atoms: C_15  and  C_16 
REMARK       I    between atoms: C_16  and  N_17 
REMARK    3  A    between atoms: N_17  and  C_18 
REMARK    4  A    between atoms: C_18  and  C_19 
ROOT
HETATM    1  C   UNL     1      27.899  42.002  53.248  1.00  0.00     0.055 C 
HETATM    2  C   UNL     1      27.065  42.959  52.450  1.00  0.00     0.024 A 
HETATM    3  C   UNL     1      26.927  44.282  52.650  1.00  0.00     0.096 A 
HETATM    4  O   UNL     1      26.188  45.136  51.853  1.00  0.00    -0.307 OA
HETATM    5  C   UNL     1      25.478  44.632  50.793  1.00  0.00     0.106 A 
HETATM    6  C   UNL     1      25.491  43.267  50.501  1.00  0.00     0.050 A 
HETATM    7  C   UNL     1      26.319  42.362  51.315  1.00  0.00     0.193 A 
HETATM    8  O   UNL     1      26.380  41.164  51.062  1.00  0.00    -0.287 OA
HETATM    9  C   UNL     1      24.716  45.503  49.997  1.00  0.00     0.066 A 
HETATM   10  C   UNL     1      23.952  44.966  48.942  1.00  0.00     0.020 A 
HETATM   11  C   UNL     1      23.958  43.599  48.669  1.00  0.00     0.002 A 
HETATM   12  C   UNL     1      24.735  42.747  49.444  1.00  0.00     0.018 A 
ENDROOT
BRANCH   9  13
HETATM   13  C   UNL     1      24.668  46.993  50.157  1.00  0.00     0.255 C 
HETATM   14  N   UNL     1      24.208  47.744  49.102  1.00  0.00    -0.349 N 
HETATM   15  H   UNL     1      23.995  47.296  48.220  1.00  0.00     0.163 HD
HETATM   16  O   UNL     1      25.002  47.503  51.223  1.00  0.00    -0.268 OA
BRANCH  14  17
HETATM   17  C   UNL     1      24.057  49.187  49.182  1.00  0.00     0.114 C 
HETATM   18  C   UNL     1      25.005  49.893  48.209  1.00  0.00     0.037 C 
BRANCH  17  19
HETATM   19  C   UNL     1      22.592  49.537  48.997  1.00  0.00    -0.033 A 
HETATM   20  C   UNL     1      21.571  48.582  49.024  1.00  0.00     0.028 A 
HETATM   21  C   UNL     1      20.257  49.004  48.878  1.00  0.00     0.116 A 
HETATM   22  N   UNL     1      19.890  50.294  48.732  1.00  0.00    -0.273 NA
HETATM   23  C   UNL     1      20.884  51.204  48.721  1.00  0.00     0.116 A 
HETATM   24  C   UNL     1      22.226  50.881  48.852  1.00  0.00     0.028 A 
ENDBRANCH  17  19
ENDBRANCH  14  17
ENDBRANCH   9  13
BRANCH   3  25
HETATM   25  C   UNL     1      27.564  44.980  53.775  1.00  0.00    -0.002 A 
HETATM   26  C   UNL     1      28.722  44.463  54.368  1.00  0.00     0.014 A 
HETATM   27  C   UNL     1      29.315  45.123  55.445  1.00  0.00     0.001 A 
HETATM   28  C   UNL     1      28.765  46.309  55.930  1.00  0.00     0.000 A 
HETATM   29  C   UNL     1      27.620  46.839  55.336  1.00  0.00     0.001 A 
HETATM   30  C   UNL     1      27.022  46.179  54.262  1.00  0.00     0.014 A 
ENDBRANCH   3  25
TORSDOF 4
ENDMDL
MODEL 6
REMARK VINA RESULT:      -8.0      2.537      6.338
REMARK  4 active torsions:
REMARK  status: ('A' for Active; 'I' for Inactive)
REMARK    1  A    between atoms: C_3  and  C_4 
REMARK    2  A    between atoms: C_15  and  C_16 
REMARK       I    between atoms: C_16  and  N_17 
REMARK    3  A    between atoms: N_17  and  C_18 
REMARK    4  A    between atoms: C_18  and  C_19 
ROOT
HETATM    1  C   UNL     1      26.824  46.462  53.521  1.00  0.00     0.055 C 
HETATM    2  C   UNL     1      26.247  45.748  52.335  1.00  0.00     0.024 A 
HETATM    3  C   UNL     1      26.539  44.504  51.913  1.00  0.00     0.096 A 
HETATM    4  O   UNL     1      25.940  43.864  50.844  1.00  0.00    -0.307 OA
HETATM    5  C   UNL     1      25.007  44.530  50.090  1.00  0.00     0.106 A 
HETATM    6  C   UNL     1      24.647  45.846  50.386  1.00  0.00     0.050 A 
HETATM    7  C   UNL     1      25.243  46.511  51.556  1.00  0.00     0.193 A 
HETATM    8  O   UNL     1      24.921  47.654  51.864  1.00  0.00    -0.287 OA
HETATM    9  C   UNL     1      24.414  43.880  48.995  1.00  0.00     0.066 A 
HETATM   10  C   UNL     1      23.495  44.591  48.199  1.00  0.00     0.020 A 
HETATM   11  C   UNL     1      23.154  45.911  48.493  1.00  0.00     0.002 A 
HETATM   12  C   UNL     1      23.725  46.539  49.594  1.00  0.00     0.018 A 
ENDROOT
BRANCH   9  13
HETATM   13  C   UNL     1      24.658  42.452  48.609  1.00  0.00     0.255 C 
HETATM   14  N   UNL     1      25.895  42.118  48.110  1.00  0.00    -0.349 N 
HETATM   15  H   UNL     1      26.579  42.843  47.933  1.00  0.00     0.163 HD
HETATM   16  O   UNL     1      23.775  41.615  48.777  1.00  0.00    -0.268 OA
BRANCH  14  17
HETATM   17  C   UNL     1      26.254  40.751  47.774  1.00  0.00     0.114 C 
HETATM   18  C   UNL     1      26.709  40.646  46.315  1.00  0.00     0.037 C 
BRANCH  17  19
HETATM   19  C   UNL     1      27.266  40.247  48.786  1.00  0.00    -0.033 A 
HETATM   20  C   UNL     1      27.363  40.754  50.085  1.00  0.00     0.028 A 
HETATM   21  C   UNL     1      28.300  40.206  50.949  1.00  0.00     0.116 A 
HETATM   22  N   UNL     1      29.122  39.187  50.623  1.00  0.00    -0.273 NA
HETATM   23  C   UNL     1      29.008  38.699  49.371  1.00  0.00     0.116 A 
HETATM   24  C   UNL     1      28.109  39.184  48.435  1.00  0.00     0.028 A 
ENDBRANCH  17  19
ENDBRANCH  14  17
ENDBRANCH   9  13
BRANCH   3  25
HETATM   25  C   UNL     1      27.559  43.669  52.563  1.00  0.00    -0.002 A 
HETATM   26  C   UNL     1      28.902  43.767  52.183  1.00  0.00     0.014 A 
HETATM   27  C   UNL     1      29.865  42.960  52.793  1.00  0.00     0.001 A 
HETATM   28  C   UNL     1      29.495  42.062  53.794  1.00  0.00     0.000 A 
HETATM   29  C   UNL     1      28.162  41.968  54.187  1.00  0.00     0.001 A 
HETATM   30  C   UNL     1      27.196  42.770  53.576  1.00  0.00     0.014 A 
ENDBRANCH   3  25
TORSDOF 4
ENDMDL
MODEL 7
REMARK VINA RESULT:      -8.0      2.228      6.109
REMARK  4 active torsions:
REMARK  status: ('A' for Active; 'I' for Inactive)
REMARK    1  A    between atoms: C_3  and  C_4 
REMARK    2  A    between atoms: C_15  and  C_16 
REMARK       I    between atoms: C_16  and  N_17 
REMARK    3  A    between atoms: N_17  and  C_18 
REMARK    4  A    between atoms: C_18  and  C_19 
ROOT
HETATM    1  C   UNL     1      27.440  47.319  55.666  1.00  0.00     0.055 C 
HETATM    2  C   UNL     1      27.225  46.502  54.427  1.00  0.00     0.024 A 
HETATM    3  C   UNL     1      27.882  45.385  54.065  1.00  0.00     0.096 A 
HETATM    4  O   UNL     1      27.612  44.632  52.937  1.00  0.00    -0.307 OA
HETATM    5  C   UNL     1      26.642  45.046  52.060  1.00  0.00     0.106 A 
HETATM    6  C   UNL     1      25.917  46.217  52.287  1.00  0.00     0.050 A 
HETATM    7  C   UNL     1      26.165  46.993  53.513  1.00  0.00     0.193 A 
HETATM    8  O   UNL     1      25.521  48.006  53.760  1.00  0.00    -0.287 OA
HETATM    9  C   UNL     1      26.384  44.284  50.908  1.00  0.00     0.066 A 
HETATM   10  C   UNL     1      25.421  44.747  49.990  1.00  0.00     0.020 A 
HETATM   11  C   UNL     1      24.714  45.928  50.217  1.00  0.00     0.002 A 
HETATM   12  C   UNL     1      24.956  46.661  51.372  1.00  0.00     0.018 A 
ENDROOT
BRANCH   9  13
HETATM   13  C   UNL     1      27.039  42.977  50.578  1.00  0.00     0.255 C 
HETATM   14  N   UNL     1      26.535  42.247  49.528  1.00  0.00    -0.349 N 
HETATM   15  H   UNL     1      25.694  42.555  49.058  1.00  0.00     0.163 HD
HETATM   16  O   UNL     1      28.018  42.605  51.220  1.00  0.00    -0.268 OA
BRANCH  14  17
HETATM   17  C   UNL     1      27.141  41.003  49.085  1.00  0.00     0.114 C 
HETATM   18  C   UNL     1      26.521  39.802  49.806  1.00  0.00     0.037 C 
BRANCH  17  19
HETATM   19  C   UNL     1      27.065  40.933  47.570  1.00  0.00    -0.033 A 
HETATM   20  C   UNL     1      28.196  40.956  46.749  1.00  0.00     0.028 A 
HETATM   21  C   UNL     1      28.027  40.855  45.375  1.00  0.00     0.116 A 
HETATM   22  N   UNL     1      26.830  40.711  44.770  1.00  0.00    -0.273 NA
HETATM   23  C   UNL     1      25.749  40.678  45.576  1.00  0.00     0.116 A 
HETATM   24  C   UNL     1      25.815  40.779  46.957  1.00  0.00     0.028 A 
ENDBRANCH  17  19
ENDBRANCH  14  17
ENDBRANCH   9  13
BRANCH   3  25
HETATM   25  C   UNL     1      28.992  44.832  54.853  1.00  0.00    -0.002 A 
HETATM   26  C   UNL     1      29.516  43.569  54.551  1.00  0.00     0.014 A 
HETATM   27  C   UNL     1      30.561  43.043  55.312  1.00  0.00     0.001 A 
HETATM   28  C   UNL     1      31.099  43.777  56.369  1.00  0.00     0.000 A 
HETATM   29  C   UNL     1      30.592  45.040  56.667  1.00  0.00     0.001 A 
HETATM   30  C   UNL     1      29.544  45.568  55.911  1.00  0.00     0.014 A 
ENDBRANCH   3  25
TORSDOF 4
ENDMDL
MODEL 8
REMARK VINA RESULT:      -8.0      3.262      7.690
REMARK  4 active torsions:
REMARK  status: ('A' for Active; 'I' for Inactive)
REMARK    1  A    between atoms: C_3  and  C_4 
REMARK    2  A    between atoms: C_15  and  C_16 
REMARK       I    between atoms: C_16  and  N_17 
REMARK    3  A    between atoms: N_17  and  C_18 
REMARK    4  A    between atoms: C_18  and  C_19 
ROOT
HETATM    1  C   UNL     1      21.579  50.557  47.326  1.00  0.00     0.055 C 
HETATM    2  C   UNL     1      22.463  49.619  48.092  1.00  0.00     0.024 A 
HETATM    3  C   UNL     1      22.084  48.539  48.800  1.00  0.00     0.096 A 
HETATM    4  O   UNL     1      22.942  47.670  49.447  1.00  0.00    -0.307 OA
HETATM    5  C   UNL     1      24.292  47.916  49.440  1.00  0.00     0.106 A 
HETATM    6  C   UNL     1      24.817  49.032  48.786  1.00  0.00     0.050 A 
HETATM    7  C   UNL     1      23.912  49.930  48.051  1.00  0.00     0.193 A 
HETATM    8  O   UNL     1      24.346  50.899  47.436  1.00  0.00    -0.287 OA
HETATM    9  C   UNL     1      25.157  47.037  50.114  1.00  0.00     0.066 A 
HETATM   10  C   UNL     1      26.535  47.329  50.141  1.00  0.00     0.020 A 
HETATM   11  C   UNL     1      27.048  48.456  49.499  1.00  0.00     0.002 A 
HETATM   12  C   UNL     1      26.189  49.306  48.812  1.00  0.00     0.018 A 
ENDROOT
BRANCH   9  13
HETATM   13  C   UNL     1      24.734  45.771  50.795  1.00  0.00     0.255 C 
HETATM   14  N   UNL     1      24.452  44.677  50.012  1.00  0.00    -0.349 N 
HETATM   15  H   UNL     1      24.449  44.766  49.004  1.00  0.00     0.163 HD
HETATM   16  O   UNL     1      24.684  45.725  52.021  1.00  0.00    -0.268 OA
BRANCH  14  17
HETATM   17  C   UNL     1      24.102  43.385  50.578  1.00  0.00     0.114 C 
HETATM   18  C   UNL     1      22.868  42.799  49.887  1.00  0.00     0.037 C 
BRANCH  17  19
HETATM   19  C   UNL     1      25.326  42.489  50.545  1.00  0.00    -0.033 A 
HETATM   20  C   UNL     1      26.423  42.665  51.394  1.00  0.00     0.028 A 
HETATM   21  C   UNL     1      27.483  41.773  51.311  1.00  0.00     0.116 A 
HETATM   22  N   UNL     1      27.519  40.719  50.470  1.00  0.00    -0.273 NA
HETATM   23  C   UNL     1      26.448  40.554  49.667  1.00  0.00     0.116 A 
HETATM   24  C   UNL     1      25.346  41.395  49.671  1.00  0.00     0.028 A 
ENDBRANCH  17  19
ENDBRANCH  14  17
ENDBRANCH   9  13
BRANCH   3  25
HETATM   25  C   UNL     1      20.674  48.160  48.968  1.00  0.00    -0.002 A 
HETATM   26  C   UNL     1      20.136  47.092  48.241  1.00  0.00     0.014 A 
HETATM   27  C   UNL     1      18.792  46.745  48.395  1.00  0.00     0.001 A 
HETATM   28  C   UNL     1      17.982  47.453  49.281  1.00  0.00     0.000 A 
HETATM   29  C   UNL     1      18.514  48.509  50.019  1.00  0.00     0.001 A 
HETATM   30  C   UNL     1      19.856  48.861  49.865  1.00  0.00     0.014 A 
ENDBRANCH   3  25
TORSDOF 4
ENDMDL
MODEL 9
REMARK VINA RESULT:      -7.8      4.554      8.964
REMARK  4 active torsions:
REMARK  status: ('A' for Active; 'I' for Inactive)
REMARK    1  A    between atoms: C_3  and  C_4 
REMARK    2  A    between atoms: C_15  and  C_16 
REMARK       I    between atoms: C_16  and  N_17 
REMARK    3  A    between atoms: N_17  and  C_18 
REMARK    4  A    between atoms: C_18  and  C_19 
ROOT
HETATM    1  C   UNL     1      21.134  51.056  50.120  1.00  0.00     0.055 C 
HETATM    2  C   UNL     1      20.707  49.728  49.572  1.00  0.00     0.024 A 
HETATM    3  C   UNL     1      21.498  48.763  49.068  1.00  0.00     0.096 A 
HETATM    4  O   UNL     1      21.064  47.528  48.623  1.00  0.00    -0.307 OA
HETATM    5  C   UNL     1      19.723  47.237  48.627  1.00  0.00     0.106 A 
HETATM    6  C   UNL     1      18.785  48.169  49.076  1.00  0.00     0.050 A 
HETATM    7  C   UNL     1      19.248  49.464  49.600  1.00  0.00     0.193 A 
HETATM    8  O   UNL     1      18.452  50.289  50.035  1.00  0.00    -0.287 OA
HETATM    9  C   UNL     1      19.288  45.986  48.159  1.00  0.00     0.066 A 
HETATM   10  C   UNL     1      17.905  45.719  48.121  1.00  0.00     0.020 A 
HETATM   11  C   UNL     1      16.974  46.663  48.555  1.00  0.00     0.002 A 
HETATM   12  C   UNL     1      17.414  47.888  49.042  1.00  0.00     0.018 A 
ENDROOT
BRANCH   9  13
HETATM   13  C   UNL     1      20.189  44.874  47.714  1.00  0.00     0.255 C 
HETATM   14  N   UNL     1      21.471  44.842  48.209  1.00  0.00    -0.349 N 
HETATM   15  H   UNL     1      21.807  45.603  48.787  1.00  0.00     0.163 HD
HETATM   16  O   UNL     1      19.761  44.008  46.956  1.00  0.00    -0.268 OA
BRANCH  14  17
HETATM   17  C   UNL     1      22.399  43.770  47.895  1.00  0.00     0.114 C 
HETATM   18  C   UNL     1      23.144  44.052  46.588  1.00  0.00     0.037 C 
BRANCH  17  19
HETATM   19  C   UNL     1      23.300  43.536  49.094  1.00  0.00    -0.033 A 
HETATM   20  C   UNL     1      23.998  42.342  49.302  1.00  0.00     0.028 A 
HETATM   21  C   UNL     1      24.824  42.235  50.412  1.00  0.00     0.116 A 
HETATM   22  N   UNL     1      25.020  43.226  51.305  1.00  0.00    -0.273 NA
HETATM   23  C   UNL     1      24.351  44.375  51.085  1.00  0.00     0.116 A 
HETATM   24  C   UNL     1      23.499  44.576  50.011  1.00  0.00     0.028 A 
ENDBRANCH  17  19
ENDBRANCH  14  17
ENDBRANCH   9  13
BRANCH   3  25
HETATM   25  C   UNL     1      22.952  48.926  48.930  1.00  0.00    -0.002 A 
HETATM   26  C   UNL     1      23.829  48.117  49.660  1.00  0.00     0.014 A 
HETATM   27  C   UNL     1      25.209  48.286  49.535  1.00  0.00     0.001 A 
HETATM   28  C   UNL     1      25.722  49.254  48.672  1.00  0.00     0.000 A 
HETATM   29  C   UNL     1      24.855  50.055  47.931  1.00  0.00     0.001 A 
HETATM   30  C   UNL     1      23.475  49.891  48.057  1.00  0.00     0.014 A 
ENDBRANCH   3  25
TORSDOF 4
ENDMDL
MODEL 10
REMARK VINA RESULT:      -7.7      2.328      3.239
REMARK  4 active torsions:
REMARK  status: ('A' for Active; 'I' for Inactive)
REMARK    1  A    between atoms: C_3  and  C_4 
REMARK    2  A    between atoms: C_15  and  C_16 
REMARK       I    between atoms: C_16  and  N_17 
REMARK    3  A    between atoms: N_17  and  C_18 
REMARK    4  A    between atoms: C_18  and  C_19 
ROOT
HETATM    1  C   UNL     1      28.501  41.082  53.396  1.00  0.00     0.055 C 
HETATM    2  C   UNL     1      27.844  42.306  52.832  1.00  0.00     0.024 A 
HETATM    3  C   UNL     1      27.280  42.441  51.618  1.00  0.00     0.096 A 
HETATM    4  O   UNL     1      26.636  43.574  51.160  1.00  0.00    -0.307 OA
HETATM    5  C   UNL     1      26.587  44.694  51.951  1.00  0.00     0.106 A 
HETATM    6  C   UNL     1      27.177  44.709  53.217  1.00  0.00     0.050 A 
HETATM    7  C   UNL     1      27.818  43.487  53.729  1.00  0.00     0.193 A 
HETATM    8  O   UNL     1      28.313  43.456  54.849  1.00  0.00    -0.287 OA
HETATM    9  C   UNL     1      25.944  45.849  51.473  1.00  0.00     0.066 A 
HETATM   10  C   UNL     1      25.945  47.007  52.274  1.00  0.00     0.020 A 
HETATM   11  C   UNL     1      26.552  47.018  53.530  1.00  0.00     0.002 A 
HETATM   12  C   UNL     1      27.163  45.864  54.007  1.00  0.00     0.018 A 
ENDROOT
BRANCH   9  13
HETATM   13  C   UNL     1      25.214  45.947  50.168  1.00  0.00     0.255 C 
HETATM   14  N   UNL     1      24.027  46.638  50.140  1.00  0.00    -0.349 N 
HETATM   15  H   UNL     1      23.628  46.989  51.002  1.00  0.00     0.163 HD
HETATM   16  O   UNL     1      25.701  45.446  49.157  1.00  0.00    -0.268 OA
BRANCH  14  17
HETATM   17  C   UNL     1      23.279  46.850  48.912  1.00  0.00     0.114 C 
HETATM   18  C   UNL     1      22.239  45.745  48.704  1.00  0.00     0.037 C 
BRANCH  17  19
HETATM   19  C   UNL     1      22.708  48.256  48.923  1.00  0.00    -0.033 A 
HETATM   20  C   UNL     1      21.340  48.523  49.023  1.00  0.00     0.028 A 
HETATM   21  C   UNL     1      20.916  49.844  49.058  1.00  0.00     0.116 A 
HETATM   22  N   UNL     1      21.748  50.905  49.024  1.00  0.00    -0.273 NA
HETATM   23  C   UNL     1      23.066  50.632  48.941  1.00  0.00     0.116 A 
HETATM   24  C   UNL     1      23.586  49.348  48.893  1.00  0.00     0.028 A 
ENDBRANCH  17  19
ENDBRANCH  14  17
ENDBRANCH   9  13
BRANCH   3  25
HETATM   25  C   UNL     1      27.295  41.364  50.617  1.00  0.00    -0.002 A 
HETATM   26  C   UNL     1      26.294  40.387  50.613  1.00  0.00     0.014 A 
HETATM   27  C   UNL     1      26.320  39.359  49.669  1.00  0.00     0.001 A 
HETATM   28  C   UNL     1      27.337  39.307  48.716  1.00  0.00     0.000 A 
HETATM   29  C   UNL     1      28.330  40.285  48.705  1.00  0.00     0.001 A 
HETATM   30  C   UNL     1      28.309  41.312  49.651  1.00  0.00     0.014 A 
ENDBRANCH   3  25
TORSDOF 4
ENDMDL
