MODEL 1
REMARK VINA RESULT:      -9.8      0.000      0.000
REMARK  9 active torsions:
REMARK  status: ('A' for Active; 'I' for Inactive)
REMARK    1  A    between atoms: C_7  and  O_8 
REMARK    2  A    between atoms: O_8  and  C_9 
REMARK    3  A    between atoms: C_9  and  C_10 
REMARK    4  A    between atoms: C_10  and  O_11 
REMARK    5  A    between atoms: C_10  and  C_12 
REMARK    6  A    between atoms: C_12  and  N_13 
REMARK    7  A    between atoms: N_18  and  C_19 
REMARK    8  A    between atoms: C_19  and  C_20 
REMARK    9  A    between atoms: C_20  and  N_21 
ROOT
HETATM    1  N   UNL     1      25.489  46.524  50.120  1.00  0.00    -0.179 N 
HETATM    2  C   UNL     1      24.162  46.671  49.766  1.00  0.00     0.681 A 
HETATM    3  N   UNL     1      23.217  45.749  49.950  1.00  0.00    -0.234 N 
HETATM    4  H   UNL     1      22.272  45.808  49.618  1.00  0.00     0.174 HD
HETATM    5  H   UNL     1      23.515  44.830  50.300  1.00  0.00     0.174 HD
HETATM    6  N   UNL     1      23.882  47.898  49.162  1.00  0.00    -0.180 N 
HETATM    7  C   UNL     1      25.153  48.539  49.052  1.00  0.00     0.079 A 
HETATM    8  C   UNL     1      26.124  47.713  49.637  1.00  0.00     0.079 A 
HETATM    9  C   UNL     1      25.479  49.746  48.471  1.00  0.00     0.032 A 
HETATM   10  C   UNL     1      26.827  50.117  48.485  1.00  0.00     0.002 A 
HETATM   11  C   UNL     1      27.803  49.288  49.072  1.00  0.00     0.002 A 
HETATM   12  C   UNL     1      27.455  48.066  49.659  1.00  0.00     0.032 A 
ENDROOT
BRANCH   1  13
HETATM   13  C   UNL     1      26.226  45.430  50.806  1.00  0.00     0.181 C 
BRANCH  13  14
HETATM   14  C   UNL     1      25.853  45.174  52.273  1.00  0.00     0.161 C 
BRANCH  14  15
HETATM   15  C   UNL     1      26.988  44.467  53.031  1.00  0.00     0.209 C 
BRANCH  15  16
HETATM   16  O   UNL     1      27.616  45.479  53.826  1.00  0.00    -0.349 OA
BRANCH  16  17
HETATM   17  C   UNL     1      28.626  45.083  54.658  1.00  0.00     0.069 A 
HETATM   18  C   UNL     1      29.276  43.912  54.267  1.00  0.00     0.038 A 
HETATM   19  C   UNL     1      30.326  43.397  55.029  1.00  0.00     0.027 A 
HETATM   20  C   UNL     1      30.728  44.049  56.195  1.00  0.00     0.040 A 
HETATM   21  C   UNL     1      30.083  45.225  56.609  1.00  0.00    -0.038 A 
HETATM   22 CL   UNL     1      32.026  43.359  57.099  1.00  0.00    -0.084 Cl
HETATM   23  C   UNL     1      30.481  45.937  57.873  1.00  0.00     0.050 C 
HETATM   24  C   UNL     1      29.025  45.731  55.830  1.00  0.00     0.045 A 
ENDBRANCH  16  17
ENDBRANCH  15  16
ENDBRANCH  14  15
BRANCH  14  25
HETATM   25  O   UNL     1      24.670  44.349  52.331  1.00  0.00    -0.392 OA
HETATM   26  H   UNL     1      24.488  44.093  51.394  1.00  0.00     0.210 HD
ENDBRANCH  14  25
ENDBRANCH  13  14
ENDBRANCH   1  13
BRANCH   6  27
HETATM   27  C   UNL     1      22.614  48.378  48.600  1.00  0.00     0.175 C 
BRANCH  27  28
HETATM   28  C   UNL     1      22.049  49.598  49.359  1.00  0.00     0.256 C 
BRANCH  28  29
HETATM   29  N   UNL     1      20.616  49.398  49.816  1.00  0.00    -0.066 N 
HETATM   30  H   UNL     1      20.588  49.244  50.834  1.00  0.00     0.280 HD
HETATM   31  C   UNL     1      19.775  50.668  49.561  1.00  0.00     0.261 C 
HETATM   32  C   UNL     1      18.339  50.442  50.044  1.00  0.00     0.195 C 
HETATM   33  O   UNL     1      17.757  49.316  49.381  1.00  0.00    -0.388 OA
HETATM   34  C   UNL     1      18.466  48.107  49.656  1.00  0.00     0.195 C 
HETATM   35  C   UNL     1      19.914  48.202  49.156  1.00  0.00     0.261 C 
ENDBRANCH  28  29
ENDBRANCH  27  28
ENDBRANCH   6  27
TORSDOF 9
ENDMDL
MODEL 2
REMARK VINA RESULT:      -9.3      1.195      1.654
REMARK  9 active torsions:
REMARK  status: ('A' for Active; 'I' for Inactive)
REMARK    1  A    between atoms: C_7  and  O_8 
REMARK    2  A    between atoms: O_8  and  C_9 
REMARK    3  A    between atoms: C_9  and  C_10 
REMARK    4  A    between atoms: C_10  and  O_11 
REMARK    5  A    between atoms: C_10  and  C_12 
REMARK    6  A    between atoms: C_12  and  N_13 
REMARK    7  A    between atoms: N_18  and  C_19 
REMARK    8  A    between atoms: C_19  and  C_20 
REMARK    9  A    between atoms: C_20  and  N_21 
ROOT
HETATM    1  N   UNL     1      24.607  46.802  49.675  1.00  0.00    -0.179 N 
HETATM    2  C   UNL     1      23.392  47.273  49.216  1.00  0.00     0.681 A 
HETATM    3  N   UNL     1      22.250  46.587  49.239  1.00  0.00    -0.234 N 
HETATM    4  H   UNL     1      21.383  46.884  48.829  1.00  0.00     0.174 HD
HETATM    5  H   UNL     1      22.295  45.605  49.538  1.00  0.00     0.174 HD
HETATM    6  N   UNL     1      23.462  48.565  48.691  1.00  0.00    -0.180 N 
HETATM    7  C   UNL     1      24.849  48.899  48.749  1.00  0.00     0.079 A 
HETATM    8  C   UNL     1      25.541  47.837  49.350  1.00  0.00     0.079 A 
HETATM    9  C   UNL     1      25.498  50.029  48.299  1.00  0.00     0.032 A 
HETATM   10  C   UNL     1      26.886  50.075  48.465  1.00  0.00     0.002 A 
HETATM   11  C   UNL     1      27.582  49.009  49.068  1.00  0.00     0.002 A 
HETATM   12  C   UNL     1      26.907  47.870  49.520  1.00  0.00     0.032 A 
ENDROOT
BRANCH   1  13
HETATM   13  C   UNL     1      25.001  45.528  50.334  1.00  0.00     0.181 C 
BRANCH  13  14
HETATM   14  C   UNL     1      24.865  45.482  51.862  1.00  0.00     0.161 C 
BRANCH  14  15
HETATM   15  C   UNL     1      26.159  45.933  52.559  1.00  0.00     0.209 C 
BRANCH  15  16
HETATM   16  O   UNL     1      26.673  44.770  53.218  1.00  0.00    -0.349 OA
BRANCH  16  17
HETATM   17  C   UNL     1      27.621  44.966  54.183  1.00  0.00     0.069 A 
HETATM   18  C   UNL     1      27.413  46.091  54.983  1.00  0.00     0.038 A 
HETATM   19  C   UNL     1      28.308  46.407  56.006  1.00  0.00     0.027 A 
HETATM   20  C   UNL     1      29.423  45.601  56.232  1.00  0.00     0.040 A 
HETATM   21  C   UNL     1      29.654  44.468  55.436  1.00  0.00    -0.038 A 
HETATM   22 CL   UNL     1      30.497  46.048  57.506  1.00  0.00    -0.084 Cl
HETATM   23  C   UNL     1      30.860  43.593  55.642  1.00  0.00     0.050 C 
HETATM   24  C   UNL     1      28.743  44.164  54.406  1.00  0.00     0.045 A 
ENDBRANCH  16  17
ENDBRANCH  15  16
ENDBRANCH  14  15
BRANCH  14  25
HETATM   25  O   UNL     1      24.558  44.134  52.276  1.00  0.00    -0.392 OA
HETATM   26  H   UNL     1      25.066  43.553  51.661  1.00  0.00     0.210 HD
ENDBRANCH  14  25
ENDBRANCH  13  14
ENDBRANCH   1  13
BRANCH   6  27
HETATM   27  C   UNL     1      22.402  49.358  48.059  1.00  0.00     0.175 C 
BRANCH  27  28
HETATM   28  C   UNL     1      22.171  50.714  48.760  1.00  0.00     0.256 C 
BRANCH  28  29
HETATM   29  N   UNL     1      20.873  50.762  49.543  1.00  0.00    -0.066 N 
HETATM   30  H   UNL     1      21.056  51.065  50.511  1.00  0.00     0.280 HD
HETATM   31  C   UNL     1      19.911  51.814  48.950  1.00  0.00     0.261 C 
HETATM   32  C   UNL     1      18.616  51.850  49.768  1.00  0.00     0.195 C 
HETATM   33  O   UNL     1      17.998  50.561  49.787  1.00  0.00    -0.388 OA
HETATM   34  C   UNL     1      18.831  49.575  50.399  1.00  0.00     0.195 C 
HETATM   35  C   UNL     1      20.142  49.413  49.619  1.00  0.00     0.261 C 
ENDBRANCH  28  29
ENDBRANCH  27  28
ENDBRANCH   6  27
TORSDOF 9
ENDMDL
MODEL 3
REMARK VINA RESULT:      -9.2      1.554      2.139
REMARK  9 active torsions:
REMARK  status: ('A' for Active; 'I' for Inactive)
REMARK    1  A    between atoms: C_7  and  O_8 
REMARK    2  A    between atoms: O_8  and  C_9 
REMARK    3  A    between atoms: C_9  and  C_10 
REMARK    4  A    between atoms: C_10  and  O_11 
REMARK    5  A    between atoms: C_10  and  C_12 
REMARK    6  A    between atoms: C_12  and  N_13 
REMARK    7  A    between atoms: N_18  and  C_19 
REMARK    8  A    between atoms: C_19  and  C_20 
REMARK    9  A    between atoms: C_20  and  N_21 
ROOT
HETATM    1  N   UNL     1      24.639  46.924  49.909  1.00  0.00    -0.179 N 
HETATM    2  C   UNL     1      23.446  47.236  49.285  1.00  0.00     0.681 A 
HETATM    3  N   UNL     1      22.348  46.482  49.319  1.00  0.00    -0.234 N 
HETATM    4  H   UNL     1      21.507  46.654  48.799  1.00  0.00     0.174 HD
HETATM    5  H   UNL     1      22.421  45.560  49.767  1.00  0.00     0.174 HD
HETATM    6  N   UNL     1      23.489  48.439  48.577  1.00  0.00    -0.180 N 
HETATM    7  C   UNL     1      24.844  48.874  48.696  1.00  0.00     0.079 A 
HETATM    8  C   UNL     1      25.538  47.963  49.507  1.00  0.00     0.079 A 
HETATM    9  C   UNL     1      25.466  49.969  48.134  1.00  0.00     0.032 A 
HETATM   10  C   UNL     1      26.828  50.135  48.404  1.00  0.00     0.002 A 
HETATM   11  C   UNL     1      27.526  49.222  49.217  1.00  0.00     0.002 A 
HETATM   12  C   UNL     1      26.879  48.117  49.781  1.00  0.00     0.032 A 
ENDROOT
BRANCH   1  13
HETATM   13  C   UNL     1      25.043  45.792  50.784  1.00  0.00     0.181 C 
BRANCH  13  14
HETATM   14  C   UNL     1      25.506  44.514  50.073  1.00  0.00     0.161 C 
BRANCH  14  15
HETATM   15  C   UNL     1      27.034  44.352  50.137  1.00  0.00     0.209 C 
BRANCH  15  16
HETATM   16  O   UNL     1      27.271  43.211  50.971  1.00  0.00    -0.349 OA
BRANCH  16  17
HETATM   17  C   UNL     1      28.012  43.408  52.103  1.00  0.00     0.069 A 
HETATM   18  C   UNL     1      29.111  42.558  52.233  1.00  0.00     0.038 A 
HETATM   19  C   UNL     1      29.950  42.652  53.344  1.00  0.00     0.027 A 
HETATM   20  C   UNL     1      29.691  43.596  54.337  1.00  0.00     0.040 A 
HETATM   21  C   UNL     1      28.587  44.456  54.229  1.00  0.00    -0.038 A 
HETATM   22 CL   UNL     1      30.760  43.658  55.690  1.00  0.00    -0.084 Cl
HETATM   23  C   UNL     1      28.270  45.469  55.295  1.00  0.00     0.050 C 
HETATM   24  C   UNL     1      27.748  44.347  53.102  1.00  0.00     0.045 A 
ENDBRANCH  16  17
ENDBRANCH  15  16
ENDBRANCH  14  15
BRANCH  14  25
HETATM   25  O   UNL     1      25.101  44.561  48.688  1.00  0.00    -0.392 OA
HETATM   26  H   UNL     1      24.866  43.630  48.456  1.00  0.00     0.210 HD
ENDBRANCH  14  25
ENDBRANCH  13  14
ENDBRANCH   1  13
BRANCH   6  27
HETATM   27  C   UNL     1      22.448  49.054  47.746  1.00  0.00     0.175 C 
BRANCH  27  28
HETATM   28  C   UNL     1      21.913  50.375  48.340  1.00  0.00     0.256 C 
BRANCH  28  29
HETATM   29  N   UNL     1      20.433  50.319  48.666  1.00  0.00    -0.066 N 
HETATM   30  H   UNL     1      19.892  50.103  47.817  1.00  0.00     0.280 HD
HETATM   31  C   UNL     1      20.131  49.174  49.657  1.00  0.00     0.261 C 
HETATM   32  C   UNL     1      18.629  49.132  49.958  1.00  0.00     0.195 C 
HETATM   33  O   UNL     1      18.189  50.384  50.491  1.00  0.00    -0.388 OA
HETATM   34  C   UNL     1      18.384  51.458  49.570  1.00  0.00     0.195 C 
HETATM   35  C   UNL     1      19.873  51.628  49.242  1.00  0.00     0.261 C 
ENDBRANCH  28  29
ENDBRANCH  27  28
ENDBRANCH   6  27
TORSDOF 9
ENDMDL
MODEL 4
REMARK VINA RESULT:      -8.8      1.636      2.648
REMARK  9 active torsions:
REMARK  status: ('A' for Active; 'I' for Inactive)
REMARK    1  A    between atoms: C_7  and  O_8 
REMARK    2  A    between atoms: O_8  and  C_9 
REMARK    3  A    between atoms: C_9  and  C_10 
REMARK    4  A    between atoms: C_10  and  O_11 
REMARK    5  A    between atoms: C_10  and  C_12 
REMARK    6  A    between atoms: C_12  and  N_13 
REMARK    7  A    between atoms: N_18  and  C_19 
REMARK    8  A    between atoms: C_19  and  C_20 
REMARK    9  A    between atoms: C_20  and  N_21 
ROOT
HETATM    1  N   UNL     1      23.570  46.862  49.200  1.00  0.00    -0.179 N 
HETATM    2  C   UNL     1      22.249  46.571  48.919  1.00  0.00     0.681 A 
HETATM    3  N   UNL     1      21.693  45.365  49.036  1.00  0.00    -0.234 N 
HETATM    4  H   UNL     1      20.761  45.124  48.752  1.00  0.00     0.174 HD
HETATM    5  H   UNL     1      22.312  44.579  49.268  1.00  0.00     0.174 HD
HETATM    6  N   UNL     1      21.522  47.675  48.469  1.00  0.00    -0.180 N 
HETATM    7  C   UNL     1      22.486  48.724  48.381  1.00  0.00     0.079 A 
HETATM    8  C   UNL     1      23.722  48.236  48.829  1.00  0.00     0.079 A 
HETATM    9  C   UNL     1      22.335  50.017  47.926  1.00  0.00     0.032 A 
HETATM   10  C   UNL     1      23.474  50.829  47.927  1.00  0.00     0.002 A 
HETATM   11  C   UNL     1      24.716  50.341  48.376  1.00  0.00     0.002 A 
HETATM   12  C   UNL     1      24.851  49.026  48.836  1.00  0.00     0.032 A 
ENDROOT
BRANCH   1  13
HETATM   13  C   UNL     1      24.686  46.033  49.728  1.00  0.00     0.181 C 
BRANCH  13  14
HETATM   14  C   UNL     1      24.649  45.719  51.230  1.00  0.00     0.161 C 
BRANCH  14  15
HETATM   15  C   UNL     1      26.037  45.325  51.761  1.00  0.00     0.209 C 
BRANCH  15  16
HETATM   16  O   UNL     1      26.112  45.856  53.089  1.00  0.00    -0.349 OA
BRANCH  16  17
HETATM   17  C   UNL     1      27.204  45.515  53.837  1.00  0.00     0.069 A 
HETATM   18  C   UNL     1      27.519  46.420  54.852  1.00  0.00     0.038 A 
HETATM   19  C   UNL     1      28.612  46.192  55.689  1.00  0.00     0.027 A 
HETATM   20  C   UNL     1      29.403  45.056  55.512  1.00  0.00     0.040 A 
HETATM   21  C   UNL     1      29.107  44.137  54.493  1.00  0.00    -0.038 A 
HETATM   22 CL   UNL     1      30.745  44.834  56.573  1.00  0.00    -0.084 Cl
HETATM   23  C   UNL     1      29.955  42.916  54.264  1.00  0.00     0.050 C 
HETATM   24  C   UNL     1      28.002  44.383  53.655  1.00  0.00     0.045 A 
ENDBRANCH  16  17
ENDBRANCH  15  16
ENDBRANCH  14  15
BRANCH  14  25
HETATM   25  O   UNL     1      23.732  44.631  51.470  1.00  0.00    -0.392 OA
HETATM   26  H   UNL     1      24.275  43.811  51.378  1.00  0.00     0.210 HD
ENDBRANCH  14  25
ENDBRANCH  13  14
ENDBRANCH   1  13
BRANCH   6  27
HETATM   27  C   UNL     1      20.127  47.734  48.018  1.00  0.00     0.175 C 
BRANCH  27  28
HETATM   28  C   UNL     1      19.151  48.136  49.144  1.00  0.00     0.256 C 
BRANCH  28  29
HETATM   29  N   UNL     1      18.618  49.547  48.988  1.00  0.00    -0.066 N 
HETATM   30  H   UNL     1      17.610  49.569  49.199  1.00  0.00     0.280 HD
HETATM   31  C   UNL     1      19.279  50.501  50.007  1.00  0.00     0.261 C 
HETATM   32  C   UNL     1      18.712  51.914  49.836  1.00  0.00     0.195 C 
HETATM   33  O   UNL     1      18.923  52.382  48.501  1.00  0.00    -0.388 OA
HETATM   34  C   UNL     1      18.261  51.565  47.535  1.00  0.00     0.195 C 
HETATM   35  C   UNL     1      18.799  50.129  47.578  1.00  0.00     0.261 C 
ENDBRANCH  28  29
ENDBRANCH  27  28
ENDBRANCH   6  27
TORSDOF 9
ENDMDL
MODEL 5
REMARK VINA RESULT:      -8.6      1.777      3.100
REMARK  9 active torsions:
REMARK  status: ('A' for Active; 'I' for Inactive)
REMARK    1  A    between atoms: C_7  and  O_8 
REMARK    2  A    between atoms: O_8  and  C_9 
REMARK    3  A    between atoms: C_9  and  C_10 
REMARK    4  A    between atoms: C_10  and  O_11 
REMARK    5  A    between atoms: C_10  and  C_12 
REMARK    6  A    between atoms: C_12  and  N_13 
REMARK    7  A    between atoms: N_18  and  C_19 
REMARK    8  A    between atoms: C_19  and  C_20 
REMARK    9  A    between atoms: C_20  and  N_21 
ROOT
HETATM    1  N   UNL     1      25.045  46.188  50.005  1.00  0.00    -0.179 N 
HETATM    2  C   UNL     1      24.183  47.059  49.367  1.00  0.00     0.681 A 
HETATM    3  N   UNL     1      24.286  48.387  49.390  1.00  0.00    -0.234 N 
HETATM    4  H   UNL     1      23.619  49.031  49.006  1.00  0.00     0.174 HD
HETATM    5  H   UNL     1      25.007  48.795  49.998  1.00  0.00     0.174 HD
HETATM    6  N   UNL     1      23.147  46.415  48.686  1.00  0.00    -0.180 N 
HETATM    7  C   UNL     1      23.326  45.032  48.992  1.00  0.00     0.079 A 
HETATM    8  C   UNL     1      24.477  44.893  49.783  1.00  0.00     0.079 A 
HETATM    9  C   UNL     1      22.549  43.948  48.641  1.00  0.00     0.032 A 
HETATM   10  C   UNL     1      22.954  42.694  49.110  1.00  0.00     0.002 A 
HETATM   11  C   UNL     1      24.109  42.553  49.904  1.00  0.00     0.002 A 
HETATM   12  C   UNL     1      24.888  43.663  50.250  1.00  0.00     0.032 A 
ENDROOT
BRANCH   1  13
HETATM   13  C   UNL     1      26.282  46.408  50.800  1.00  0.00     0.181 C 
BRANCH  13  14
HETATM   14  C   UNL     1      26.085  46.852  52.255  1.00  0.00     0.161 C 
BRANCH  14  15
HETATM   15  C   UNL     1      25.980  45.647  53.205  1.00  0.00     0.209 C 
BRANCH  15  16
HETATM   16  O   UNL     1      27.057  44.774  52.849  1.00  0.00    -0.349 OA
BRANCH  16  17
HETATM   17  C   UNL     1      28.055  44.605  53.769  1.00  0.00     0.069 A 
HETATM   18  C   UNL     1      28.910  43.533  53.509  1.00  0.00     0.038 A 
HETATM   19  C   UNL     1      29.970  43.249  54.371  1.00  0.00     0.027 A 
HETATM   20  C   UNL     1      30.178  44.034  55.505  1.00  0.00     0.040 A 
HETATM   21  C   UNL     1      29.326  45.113  55.788  1.00  0.00    -0.038 A 
HETATM   22 CL   UNL     1      31.500  43.628  56.536  1.00  0.00    -0.084 Cl
HETATM   23  C   UNL     1      29.513  45.963  57.015  1.00  0.00     0.050 C 
HETATM   24  C   UNL     1      28.259  45.386  54.909  1.00  0.00     0.045 A 
ENDBRANCH  16  17
ENDBRANCH  15  16
ENDBRANCH  14  15
BRANCH  14  25
HETATM   25  O   UNL     1      24.877  47.634  52.360  1.00  0.00    -0.392 OA
HETATM   26  H   UNL     1      25.169  48.574  52.279  1.00  0.00     0.210 HD
ENDBRANCH  14  25
ENDBRANCH  13  14
ENDBRANCH   1  13
BRANCH   6  27
HETATM   27  C   UNL     1      22.019  47.006  47.959  1.00  0.00     0.175 C 
BRANCH  27  28
HETATM   28  C   UNL     1      20.690  46.911  48.739  1.00  0.00     0.256 C 
BRANCH  28  29
HETATM   29  N   UNL     1      20.442  48.111  49.632  1.00  0.00    -0.066 N 
HETATM   30  H   UNL     1      20.979  48.018  50.506  1.00  0.00     0.280 HD
HETATM   31  C   UNL     1      20.949  49.408  48.965  1.00  0.00     0.261 C 
HETATM   32  C   UNL     1      20.699  50.600  49.894  1.00  0.00     0.195 C 
HETATM   33  O   UNL     1      19.307  50.709  50.206  1.00  0.00    -0.388 OA
HETATM   34  C   UNL     1      18.819  49.556  50.893  1.00  0.00     0.195 C 
HETATM   35  C   UNL     1      18.969  48.302  50.023  1.00  0.00     0.261 C 
ENDBRANCH  28  29
ENDBRANCH  27  28
ENDBRANCH   6  27
TORSDOF 9
ENDMDL
MODEL 6
REMARK VINA RESULT:      -8.5      1.832      2.280
REMARK  9 active torsions:
REMARK  status: ('A' for Active; 'I' for Inactive)
REMARK    1  A    between atoms: C_7  and  O_8 
REMARK    2  A    between atoms: O_8  and  C_9 
REMARK    3  A    between atoms: C_9  and  C_10 
REMARK    4  A    between atoms: C_10  and  O_11 
REMARK    5  A    between atoms: C_10  and  C_12 
REMARK    6  A    between atoms: C_12  and  N_13 
REMARK    7  A    between atoms: N_18  and  C_19 
REMARK    8  A    between atoms: C_19  and  C_20 
REMARK    9  A    between atoms: C_20  and  N_21 
ROOT
HETATM    1  N   UNL     1      25.620  46.504  50.048  1.00  0.00    -0.179 N 
HETATM    2  C   UNL     1      24.252  46.572  49.866  1.00  0.00     0.681 A 
HETATM    3  N   UNL     1      23.398  45.584  50.129  1.00  0.00    -0.234 N 
HETATM    4  H   UNL     1      22.417  45.591  49.919  1.00  0.00     0.174 HD
HETATM    5  H   UNL     1      23.795  44.677  50.403  1.00  0.00     0.174 HD
HETATM    6  N   UNL     1      23.822  47.797  49.351  1.00  0.00    -0.180 N 
HETATM    7  C   UNL     1      25.027  48.525  49.110  1.00  0.00     0.079 A 
HETATM    8  C   UNL     1      26.114  47.747  49.538  1.00  0.00     0.079 A 
HETATM    9  C   UNL     1      25.201  49.769  48.541  1.00  0.00     0.032 A 
HETATM   10  C   UNL     1      26.515  50.228  48.403  1.00  0.00     0.002 A 
HETATM   11  C   UNL     1      27.606  49.449  48.832  1.00  0.00     0.002 A 
HETATM   12  C   UNL     1      27.412  48.189  49.409  1.00  0.00     0.032 A 
ENDROOT
BRANCH   1  13
HETATM   13  C   UNL     1      26.505  45.441  50.594  1.00  0.00     0.181 C 
BRANCH  13  14
HETATM   14  C   UNL     1      26.095  44.845  51.948  1.00  0.00     0.161 C 
BRANCH  14  15
HETATM   15  C   UNL     1      27.096  45.215  53.055  1.00  0.00     0.209 C 
BRANCH  15  16
HETATM   16  O   UNL     1      27.937  44.067  53.221  1.00  0.00    -0.349 OA
BRANCH  16  17
HETATM   17  C   UNL     1      28.859  44.107  54.229  1.00  0.00     0.069 A 
HETATM   18  C   UNL     1      29.836  43.114  54.164  1.00  0.00     0.038 A 
HETATM   19  C   UNL     1      30.837  43.041  55.134  1.00  0.00     0.027 A 
HETATM   20  C   UNL     1      30.862  43.961  56.182  1.00  0.00     0.040 A 
HETATM   21  C   UNL     1      29.885  44.965  56.269  1.00  0.00    -0.038 A 
HETATM   22 CL   UNL     1      32.120  43.815  57.354  1.00  0.00    -0.084 Cl
HETATM   23  C   UNL     1      29.874  45.957  57.400  1.00  0.00     0.050 C 
HETATM   24  C   UNL     1      28.880  45.024  55.284  1.00  0.00     0.045 A 
ENDBRANCH  16  17
ENDBRANCH  15  16
ENDBRANCH  14  15
BRANCH  14  25
HETATM   25  O   UNL     1      26.030  43.407  51.840  1.00  0.00    -0.392 OA
HETATM   26  H   UNL     1      25.149  43.160  52.210  1.00  0.00     0.210 HD
ENDBRANCH  14  25
ENDBRANCH  13  14
ENDBRANCH   1  13
BRANCH   6  27
HETATM   27  C   UNL     1      22.467  48.208  48.969  1.00  0.00     0.175 C 
BRANCH  27  28
HETATM   28  C   UNL     1      22.033  47.639  47.601  1.00  0.00     0.256 C 
BRANCH  28  29
HETATM   29  N   UNL     1      21.356  46.285  47.712  1.00  0.00    -0.066 N 
HETATM   30  H   UNL     1      21.902  45.667  48.329  1.00  0.00     0.280 HD
HETATM   31  C   UNL     1      19.968  46.417  48.375  1.00  0.00     0.261 C 
HETATM   32  C   UNL     1      19.315  45.036  48.486  1.00  0.00     0.195 C 
HETATM   33  O   UNL     1      19.198  44.430  47.196  1.00  0.00    -0.388 OA
HETATM   34  C   UNL     1      20.471  44.223  46.583  1.00  0.00     0.195 C 
HETATM   35  C   UNL     1      21.194  45.559  46.368  1.00  0.00     0.261 C 
ENDBRANCH  28  29
ENDBRANCH  27  28
ENDBRANCH   6  27
TORSDOF 9
ENDMDL
MODEL 7
REMARK VINA RESULT:      -8.5      4.701      9.556
REMARK  9 active torsions:
REMARK  status: ('A' for Active; 'I' for Inactive)
REMARK    1  A    between atoms: C_7  and  O_8 
REMARK    2  A    between atoms: O_8  and  C_9 
REMARK    3  A    between atoms: C_9  and  C_10 
REMARK    4  A    between atoms: C_10  and  O_11 
REMARK    5  A    between atoms: C_10  and  C_12 
REMARK    6  A    between atoms: C_12  and  N_13 
REMARK    7  A    between atoms: N_18  and  C_19 
REMARK    8  A    between atoms: C_19  and  C_20 
REMARK    9  A    between atoms: C_20  and  N_21 
ROOT
HETATM    1  N   UNL     1      26.533  44.428  52.984  1.00  0.00    -0.179 N 
HETATM    2  C   UNL     1      26.233  43.647  51.884  1.00  0.00     0.681 A 
HETATM    3  N   UNL     1      25.072  43.666  51.230  1.00  0.00    -0.234 N 
HETATM    4  H   UNL     1      24.811  43.043  50.488  1.00  0.00     0.174 HD
HETATM    5  H   UNL     1      24.316  44.238  51.626  1.00  0.00     0.174 HD
HETATM    6  N   UNL     1      27.273  42.794  51.510  1.00  0.00    -0.180 N 
HETATM    7  C   UNL     1      28.275  42.995  52.506  1.00  0.00     0.079 A 
HETATM    8  C   UNL     1      27.832  43.988  53.393  1.00  0.00     0.079 A 
HETATM    9  C   UNL     1      29.488  42.360  52.670  1.00  0.00     0.032 A 
HETATM   10  C   UNL     1      30.266  42.747  53.767  1.00  0.00     0.002 A 
HETATM   11  C   UNL     1      29.823  43.743  54.658  1.00  0.00     0.002 A 
HETATM   12  C   UNL     1      28.589  44.378  54.476  1.00  0.00     0.032 A 
ENDROOT
BRANCH   1  13
HETATM   13  C   UNL     1      25.769  45.484  53.699  1.00  0.00     0.181 C 
BRANCH  13  14
HETATM   14  C   UNL     1      25.473  46.764  52.908  1.00  0.00     0.161 C 
BRANCH  14  15
HETATM   15  C   UNL     1      26.566  47.050  51.864  1.00  0.00     0.209 C 
BRANCH  15  16
HETATM   16  O   UNL     1      26.018  46.645  50.604  1.00  0.00    -0.349 OA
BRANCH  16  17
HETATM   17  C   UNL     1      25.274  47.566  49.921  1.00  0.00     0.069 A 
HETATM   18  C   UNL     1      26.006  48.635  49.402  1.00  0.00     0.038 A 
HETATM   19  C   UNL     1      25.368  49.647  48.684  1.00  0.00     0.027 A 
HETATM   20  C   UNL     1      23.988  49.599  48.485  1.00  0.00     0.040 A 
HETATM   21  C   UNL     1      23.232  48.536  49.004  1.00  0.00    -0.038 A 
HETATM   22 CL   UNL     1      23.255  50.883  47.596  1.00  0.00    -0.084 Cl
HETATM   23  C   UNL     1      21.740  48.469  48.825  1.00  0.00     0.050 C 
HETATM   24  C   UNL     1      23.891  47.523  49.729  1.00  0.00     0.045 A 
ENDBRANCH  16  17
ENDBRANCH  15  16
ENDBRANCH  14  15
BRANCH  14  25
HETATM   25  O   UNL     1      25.393  47.883  53.816  1.00  0.00    -0.392 OA
HETATM   26  H   UNL     1      25.745  47.544  54.675  1.00  0.00     0.210 HD
ENDBRANCH  14  25
ENDBRANCH  13  14
ENDBRANCH   1  13
BRANCH   6  27
HETATM   27  C   UNL     1      27.295  41.784  50.445  1.00  0.00     0.175 C 
BRANCH  27  28
HETATM   28  C   UNL     1      26.666  40.444  50.881  1.00  0.00     0.256 C 
BRANCH  28  29
HETATM   29  N   UNL     1      27.399  39.238  50.325  1.00  0.00    -0.066 N 
HETATM   30  H   UNL     1      26.993  38.371  50.706  1.00  0.00     0.280 HD
HETATM   31  C   UNL     1      27.224  39.145  48.794  1.00  0.00     0.261 C 
HETATM   32  C   UNL     1      27.962  37.912  48.262  1.00  0.00     0.195 C 
HETATM   33  O   UNL     1      29.350  37.972  48.604  1.00  0.00    -0.388 OA
HETATM   34  C   UNL     1      29.554  37.983  50.018  1.00  0.00     0.195 C 
HETATM   35  C   UNL     1      28.900  39.218  50.651  1.00  0.00     0.261 C 
ENDBRANCH  28  29
ENDBRANCH  27  28
ENDBRANCH   6  27
TORSDOF 9
ENDMDL
MODEL 8
REMARK VINA RESULT:      -8.4      2.702      3.571
REMARK  9 active torsions:
REMARK  status: ('A' for Active; 'I' for Inactive)
REMARK    1  A    between atoms: C_7  and  O_8 
REMARK    2  A    between atoms: O_8  and  C_9 
REMARK    3  A    between atoms: C_9  and  C_10 
REMARK    4  A    between atoms: C_10  and  O_11 
REMARK    5  A    between atoms: C_10  and  C_12 
REMARK    6  A    between atoms: C_12  and  N_13 
REMARK    7  A    between atoms: N_18  and  C_19 
REMARK    8  A    between atoms: C_19  and  C_20 
REMARK    9  A    between atoms: C_20  and  N_21 
ROOT
HETATM    1  N   UNL     1      26.677  43.378  50.470  1.00  0.00    -0.179 N 
HETATM    2  C   UNL     1      25.811  43.235  49.402  1.00  0.00     0.681 A 
HETATM    3  N   UNL     1      25.870  42.256  48.499  1.00  0.00    -0.234 N 
HETATM    4  H   UNL     1      25.304  42.191  47.673  1.00  0.00     0.174 HD
HETATM    5  H   UNL     1      26.669  41.612  48.551  1.00  0.00     0.174 HD
HETATM    6  N   UNL     1      24.847  44.242  49.331  1.00  0.00    -0.180 N 
HETATM    7  C   UNL     1      25.188  45.136  50.391  1.00  0.00     0.079 A 
HETATM    8  C   UNL     1      26.289  44.611  51.085  1.00  0.00     0.079 A 
HETATM    9  C   UNL     1      24.614  46.340  50.742  1.00  0.00     0.032 A 
HETATM   10  C   UNL     1      25.180  47.024  51.823  1.00  0.00     0.002 A 
HETATM   11  C   UNL     1      26.285  46.498  52.519  1.00  0.00     0.002 A 
HETATM   12  C   UNL     1      26.854  45.274  52.152  1.00  0.00     0.032 A 
ENDROOT
BRANCH   1  13
HETATM   13  C   UNL     1      27.809  42.546  50.957  1.00  0.00     0.181 C 
BRANCH  13  14
HETATM   14  C   UNL     1      27.517  41.635  52.157  1.00  0.00     0.161 C 
BRANCH  14  15
HETATM   15  C   UNL     1      28.698  41.598  53.141  1.00  0.00     0.209 C 
BRANCH  15  16
HETATM   16  O   UNL     1      29.370  42.855  52.991  1.00  0.00    -0.349 OA
BRANCH  16  17
HETATM   17  C   UNL     1      29.572  43.594  54.124  1.00  0.00     0.069 A 
HETATM   18  C   UNL     1      30.630  43.157  54.922  1.00  0.00     0.038 A 
HETATM   19  C   UNL     1      30.943  43.823  56.108  1.00  0.00     0.027 A 
HETATM   20  C   UNL     1      30.193  44.929  56.506  1.00  0.00     0.040 A 
HETATM   21  C   UNL     1      29.121  45.381  55.721  1.00  0.00    -0.038 A 
HETATM   22 CL   UNL     1      30.624  45.705  57.986  1.00  0.00    -0.084 Cl
HETATM   23  C   UNL     1      28.281  46.558  56.137  1.00  0.00     0.050 C 
HETATM   24  C   UNL     1      28.817  44.697  54.528  1.00  0.00     0.045 A 
ENDBRANCH  16  17
ENDBRANCH  15  16
ENDBRANCH  14  15
BRANCH  14  25
HETATM   25  O   UNL     1      27.258  40.294  51.690  1.00  0.00    -0.392 OA
HETATM   26  H   UNL     1      27.574  40.281  50.754  1.00  0.00     0.210 HD
ENDBRANCH  14  25
ENDBRANCH  13  14
ENDBRANCH   1  13
BRANCH   6  27
HETATM   27  C   UNL     1      23.815  44.456  48.311  1.00  0.00     0.175 C 
BRANCH  27  28
HETATM   28  C   UNL     1      22.386  44.246  48.855  1.00  0.00     0.256 C 
BRANCH  28  29
HETATM   29  N   UNL     1      21.586  45.533  48.928  1.00  0.00    -0.066 N 
HETATM   30  H   UNL     1      21.622  45.918  49.882  1.00  0.00     0.280 HD
HETATM   31  C   UNL     1      22.202  46.616  48.016  1.00  0.00     0.261 C 
HETATM   32  C   UNL     1      21.384  47.907  48.120  1.00  0.00     0.195 C 
HETATM   33  O   UNL     1      20.021  47.668  47.761  1.00  0.00    -0.388 OA
HETATM   34  C   UNL     1      19.394  46.725  48.632  1.00  0.00     0.195 C 
HETATM   35  C   UNL     1      20.104  45.367  48.561  1.00  0.00     0.261 C 
ENDBRANCH  28  29
ENDBRANCH  27  28
ENDBRANCH   6  27
TORSDOF 9
ENDMDL
MODEL 9
REMARK VINA RESULT:      -8.2      4.109      7.530
REMARK  9 active torsions:
REMARK  status: ('A' for Active; 'I' for Inactive)
REMARK    1  A    between atoms: C_7  and  O_8 
REMARK    2  A    between atoms: O_8  and  C_9 
REMARK    3  A    between atoms: C_9  and  C_10 
REMARK    4  A    between atoms: C_10  and  O_11 
REMARK    5  A    between atoms: C_10  and  C_12 
REMARK    6  A    between atoms: C_12  and  N_13 
REMARK    7  A    between atoms: N_18  and  C_19 
REMARK    8  A    between atoms: C_19  and  C_20 
REMARK    9  A    between atoms: C_20  and  N_21 
ROOT
HETATM    1  N   UNL     1      24.915  44.132  51.220  1.00  0.00    -0.179 N 
HETATM    2  C   UNL     1      25.564  42.917  51.117  1.00  0.00     0.681 A 
HETATM    3  N   UNL     1      26.388  42.413  52.036  1.00  0.00    -0.234 N 
HETATM    4  H   UNL     1      26.932  41.576  51.934  1.00  0.00     0.174 HD
HETATM    5  H   UNL     1      26.625  43.011  52.837  1.00  0.00     0.174 HD
HETATM    6  N   UNL     1      25.293  42.243  49.924  1.00  0.00    -0.180 N 
HETATM    7  C   UNL     1      24.475  43.148  49.183  1.00  0.00     0.079 A 
HETATM    8  C   UNL     1      24.239  44.286  49.967  1.00  0.00     0.079 A 
HETATM    9  C   UNL     1      23.971  43.027  47.904  1.00  0.00     0.032 A 
HETATM   10  C   UNL     1      23.212  44.096  47.416  1.00  0.00     0.002 A 
HETATM   11  C   UNL     1      22.975  45.239  48.202  1.00  0.00     0.002 A 
HETATM   12  C   UNL     1      23.492  45.345  49.498  1.00  0.00     0.032 A 
ENDROOT
BRANCH   1  13
HETATM   13  C   UNL     1      24.871  45.155  52.299  1.00  0.00     0.181 C 
BRANCH  13  14
HETATM   14  C   UNL     1      26.009  46.184  52.307  1.00  0.00     0.161 C 
BRANCH  14  15
HETATM   15  C   UNL     1      26.859  46.078  53.584  1.00  0.00     0.209 C 
BRANCH  15  16
HETATM   16  O   UNL     1      27.602  44.861  53.459  1.00  0.00    -0.349 OA
BRANCH  16  17
HETATM   17  C   UNL     1      28.609  44.648  54.359  1.00  0.00     0.069 A 
HETATM   18  C   UNL     1      29.409  43.538  54.085  1.00  0.00     0.038 A 
HETATM   19  C   UNL     1      30.472  43.207  54.926  1.00  0.00     0.027 A 
HETATM   20  C   UNL     1      30.739  43.984  56.053  1.00  0.00     0.040 A 
HETATM   21  C   UNL     1      29.943  45.101  56.350  1.00  0.00    -0.038 A 
HETATM   22 CL   UNL     1      32.062  43.520  57.059  1.00  0.00    -0.084 Cl
HETATM   23  C   UNL     1      30.193  45.944  57.571  1.00  0.00     0.050 C 
HETATM   24  C   UNL     1      28.872  45.421  55.493  1.00  0.00     0.045 A 
ENDBRANCH  16  17
ENDBRANCH  15  16
ENDBRANCH  14  15
BRANCH  14  25
HETATM   25  O   UNL     1      25.454  47.514  52.225  1.00  0.00    -0.392 OA
HETATM   26  H   UNL     1      25.920  47.942  51.467  1.00  0.00     0.210 HD
ENDBRANCH  14  25
ENDBRANCH  13  14
ENDBRANCH   1  13
BRANCH   6  27
HETATM   27  C   UNL     1      25.847  40.974  49.441  1.00  0.00     0.175 C 
BRANCH  27  28
HETATM   28  C   UNL     1      26.395  40.089  50.581  1.00  0.00     0.256 C 
BRANCH  28  29
HETATM   29  N   UNL     1      27.277  38.960  50.081  1.00  0.00    -0.066 N 
HETATM   30  H   UNL     1      26.938  38.059  50.445  1.00  0.00     0.280 HD
HETATM   31  C   UNL     1      27.204  38.845  48.543  1.00  0.00     0.261 C 
HETATM   32  C   UNL     1      28.092  37.690  48.068  1.00  0.00     0.195 C 
HETATM   33  O   UNL     1      29.444  37.890  48.491  1.00  0.00    -0.388 OA
HETATM   34  C   UNL     1      29.561  37.926  49.914  1.00  0.00     0.195 C 
HETATM   35  C   UNL     1      28.750  39.092  50.495  1.00  0.00     0.261 C 
ENDBRANCH  28  29
ENDBRANCH  27  28
ENDBRANCH   6  27
TORSDOF 9
ENDMDL
MODEL 10
REMARK VINA RESULT:      -8.2      1.846      2.626
REMARK  9 active torsions:
REMARK  status: ('A' for Active; 'I' for Inactive)
REMARK    1  A    between atoms: C_7  and  O_8 
REMARK    2  A    between atoms: O_8  and  C_9 
REMARK    3  A    between atoms: C_9  and  C_10 
REMARK    4  A    between atoms: C_10  and  O_11 
REMARK    5  A    between atoms: C_10  and  C_12 
REMARK    6  A    between atoms: C_12  and  N_13 
REMARK    7  A    between atoms: N_18  and  C_19 
REMARK    8  A    between atoms: C_19  and  C_20 
REMARK    9  A    between atoms: C_20  and  N_21 
ROOT
HETATM    1  N   UNL     1      24.211  45.136  50.219  1.00  0.00    -0.179 N 
HETATM    2  C   UNL     1      23.140  44.522  49.599  1.00  0.00     0.681 A 
HETATM    3  N   UNL     1      22.842  43.226  49.697  1.00  0.00    -0.234 N 
HETATM    4  H   UNL     1      22.122  42.754  49.182  1.00  0.00     0.174 HD
HETATM    5  H   UNL     1      23.507  42.625  50.199  1.00  0.00     0.174 HD
HETATM    6  N   UNL     1      22.378  45.393  48.818  1.00  0.00    -0.180 N 
HETATM    7  C   UNL     1      23.076  46.636  48.887  1.00  0.00     0.079 A 
HETATM    8  C   UNL     1      24.180  46.484  49.740  1.00  0.00     0.079 A 
HETATM    9  C   UNL     1      22.809  47.830  48.249  1.00  0.00     0.032 A 
HETATM   10  C   UNL     1      23.690  48.890  48.485  1.00  0.00     0.002 A 
HETATM   11  C   UNL     1      24.798  48.738  49.341  1.00  0.00     0.002 A 
HETATM   12  C   UNL     1      25.055  47.520  49.982  1.00  0.00     0.032 A 
ENDROOT
BRANCH   1  13
HETATM   13  C   UNL     1      25.249  44.628  51.155  1.00  0.00     0.181 C 
BRANCH  13  14
HETATM   14  C   UNL     1      26.433  43.887  50.520  1.00  0.00     0.161 C 
BRANCH  14  15
HETATM   15  C   UNL     1      27.724  44.080  51.332  1.00  0.00     0.209 C 
BRANCH  15  16
HETATM   16  O   UNL     1      27.310  44.214  52.697  1.00  0.00    -0.349 OA
BRANCH  16  17
HETATM   17  C   UNL     1      28.288  44.179  53.652  1.00  0.00     0.069 A 
HETATM   18  C   UNL     1      29.184  43.117  53.529  1.00  0.00     0.038 A 
HETATM   19  C   UNL     1      30.230  42.964  54.441  1.00  0.00     0.027 A 
HETATM   20  C   UNL     1      30.381  43.872  55.489  1.00  0.00     0.040 A 
HETATM   21  C   UNL     1      29.487  44.944  55.634  1.00  0.00    -0.038 A 
HETATM   22 CL   UNL     1      31.688  43.625  56.588  1.00  0.00    -0.084 Cl
HETATM   23  C   UNL     1      29.612  45.926  56.767  1.00  0.00     0.050 C 
HETATM   24  C   UNL     1      28.436  45.084  54.707  1.00  0.00     0.045 A 
ENDBRANCH  16  17
ENDBRANCH  15  16
ENDBRANCH  14  15
BRANCH  14  25
HETATM   25  O   UNL     1      26.647  44.381  49.181  1.00  0.00    -0.392 OA
HETATM   26  H   UNL     1      26.302  45.306  49.189  1.00  0.00     0.210 HD
ENDBRANCH  14  25
ENDBRANCH  13  14
ENDBRANCH   1  13
BRANCH   6  27
HETATM   27  C   UNL     1      21.220  45.092  47.969  1.00  0.00     0.175 C 
BRANCH  27  28
HETATM   28  C   UNL     1      19.878  45.216  48.724  1.00  0.00     0.256 C 
BRANCH  28  29
HETATM   29  N   UNL     1      19.071  46.428  48.299  1.00  0.00    -0.066 N 
HETATM   30  H   UNL     1      19.380  46.750  47.370  1.00  0.00     0.280 HD
HETATM   31  C   UNL     1      17.578  46.067  48.141  1.00  0.00     0.261 C 
HETATM   32  C   UNL     1      16.790  47.304  47.699  1.00  0.00     0.195 C 
HETATM   33  O   UNL     1      16.951  48.366  48.643  1.00  0.00    -0.388 OA
HETATM   34  C   UNL     1      18.314  48.779  48.759  1.00  0.00     0.195 C 
HETATM   35  C   UNL     1      19.190  47.623  49.257  1.00  0.00     0.261 C 
ENDBRANCH  28  29
ENDBRANCH  27  28
ENDBRANCH   6  27
TORSDOF 9
ENDMDL
