MODEL 1
REMARK VINA RESULT:      -8.8      0.000      0.000
REMARK  5 active torsions:
REMARK  status: ('A' for Active; 'I' for Inactive)
REMARK    1  A    between atoms: C_7  and  C_8 
REMARK    2  A    between atoms: N_9  and  C_10 
REMARK    3  A    between atoms: C_10  and  C_11 
REMARK       I    between atoms: C_11  and  N_12 
REMARK    4  A    between atoms: N_12  and  C_13 
REMARK    5  A    between atoms: C_13  and  C_14 
ROOT
HETATM    1  C   UNL     1      27.338  43.335  51.187  1.00  0.00     0.158 C 
HETATM    2  N   UNL     1      27.070  43.170  52.606  1.00  0.00    -0.326 N 
HETATM    3  C   UNL     1      26.734  44.383  53.189  1.00  0.00     0.255 C 
HETATM    4  O   UNL     1      26.627  44.631  54.376  1.00  0.00    -0.267 OA
HETATM    5  C   UNL     1      26.546  45.356  52.106  1.00  0.00     0.040 A 
HETATM    6  C   UNL     1      26.886  44.736  50.905  1.00  0.00    -0.015 A 
HETATM    7  C   UNL     1      26.140  46.675  52.181  1.00  0.00     0.017 A 
HETATM    8  C   UNL     1      26.076  47.394  50.986  1.00  0.00     0.001 A 
HETATM    9  C   UNL     1      26.422  46.787  49.765  1.00  0.00     0.001 A 
HETATM   10  C   UNL     1      26.836  45.452  49.718  1.00  0.00     0.011 A 
ENDROOT
BRANCH   1  11
HETATM   11  C   UNL     1      26.551  42.408  50.313  1.00  0.00     0.004 A 
HETATM   12  C   UNL     1      27.054  41.265  49.688  1.00  0.00     0.017 A 
HETATM   13  C   UNL     1      28.421  40.667  49.747  1.00  0.00     0.069 C 
HETATM   14  N   UNL     1      26.048  40.726  48.917  1.00  0.00    -0.354 N 
HETATM   15  C   UNL     1      26.174  39.571  48.051  1.00  0.00     0.156 C 
HETATM   16  C   UNL     1      24.880  41.441  49.077  1.00  0.00     0.045 A 
HETATM   17  C   UNL     1      25.163  42.504  49.939  1.00  0.00     0.001 A 
HETATM   18  C   UNL     1      23.600  41.242  48.530  1.00  0.00     0.030 A 
HETATM   19  C   UNL     1      24.118  43.403  50.250  1.00  0.00     0.014 A 
HETATM   20  C   UNL     1      22.843  43.215  49.709  1.00  0.00     0.001 A 
HETATM   21  C   UNL     1      22.588  42.146  48.860  1.00  0.00     0.002 A 
ENDBRANCH   1  11
BRANCH   2  22
HETATM   22  C   UNL     1      27.691  42.084  53.351  1.00  0.00     0.229 C 
BRANCH  22  23
HETATM   23  C   UNL     1      29.172  42.265  53.713  1.00  0.00     0.235 C 
HETATM   24  N   UNL     1      29.423  42.841  54.938  1.00  0.00    -0.357 N 
HETATM   25  H   UNL     1      28.630  43.217  55.460  1.00  0.00     0.162 HD
HETATM   26  O   UNL     1      30.063  42.063  52.887  1.00  0.00    -0.272 OA
BRANCH  24  27
HETATM   27  C   UNL     1      30.756  43.272  55.319  1.00  0.00     0.154 C 
BRANCH  27  28
HETATM   28  C   UNL     1      30.755  44.576  56.129  1.00  0.00     0.139 C 
HETATM   29  O   UNL     1      29.438  45.159  56.159  1.00  0.00    -0.384 OA
HETATM   30  C   UNL     1      29.421  46.031  57.292  1.00  0.00     0.168 C 
HETATM   31  C   UNL     1      30.248  45.342  58.355  1.00  0.00     0.029 C 
HETATM   32  C   UNL     1      31.127  44.371  57.592  1.00  0.00     0.035 C 
ENDBRANCH  27  28
ENDBRANCH  24  27
ENDBRANCH  22  23
ENDBRANCH   2  22
TORSDOF 5
ENDMDL
MODEL 2
REMARK VINA RESULT:      -8.5      0.645      2.276
REMARK  5 active torsions:
REMARK  status: ('A' for Active; 'I' for Inactive)
REMARK    1  A    between atoms: C_7  and  C_8 
REMARK    2  A    between atoms: N_9  and  C_10 
REMARK    3  A    between atoms: C_10  and  C_11 
REMARK       I    between atoms: C_11  and  N_12 
REMARK    4  A    between atoms: N_12  and  C_13 
REMARK    5  A    between atoms: C_13  and  C_14 
ROOT
HETATM    1  C   UNL     1      27.138  43.452  51.097  1.00  0.00     0.158 C 
HETATM    2  N   UNL     1      26.786  43.265  52.494  1.00  0.00    -0.326 N 
HETATM    3  C   UNL     1      26.497  44.480  53.097  1.00  0.00     0.255 C 
HETATM    4  O   UNL     1      26.344  44.700  54.285  1.00  0.00    -0.267 OA
HETATM    5  C   UNL     1      26.426  45.493  52.037  1.00  0.00     0.040 A 
HETATM    6  C   UNL     1      26.789  44.887  50.836  1.00  0.00    -0.015 A 
HETATM    7  C   UNL     1      26.100  46.833  52.134  1.00  0.00     0.017 A 
HETATM    8  C   UNL     1      26.143  47.588  50.961  1.00  0.00     0.001 A 
HETATM    9  C   UNL     1      26.514  46.995  49.740  1.00  0.00     0.001 A 
HETATM   10  C   UNL     1      26.846  45.638  49.671  1.00  0.00     0.011 A 
ENDROOT
BRANCH   1  11
HETATM   11  C   UNL     1      26.340  42.603  50.155  1.00  0.00     0.004 A 
HETATM   12  C   UNL     1      24.960  42.689  49.962  1.00  0.00     0.017 A 
HETATM   13  C   UNL     1      23.966  43.620  50.573  1.00  0.00     0.069 C 
HETATM   14  N   UNL     1      24.593  41.699  49.077  1.00  0.00    -0.354 N 
HETATM   15  C   UNL     1      23.238  41.398  48.660  1.00  0.00     0.156 C 
HETATM   16  C   UNL     1      25.704  41.014  48.630  1.00  0.00     0.045 A 
HETATM   17  C   UNL     1      26.811  41.551  49.291  1.00  0.00     0.001 A 
HETATM   18  C   UNL     1      25.822  39.963  47.703  1.00  0.00     0.030 A 
HETATM   19  C   UNL     1      28.082  41.000  49.012  1.00  0.00     0.014 A 
HETATM   20  C   UNL     1      28.210  39.953  48.093  1.00  0.00     0.001 A 
HETATM   21  C   UNL     1      27.092  39.443  47.447  1.00  0.00     0.002 A 
ENDBRANCH   1  11
BRANCH   2  22
HETATM   22  C   UNL     1      27.299  42.120  53.234  1.00  0.00     0.229 C 
BRANCH  22  23
HETATM   23  C   UNL     1      28.795  42.143  53.574  1.00  0.00     0.235 C 
HETATM   24  N   UNL     1      29.157  42.940  54.636  1.00  0.00    -0.357 N 
HETATM   25  H   UNL     1      28.444  43.548  55.041  1.00  0.00     0.162 HD
HETATM   26  O   UNL     1      29.629  41.615  52.835  1.00  0.00    -0.272 OA
BRANCH  24  27
HETATM   27  C   UNL     1      30.549  43.230  54.934  1.00  0.00     0.154 C 
BRANCH  27  28
HETATM   28  C   UNL     1      30.725  44.469  55.822  1.00  0.00     0.139 C 
HETATM   29  O   UNL     1      29.461  45.123  56.047  1.00  0.00    -0.384 OA
HETATM   30  C   UNL     1      29.630  45.909  57.229  1.00  0.00     0.168 C 
HETATM   31  C   UNL     1      30.527  45.097  58.138  1.00  0.00     0.029 C 
HETATM   32  C   UNL     1      31.248  44.136  57.214  1.00  0.00     0.035 C 
ENDBRANCH  27  28
ENDBRANCH  24  27
ENDBRANCH  22  23
ENDBRANCH   2  22
TORSDOF 5
ENDMDL
MODEL 3
REMARK VINA RESULT:      -8.1      3.599      7.184
REMARK  5 active torsions:
REMARK  status: ('A' for Active; 'I' for Inactive)
REMARK    1  A    between atoms: C_7  and  C_8 
REMARK    2  A    between atoms: N_9  and  C_10 
REMARK    3  A    between atoms: C_10  and  C_11 
REMARK       I    between atoms: C_11  and  N_12 
REMARK    4  A    between atoms: N_12  and  C_13 
REMARK    5  A    between atoms: C_13  and  C_14 
ROOT
HETATM    1  C   UNL     1      25.028  44.537  51.373  1.00  0.00     0.158 C 
HETATM    2  N   UNL     1      25.336  45.514  50.342  1.00  0.00    -0.326 N 
HETATM    3  C   UNL     1      25.647  46.743  50.905  1.00  0.00     0.255 C 
HETATM    4  O   UNL     1      25.776  47.809  50.331  1.00  0.00    -0.267 OA
HETATM    5  C   UNL     1      25.777  46.545  52.354  1.00  0.00     0.040 A 
HETATM    6  C   UNL     1      25.428  45.227  52.642  1.00  0.00    -0.015 A 
HETATM    7  C   UNL     1      26.141  47.456  53.327  1.00  0.00     0.017 A 
HETATM    8  C   UNL     1      26.152  47.009  54.650  1.00  0.00     0.001 A 
HETATM    9  C   UNL     1      25.796  45.684  54.961  1.00  0.00     0.001 A 
HETATM   10  C   UNL     1      25.425  44.784  53.957  1.00  0.00     0.011 A 
ENDROOT
BRANCH   1  11
HETATM   11  C   UNL     1      25.824  43.272  51.263  1.00  0.00     0.004 A 
HETATM   12  C   UNL     1      25.414  42.116  50.596  1.00  0.00     0.017 A 
HETATM   13  C   UNL     1      24.165  41.851  49.823  1.00  0.00     0.069 C 
HETATM   14  N   UNL     1      26.382  41.154  50.782  1.00  0.00    -0.354 N 
HETATM   15  C   UNL     1      26.314  39.785  50.311  1.00  0.00     0.156 C 
HETATM   16  C   UNL     1      27.447  41.670  51.490  1.00  0.00     0.045 A 
HETATM   17  C   UNL     1      27.125  42.990  51.812  1.00  0.00     0.001 A 
HETATM   18  C   UNL     1      28.664  41.080  51.877  1.00  0.00     0.030 A 
HETATM   19  C   UNL     1      28.062  43.738  52.560  1.00  0.00     0.014 A 
HETATM   20  C   UNL     1      29.274  43.160  52.951  1.00  0.00     0.001 A 
HETATM   21  C   UNL     1      29.570  41.846  52.613  1.00  0.00     0.002 A 
ENDBRANCH   1  11
BRANCH   2  22
HETATM   22  C   UNL     1      24.770  45.378  49.008  1.00  0.00     0.229 C 
BRANCH  22  23
HETATM   23  C   UNL     1      23.287  45.746  48.857  1.00  0.00     0.235 C 
HETATM   24  N   UNL     1      23.019  47.079  48.642  1.00  0.00    -0.357 N 
HETATM   25  H   UNL     1      23.793  47.741  48.722  1.00  0.00     0.162 HD
HETATM   26  O   UNL     1      22.397  44.925  49.083  1.00  0.00    -0.272 OA
BRANCH  24  27
HETATM   27  C   UNL     1      21.666  47.604  48.698  1.00  0.00     0.154 C 
BRANCH  27  28
HETATM   28  C   UNL     1      21.612  49.075  49.134  1.00  0.00     0.139 C 
HETATM   29  O   UNL     1      22.890  49.506  49.641  1.00  0.00    -0.384 OA
HETATM   30  C   UNL     1      22.890  50.933  49.542  1.00  0.00     0.168 C 
HETATM   31  C   UNL     1      22.145  51.257  48.266  1.00  0.00     0.029 C 
HETATM   32  C   UNL     1      21.304  50.027  47.986  1.00  0.00     0.035 C 
ENDBRANCH  27  28
ENDBRANCH  24  27
ENDBRANCH  22  23
ENDBRANCH   2  22
TORSDOF 5
ENDMDL
MODEL 4
REMARK VINA RESULT:      -8.0     10.449     13.830
REMARK  5 active torsions:
REMARK  status: ('A' for Active; 'I' for Inactive)
REMARK    1  A    between atoms: C_7  and  C_8 
REMARK    2  A    between atoms: N_9  and  C_10 
REMARK    3  A    between atoms: C_10  and  C_11 
REMARK       I    between atoms: C_11  and  N_12 
REMARK    4  A    between atoms: N_12  and  C_13 
REMARK    5  A    between atoms: C_13  and  C_14 
ROOT
HETATM    1  C   UNL     1      17.225  50.264  47.115  1.00  0.00     0.158 C 
HETATM    2  N   UNL     1      16.581  49.106  47.712  1.00  0.00    -0.326 N 
HETATM    3  C   UNL     1      17.315  48.634  48.790  1.00  0.00     0.255 C 
HETATM    4  O   UNL     1      17.157  47.589  49.394  1.00  0.00    -0.267 OA
HETATM    5  C   UNL     1      18.361  49.623  49.080  1.00  0.00     0.040 A 
HETATM    6  C   UNL     1      18.305  50.610  48.097  1.00  0.00    -0.015 A 
HETATM    7  C   UNL     1      19.293  49.631  50.100  1.00  0.00     0.017 A 
HETATM    8  C   UNL     1      20.206  50.687  50.123  1.00  0.00     0.001 A 
HETATM    9  C   UNL     1      20.170  51.688  49.136  1.00  0.00     0.001 A 
HETATM   10  C   UNL     1      19.219  51.652  48.110  1.00  0.00     0.011 A 
ENDROOT
BRANCH   1  11
HETATM   11  C   UNL     1      16.324  51.453  46.979  1.00  0.00     0.004 A 
HETATM   12  C   UNL     1      16.031  52.110  45.783  1.00  0.00     0.017 A 
HETATM   13  C   UNL     1      16.475  51.805  44.391  1.00  0.00     0.069 C 
HETATM   14  N   UNL     1      15.230  53.191  46.079  1.00  0.00    -0.354 N 
HETATM   15  C   UNL     1      14.757  54.177  45.128  1.00  0.00     0.156 C 
HETATM   16  C   UNL     1      14.932  53.217  47.425  1.00  0.00     0.045 A 
HETATM   17  C   UNL     1      15.607  52.147  48.017  1.00  0.00     0.001 A 
HETATM   18  C   UNL     1      14.128  54.099  48.169  1.00  0.00     0.030 A 
HETATM   19  C   UNL     1      15.472  51.968  49.412  1.00  0.00     0.014 A 
HETATM   20  C   UNL     1      14.676  52.840  50.161  1.00  0.00     0.001 A 
HETATM   21  C   UNL     1      14.012  53.892  49.545  1.00  0.00     0.002 A 
ENDBRANCH   1  11
BRANCH   2  22
HETATM   22  C   UNL     1      15.719  48.249  46.910  1.00  0.00     0.229 C 
BRANCH  22  23
HETATM   23  C   UNL     1      16.424  47.214  46.023  1.00  0.00     0.235 C 
HETATM   24  N   UNL     1      16.808  46.049  46.648  1.00  0.00    -0.357 N 
HETATM   25  H   UNL     1      16.716  46.000  47.664  1.00  0.00     0.162 HD
HETATM   26  O   UNL     1      16.769  47.486  44.871  1.00  0.00    -0.272 OA
BRANCH  24  27
HETATM   27  C   UNL     1      17.670  45.080  45.995  1.00  0.00     0.154 C 
BRANCH  27  28
HETATM   28  C   UNL     1      19.121  45.139  46.493  1.00  0.00     0.139 C 
HETATM   29  O   UNL     1      19.788  46.313  45.991  1.00  0.00    -0.384 OA
HETATM   30  C   UNL     1      20.895  46.541  46.868  1.00  0.00     0.168 C 
HETATM   31  C   UNL     1      20.408  46.166  48.251  1.00  0.00     0.029 C 
HETATM   32  C   UNL     1      19.228  45.245  48.009  1.00  0.00     0.035 C 
ENDBRANCH  27  28
ENDBRANCH  24  27
ENDBRANCH  22  23
ENDBRANCH   2  22
TORSDOF 5
ENDMDL
MODEL 5
REMARK VINA RESULT:      -7.9      8.826     11.574
REMARK  5 active torsions:
REMARK  status: ('A' for Active; 'I' for Inactive)
REMARK    1  A    between atoms: C_7  and  C_8 
REMARK    2  A    between atoms: N_9  and  C_10 
REMARK    3  A    between atoms: C_10  and  C_11 
REMARK       I    between atoms: C_11  and  N_12 
REMARK    4  A    between atoms: N_12  and  C_13 
REMARK    5  A    between atoms: C_13  and  C_14 
ROOT
HETATM    1  C   UNL     1      18.930  49.326  46.920  1.00  0.00     0.158 C 
HETATM    2  N   UNL     1      18.923  48.198  47.837  1.00  0.00    -0.326 N 
HETATM    3  C   UNL     1      18.863  48.632  49.153  1.00  0.00     0.255 C 
HETATM    4  O   UNL     1      19.020  47.967  50.160  1.00  0.00    -0.267 OA
HETATM    5  C   UNL     1      18.593  50.075  49.130  1.00  0.00     0.040 A 
HETATM    6  C   UNL     1      18.612  50.496  47.802  1.00  0.00    -0.015 A 
HETATM    7  C   UNL     1      18.380  50.938  50.189  1.00  0.00     0.017 A 
HETATM    8  C   UNL     1      18.177  52.285  49.885  1.00  0.00     0.001 A 
HETATM    9  C   UNL     1      18.200  52.730  48.551  1.00  0.00     0.001 A 
HETATM   10  C   UNL     1      18.425  51.837  47.498  1.00  0.00     0.011 A 
ENDROOT
BRANCH   1  11
HETATM   11  C   UNL     1      17.877  49.247  45.858  1.00  0.00     0.004 A 
HETATM   12  C   UNL     1      16.634  48.625  45.998  1.00  0.00     0.017 A 
HETATM   13  C   UNL     1      16.034  47.946  47.183  1.00  0.00     0.069 C 
HETATM   14  N   UNL     1      15.984  48.700  44.785  1.00  0.00    -0.354 N 
HETATM   15  C   UNL     1      14.693  48.116  44.482  1.00  0.00     0.156 C 
HETATM   16  C   UNL     1      16.736  49.417  43.877  1.00  0.00     0.045 A 
HETATM   17  C   UNL     1      17.928  49.766  44.516  1.00  0.00     0.001 A 
HETATM   18  C   UNL     1      16.464  49.780  42.546  1.00  0.00     0.030 A 
HETATM   19  C   UNL     1      18.885  50.500  43.779  1.00  0.00     0.014 A 
HETATM   20  C   UNL     1      18.625  50.864  42.453  1.00  0.00     0.001 A 
HETATM   21  C   UNL     1      17.429  50.508  41.846  1.00  0.00     0.002 A 
ENDBRANCH   1  11
BRANCH   2  22
HETATM   22  C   UNL     1      19.534  46.934  47.451  1.00  0.00     0.229 C 
BRANCH  22  23
HETATM   23  C   UNL     1      21.066  46.866  47.527  1.00  0.00     0.235 C 
HETATM   24  N   UNL     1      21.617  47.118  48.762  1.00  0.00    -0.357 N 
HETATM   25  H   UNL     1      20.997  47.450  49.503  1.00  0.00     0.162 HD
HETATM   26  O   UNL     1      21.753  46.761  46.509  1.00  0.00    -0.272 OA
BRANCH  24  27
HETATM   27  C   UNL     1      23.047  47.304  48.937  1.00  0.00     0.154 C 
BRANCH  27  28
HETATM   28  C   UNL     1      23.453  48.782  49.017  1.00  0.00     0.139 C 
HETATM   29  O   UNL     1      23.758  49.301  47.707  1.00  0.00    -0.384 OA
HETATM   30  C   UNL     1      23.628  50.722  47.809  1.00  0.00     0.168 C 
HETATM   31  C   UNL     1      22.468  50.963  48.749  1.00  0.00     0.029 C 
HETATM   32  C   UNL     1      22.341  49.679  49.545  1.00  0.00     0.035 C 
ENDBRANCH  27  28
ENDBRANCH  24  27
ENDBRANCH  22  23
ENDBRANCH   2  22
TORSDOF 5
ENDMDL
MODEL 6
REMARK VINA RESULT:      -7.8     12.234     14.204
REMARK  5 active torsions:
REMARK  status: ('A' for Active; 'I' for Inactive)
REMARK    1  A    between atoms: C_7  and  C_8 
REMARK    2  A    between atoms: N_9  and  C_10 
REMARK    3  A    between atoms: C_10  and  C_11 
REMARK       I    between atoms: C_11  and  N_12 
REMARK    4  A    between atoms: N_12  and  C_13 
REMARK    5  A    between atoms: C_13  and  C_14 
ROOT
HETATM    1  C   UNL     1      30.136  49.459  40.243  1.00  0.00     0.158 C 
HETATM    2  N   UNL     1      30.566  49.824  41.583  1.00  0.00    -0.326 N 
HETATM    3  C   UNL     1      30.612  51.203  41.728  1.00  0.00     0.255 C 
HETATM    4  O   UNL     1      31.095  51.835  42.649  1.00  0.00    -0.267 OA
HETATM    5  C   UNL     1      29.985  51.793  40.539  1.00  0.00     0.040 A 
HETATM    6  C   UNL     1      29.680  50.760  39.654  1.00  0.00    -0.015 A 
HETATM    7  C   UNL     1      29.736  53.123  40.256  1.00  0.00     0.017 A 
HETATM    8  C   UNL     1      29.152  53.416  39.022  1.00  0.00     0.001 A 
HETATM    9  C   UNL     1      28.844  52.387  38.113  1.00  0.00     0.001 A 
HETATM   10  C   UNL     1      29.112  51.050  38.422  1.00  0.00     0.011 A 
ENDROOT
BRANCH   1  11
HETATM   11  C   UNL     1      28.979  48.508  40.218  1.00  0.00     0.004 A 
HETATM   12  C   UNL     1      27.694  48.789  40.687  1.00  0.00     0.017 A 
HETATM   13  C   UNL     1      27.143  50.047  41.270  1.00  0.00     0.069 C 
HETATM   14  N   UNL     1      26.938  47.644  40.559  1.00  0.00    -0.354 N 
HETATM   15  C   UNL     1      25.564  47.487  40.993  1.00  0.00     0.156 C 
HETATM   16  C   UNL     1      27.670  46.646  39.952  1.00  0.00     0.045 A 
HETATM   17  C   UNL     1      28.953  47.153  39.733  1.00  0.00     0.001 A 
HETATM   18  C   UNL     1      27.309  45.337  39.584  1.00  0.00     0.030 A 
HETATM   19  C   UNL     1      29.908  46.304  39.129  1.00  0.00     0.014 A 
HETATM   20  C   UNL     1      29.559  45.000  38.761  1.00  0.00     0.001 A 
HETATM   21  C   UNL     1      28.274  44.525  38.986  1.00  0.00     0.002 A 
ENDBRANCH   1  11
BRANCH   2  22
HETATM   22  C   UNL     1      31.406  48.922  42.358  1.00  0.00     0.229 C 
BRANCH  22  23
HETATM   23  C   UNL     1      32.866  48.793  41.904  1.00  0.00     0.235 C 
HETATM   24  N   UNL     1      33.666  49.887  42.139  1.00  0.00    -0.357 N 
HETATM   25  H   UNL     1      33.219  50.742  42.476  1.00  0.00     0.162 HD
HETATM   26  O   UNL     1      33.244  47.836  41.224  1.00  0.00    -0.272 OA
BRANCH  24  27
HETATM   27  C   UNL     1      34.999  49.995  41.573  1.00  0.00     0.154 C 
BRANCH  27  28
HETATM   28  C   UNL     1      35.056  50.911  40.343  1.00  0.00     0.139 C 
HETATM   29  O   UNL     1      34.912  52.292  40.727  1.00  0.00    -0.384 OA
HETATM   30  C   UNL     1      35.463  53.058  39.652  1.00  0.00     0.168 C 
HETATM   31  C   UNL     1      36.649  52.265  39.148  1.00  0.00     0.029 C 
HETATM   32  C   UNL     1      36.390  50.845  39.611  1.00  0.00     0.035 C 
ENDBRANCH  27  28
ENDBRANCH  24  27
ENDBRANCH  22  23
ENDBRANCH   2  22
TORSDOF 5
ENDMDL
MODEL 7
REMARK VINA RESULT:      -7.6      6.914     11.036
REMARK  5 active torsions:
REMARK  status: ('A' for Active; 'I' for Inactive)
REMARK    1  A    between atoms: C_7  and  C_8 
REMARK    2  A    between atoms: N_9  and  C_10 
REMARK    3  A    between atoms: C_10  and  C_11 
REMARK       I    between atoms: C_11  and  N_12 
REMARK    4  A    between atoms: N_12  and  C_13 
REMARK    5  A    between atoms: C_13  and  C_14 
ROOT
HETATM    1  C   UNL     1      21.728  48.687  48.302  1.00  0.00     0.158 C 
HETATM    2  N   UNL     1      20.862  48.951  49.439  1.00  0.00    -0.326 N 
HETATM    3  C   UNL     1      19.848  48.009  49.517  1.00  0.00     0.255 C 
HETATM    4  O   UNL     1      18.862  48.038  50.230  1.00  0.00    -0.267 OA
HETATM    5  C   UNL     1      20.157  46.947  48.551  1.00  0.00     0.040 A 
HETATM    6  C   UNL     1      21.288  47.332  47.833  1.00  0.00    -0.015 A 
HETATM    7  C   UNL     1      19.482  45.765  48.311  1.00  0.00     0.017 A 
HETATM    8  C   UNL     1      19.977  44.939  47.299  1.00  0.00     0.001 A 
HETATM    9  C   UNL     1      21.113  45.315  46.559  1.00  0.00     0.001 A 
HETATM   10  C   UNL     1      21.774  46.520  46.819  1.00  0.00     0.011 A 
ENDROOT
BRANCH   1  11
HETATM   11  C   UNL     1      23.182  48.604  48.656  1.00  0.00     0.004 A 
HETATM   12  C   UNL     1      24.133  49.592  48.393  1.00  0.00     0.017 A 
HETATM   13  C   UNL     1      23.968  50.934  47.762  1.00  0.00     0.069 C 
HETATM   14  N   UNL     1      25.360  49.116  48.800  1.00  0.00    -0.354 N 
HETATM   15  C   UNL     1      26.627  49.804  48.643  1.00  0.00     0.156 C 
HETATM   16  C   UNL     1      25.227  47.876  49.389  1.00  0.00     0.045 A 
HETATM   17  C   UNL     1      23.878  47.525  49.308  1.00  0.00     0.001 A 
HETATM   18  C   UNL     1      26.186  47.034  49.980  1.00  0.00     0.030 A 
HETATM   19  C   UNL     1      23.484  46.274  49.834  1.00  0.00     0.014 A 
HETATM   20  C   UNL     1      24.430  45.429  50.422  1.00  0.00     0.001 A 
HETATM   21  C   UNL     1      25.764  45.806  50.494  1.00  0.00     0.002 A 
ENDBRANCH   1  11
BRANCH   2  22
HETATM   22  C   UNL     1      20.721  50.305  49.956  1.00  0.00     0.229 C 
BRANCH  22  23
HETATM   23  C   UNL     1      19.762  51.229  49.193  1.00  0.00     0.235 C 
HETATM   24  N   UNL     1      18.422  50.952  49.336  1.00  0.00    -0.357 N 
HETATM   25  H   UNL     1      18.161  50.094  49.825  1.00  0.00     0.162 HD
HETATM   26  O   UNL     1      20.180  52.053  48.377  1.00  0.00    -0.272 OA
BRANCH  24  27
HETATM   27  C   UNL     1      17.417  51.597  48.509  1.00  0.00     0.154 C 
BRANCH  27  28
HETATM   28  C   UNL     1      16.762  50.637  47.506  1.00  0.00     0.139 C 
HETATM   29  O   UNL     1      17.692  49.619  47.089  1.00  0.00    -0.384 OA
HETATM   30  C   UNL     1      16.895  48.540  46.592  1.00  0.00     0.168 C 
HETATM   31  C   UNL     1      15.669  48.492  47.478  1.00  0.00     0.029 C 
HETATM   32  C   UNL     1      15.581  49.875  48.093  1.00  0.00     0.035 C 
ENDBRANCH  27  28
ENDBRANCH  24  27
ENDBRANCH  22  23
ENDBRANCH   2  22
TORSDOF 5
ENDMDL
MODEL 8
REMARK VINA RESULT:      -7.6      9.228     11.991
REMARK  5 active torsions:
REMARK  status: ('A' for Active; 'I' for Inactive)
REMARK    1  A    between atoms: C_7  and  C_8 
REMARK    2  A    between atoms: N_9  and  C_10 
REMARK    3  A    between atoms: C_10  and  C_11 
REMARK       I    between atoms: C_11  and  N_12 
REMARK    4  A    between atoms: N_12  and  C_13 
REMARK    5  A    between atoms: C_13  and  C_14 
ROOT
HETATM    1  C   UNL     1      18.657  49.566  46.552  1.00  0.00     0.158 C 
HETATM    2  N   UNL     1      18.558  48.343  47.330  1.00  0.00    -0.326 N 
HETATM    3  C   UNL     1      18.511  48.623  48.687  1.00  0.00     0.255 C 
HETATM    4  O   UNL     1      18.606  47.836  49.610  1.00  0.00    -0.267 OA
HETATM    5  C   UNL     1      18.344  50.075  48.833  1.00  0.00     0.040 A 
HETATM    6  C   UNL     1      18.412  50.646  47.563  1.00  0.00    -0.015 A 
HETATM    7  C   UNL     1      18.179  50.821  49.984  1.00  0.00     0.017 A 
HETATM    8  C   UNL     1      18.076  52.206  49.840  1.00  0.00     0.001 A 
HETATM    9  C   UNL     1      18.149  52.801  48.567  1.00  0.00     0.001 A 
HETATM   10  C   UNL     1      18.324  52.023  47.418  1.00  0.00     0.011 A 
ENDROOT
BRANCH   1  11
HETATM   11  C   UNL     1      17.616  49.688  45.482  1.00  0.00     0.004 A 
HETATM   12  C   UNL     1      17.828  50.210  44.204  1.00  0.00     0.017 A 
HETATM   13  C   UNL     1      19.083  50.723  43.578  1.00  0.00     0.069 C 
HETATM   14  N   UNL     1      16.619  50.220  43.545  1.00  0.00    -0.354 N 
HETATM   15  C   UNL     1      16.387  50.748  42.215  1.00  0.00     0.156 C 
HETATM   16  C   UNL     1      15.636  49.651  44.328  1.00  0.00     0.045 A 
HETATM   17  C   UNL     1      16.226  49.315  45.548  1.00  0.00     0.001 A 
HETATM   18  C   UNL     1      14.276  49.412  44.062  1.00  0.00     0.030 A 
HETATM   19  C   UNL     1      15.410  48.725  46.539  1.00  0.00     0.014 A 
HETATM   20  C   UNL     1      14.056  48.485  46.286  1.00  0.00     0.001 A 
HETATM   21  C   UNL     1      13.498  48.824  45.061  1.00  0.00     0.002 A 
ENDBRANCH   1  11
BRANCH   2  22
HETATM   22  C   UNL     1      19.083  47.091  46.802  1.00  0.00     0.229 C 
BRANCH  22  23
HETATM   23  C   UNL     1      20.601  46.891  46.907  1.00  0.00     0.235 C 
HETATM   24  N   UNL     1      21.155  47.142  48.142  1.00  0.00    -0.357 N 
HETATM   25  H   UNL     1      20.556  47.557  48.858  1.00  0.00     0.162 HD
HETATM   26  O   UNL     1      21.291  46.684  45.907  1.00  0.00    -0.272 OA
BRANCH  24  27
HETATM   27  C   UNL     1      22.592  47.206  48.335  1.00  0.00     0.154 C 
BRANCH  27  28
HETATM   28  C   UNL     1      23.084  48.611  48.712  1.00  0.00     0.139 C 
HETATM   29  O   UNL     1      23.562  49.315  47.550  1.00  0.00    -0.384 OA
HETATM   30  C   UNL     1      23.515  50.704  47.886  1.00  0.00     0.168 C 
HETATM   31  C   UNL     1      22.278  50.880  48.740  1.00  0.00     0.029 C 
HETATM   32  C   UNL     1      21.982  49.495  49.282  1.00  0.00     0.035 C 
ENDBRANCH  27  28
ENDBRANCH  24  27
ENDBRANCH  22  23
ENDBRANCH   2  22
TORSDOF 5
ENDMDL
MODEL 9
REMARK VINA RESULT:      -7.6     11.139     14.184
REMARK  5 active torsions:
REMARK  status: ('A' for Active; 'I' for Inactive)
REMARK    1  A    between atoms: C_7  and  C_8 
REMARK    2  A    between atoms: N_9  and  C_10 
REMARK    3  A    between atoms: C_10  and  C_11 
REMARK       I    between atoms: C_11  and  N_12 
REMARK    4  A    between atoms: N_12  and  C_13 
REMARK    5  A    between atoms: C_13  and  C_14 
ROOT
HETATM    1  C   UNL     1      16.610  51.324  47.869  1.00  0.00     0.158 C 
HETATM    2  N   UNL     1      17.913  51.617  47.294  1.00  0.00    -0.326 N 
HETATM    3  C   UNL     1      18.306  50.610  46.425  1.00  0.00     0.255 C 
HETATM    4  O   UNL     1      19.402  50.453  45.921  1.00  0.00    -0.267 OA
HETATM    5  C   UNL     1      17.152  49.723  46.226  1.00  0.00     0.040 A 
HETATM    6  C   UNL     1      16.128  50.152  47.069  1.00  0.00    -0.015 A 
HETATM    7  C   UNL     1      17.032  48.623  45.398  1.00  0.00     0.017 A 
HETATM    8  C   UNL     1      15.821  47.930  45.426  1.00  0.00     0.001 A 
HETATM    9  C   UNL     1      14.779  48.343  46.276  1.00  0.00     0.001 A 
HETATM   10  C   UNL     1      14.929  49.456  47.109  1.00  0.00     0.011 A 
ENDROOT
BRANCH   1  11
HETATM   11  C   UNL     1      15.617  52.434  47.709  1.00  0.00     0.004 A 
HETATM   12  C   UNL     1      14.923  53.053  48.751  1.00  0.00     0.017 A 
HETATM   13  C   UNL     1      15.005  52.821  50.223  1.00  0.00     0.069 C 
HETATM   14  N   UNL     1      14.055  53.968  48.197  1.00  0.00    -0.354 N 
HETATM   15  C   UNL     1      13.100  54.776  48.929  1.00  0.00     0.156 C 
HETATM   16  C   UNL     1      14.212  54.017  46.828  1.00  0.00     0.045 A 
HETATM   17  C   UNL     1      15.177  53.064  46.491  1.00  0.00     0.001 A 
HETATM   18  C   UNL     1      13.580  54.818  45.860  1.00  0.00     0.030 A 
HETATM   19  C   UNL     1      15.507  52.909  45.126  1.00  0.00     0.014 A 
HETATM   20  C   UNL     1      14.883  53.699  44.155  1.00  0.00     0.001 A 
HETATM   21  C   UNL     1      13.932  54.642  44.520  1.00  0.00     0.002 A 
ENDBRANCH   1  11
BRANCH   2  22
HETATM   22  C   UNL     1      18.863  52.452  48.014  1.00  0.00     0.229 C 
BRANCH  22  23
HETATM   23  C   UNL     1      19.681  51.760  49.114  1.00  0.00     0.235 C 
HETATM   24  N   UNL     1      20.824  51.118  48.698  1.00  0.00    -0.357 N 
HETATM   25  H   UNL     1      20.986  51.035  47.692  1.00  0.00     0.162 HD
HETATM   26  O   UNL     1      19.246  51.650  50.262  1.00  0.00    -0.272 OA
BRANCH  24  27
HETATM   27  C   UNL     1      21.574  50.243  49.582  1.00  0.00     0.154 C 
BRANCH  27  28
HETATM   28  C   UNL     1      23.093  50.393  49.426  1.00  0.00     0.139 C 
HETATM   29  O   UNL     1      23.752  49.122  49.587  1.00  0.00    -0.384 OA
HETATM   30  C   UNL     1      25.026  49.258  48.950  1.00  0.00     0.168 C 
HETATM   31  C   UNL     1      24.789  50.130  47.736  1.00  0.00     0.029 C 
HETATM   32  C   UNL     1      23.506  50.878  48.042  1.00  0.00     0.035 C 
ENDBRANCH  27  28
ENDBRANCH  24  27
ENDBRANCH  22  23
ENDBRANCH   2  22
TORSDOF 5
ENDMDL
MODEL 10
REMARK VINA RESULT:      -7.6     16.535     18.740
REMARK  5 active torsions:
REMARK  status: ('A' for Active; 'I' for Inactive)
REMARK    1  A    between atoms: C_7  and  C_8 
REMARK    2  A    between atoms: N_9  and  C_10 
REMARK    3  A    between atoms: C_10  and  C_11 
REMARK       I    between atoms: C_11  and  N_12 
REMARK    4  A    between atoms: N_12  and  C_13 
REMARK    5  A    between atoms: C_13  and  C_14 
ROOT
HETATM    1  C   UNL     1      37.337  44.975  64.886  1.00  0.00     0.158 C 
HETATM    2  N   UNL     1      36.515  44.114  65.719  1.00  0.00    -0.326 N 
HETATM    3  C   UNL     1      36.587  42.797  65.290  1.00  0.00     0.255 C 
HETATM    4  O   UNL     1      35.894  41.862  65.647  1.00  0.00    -0.267 OA
HETATM    5  C   UNL     1      37.657  42.717  64.288  1.00  0.00     0.040 A 
HETATM    6  C   UNL     1      38.124  44.009  64.052  1.00  0.00    -0.015 A 
HETATM    7  C   UNL     1      38.148  41.608  63.625  1.00  0.00     0.017 A 
HETATM    8  C   UNL     1      39.157  41.820  62.684  1.00  0.00     0.001 A 
HETATM    9  C   UNL     1      39.637  43.118  62.428  1.00  0.00     0.001 A 
HETATM   10  C   UNL     1      39.118  44.224  63.108  1.00  0.00     0.011 A 
ENDROOT
BRANCH   1  11
HETATM   11  C   UNL     1      38.307  45.816  65.659  1.00  0.00     0.004 A 
HETATM   12  C   UNL     1      39.206  45.338  66.616  1.00  0.00     0.017 A 
HETATM   13  C   UNL     1      39.460  43.941  67.074  1.00  0.00     0.069 C 
HETATM   14  N   UNL     1      39.868  46.421  67.152  1.00  0.00    -0.354 N 
HETATM   15  C   UNL     1      40.838  46.369  68.227  1.00  0.00     0.156 C 
HETATM   16  C   UNL     1      39.480  47.585  66.522  1.00  0.00     0.045 A 
HETATM   17  C   UNL     1      38.500  47.241  65.589  1.00  0.00     0.001 A 
HETATM   18  C   UNL     1      39.909  48.912  66.703  1.00  0.00     0.030 A 
HETATM   19  C   UNL     1      37.925  48.276  64.818  1.00  0.00     0.014 A 
HETATM   20  C   UNL     1      38.343  49.600  64.991  1.00  0.00     0.001 A 
HETATM   21  C   UNL     1      39.324  49.912  65.923  1.00  0.00     0.002 A 
ENDBRANCH   1  11
BRANCH   2  22
HETATM   22  C   UNL     1      35.355  44.653  66.414  1.00  0.00     0.229 C 
BRANCH  22  23
HETATM   23  C   UNL     1      35.506  44.871  67.926  1.00  0.00     0.235 C 
HETATM   24  N   UNL     1      34.716  45.856  68.472  1.00  0.00    -0.357 N 
HETATM   25  H   UNL     1      34.185  46.451  67.834  1.00  0.00     0.162 HD
HETATM   26  O   UNL     1      36.399  44.313  68.567  1.00  0.00    -0.272 OA
BRANCH  24  27
HETATM   27  C   UNL     1      34.907  46.320  69.835  1.00  0.00     0.154 C 
BRANCH  27  28
HETATM   28  C   UNL     1      35.603  47.686  69.911  1.00  0.00     0.139 C 
HETATM   29  O   UNL     1      37.036  47.532  69.901  1.00  0.00    -0.384 OA
HETATM   30  C   UNL     1      37.563  48.792  69.476  1.00  0.00     0.168 C 
HETATM   31  C   UNL     1      36.593  49.314  68.438  1.00  0.00     0.029 C 
HETATM   32  C   UNL     1      35.296  48.579  68.716  1.00  0.00     0.035 C 
ENDBRANCH  27  28
ENDBRANCH  24  27
ENDBRANCH  22  23
ENDBRANCH   2  22
TORSDOF 5
ENDMDL
