MODEL 1
REMARK VINA RESULT:      -9.6      0.000      0.000
REMARK  8 active torsions:
REMARK  status: ('A' for Active; 'I' for Inactive)
REMARK    1  A    between atoms: C_2  and  S_3 
REMARK    2  A    between atoms: C_2  and  C_24 
REMARK    3  A    between atoms: S_3  and  C_4 
REMARK    4  A    between atoms: N_5  and  C_6 
REMARK    5  A    between atoms: C_13  and  C_14 
REMARK    6  A    between atoms: C_14  and  N_15 
REMARK       I    between atoms: C_24  and  N_25 
REMARK    7  A    between atoms: N_25  and  C_26 
REMARK    8  A    between atoms: C_29  and  C_30 
REMARK       I    between atoms: C_30  and  N_31 
ROOT
HETATM    1  C   UNL     1      25.817  46.608  51.321  1.00  0.00     0.197 A 
HETATM    2  N   UNL     1      26.003  45.382  51.935  1.00  0.00    -0.274 N 
HETATM    3  C   UNL     1      26.137  45.703  53.282  1.00  0.00     0.161 A 
HETATM    4  N   UNL     1      26.020  47.007  53.442  1.00  0.00    -0.132 NA
HETATM    5  N   UNL     1      25.782  47.563  52.222  1.00  0.00    -0.122 NA
ENDROOT
BRANCH   1   6
HETATM    6  S   UNL     1      25.371  46.863  49.668  1.00  0.00    -0.076 SA
BRANCH   6   7
HETATM    7  C   UNL     1      25.562  48.663  49.416  1.00  0.00     0.143 C 
HETATM    8  C   UNL     1      26.917  48.959  48.783  1.00  0.00     0.031 C 
BRANCH   7   9
HETATM    9  C   UNL     1      24.410  49.304  48.643  1.00  0.00     0.236 C 
HETATM   10  N   UNL     1      23.180  49.238  49.271  1.00  0.00    -0.326 N 
HETATM   11  H   UNL     1      23.206  49.113  50.278  1.00  0.00     0.169 HD
HETATM   12  O   UNL     1      24.637  49.891  47.584  1.00  0.00    -0.272 OA
BRANCH  10  13
HETATM   13  C   UNL     1      21.970  49.742  48.752  1.00  0.00     0.034 A 
HETATM   14  C   UNL     1      21.190  49.048  47.825  1.00  0.00     0.030 A 
HETATM   15  C   UNL     1      20.008  49.612  47.330  1.00  0.00     0.019 A 
HETATM   16  C   UNL     1      19.607  50.880  47.758  1.00  0.00     0.032 A 
HETATM   17  C   UNL     1      20.380  51.573  48.695  1.00  0.00     0.019 A 
HETATM   18  C   UNL     1      21.545  50.996  49.205  1.00  0.00     0.030 A 
BRANCH  16  19
HETATM   19  C   UNL     1      18.402  51.548  47.210  1.00  0.00     0.249 C 
HETATM   20  N   UNL     1      18.122  52.806  47.664  1.00  0.00    -0.366 N 
HETATM   21  H   UNL     1      18.801  53.365  48.162  1.00  0.00     0.159 HD
HETATM   22  H   UNL     1      17.368  53.297  47.199  1.00  0.00     0.159 HD
HETATM   23  O   UNL     1      17.702  50.998  46.369  1.00  0.00    -0.268 OA
ENDBRANCH  16  19
ENDBRANCH  10  13
ENDBRANCH   7   9
ENDBRANCH   6   7
ENDBRANCH   1   6
BRANCH   2  24
HETATM   24  C   UNL     1      26.059  44.092  51.353  1.00  0.00     0.043 A 
HETATM   25  C   UNL     1      27.293  43.549  50.965  1.00  0.00     0.033 A 
HETATM   26  C   UNL     1      27.340  42.283  50.380  1.00  0.00     0.044 A 
HETATM   27  C   UNL     1      26.164  41.569  50.185  1.00  0.00     0.116 A 
HETATM   28  F   UNL     1      26.211  40.358  49.618  1.00  0.00    -0.206 F 
HETATM   29  C   UNL     1      24.935  42.097  50.566  1.00  0.00     0.044 A 
HETATM   30  C   UNL     1      24.878  43.363  51.154  1.00  0.00     0.033 A 
ENDBRANCH   2  24
BRANCH   3  31
HETATM   31  C   UNL     1      26.530  44.769  54.372  1.00  0.00     0.315 C 
BRANCH  31  32
HETATM   32  N   UNL     1      28.047  44.663  54.515  1.00  0.00    -0.064 N 
HETATM   33  H   UNL     1      28.420  45.202  53.716  1.00  0.00     0.280 HD
HETATM   34  C   UNL     1      28.560  45.349  55.762  1.00  0.00     0.235 C 
HETATM   35  C   UNL     1      30.082  45.344  55.753  1.00  0.00     0.028 C 
HETATM   36  C   UNL     1      30.636  43.930  55.627  1.00  0.00     0.003 C 
HETATM   37  C   UNL     1      30.061  43.222  54.406  1.00  0.00     0.028 C 
HETATM   38  C   UNL     1      28.538  43.245  54.399  1.00  0.00     0.235 C 
ENDBRANCH  31  32
ENDBRANCH   3  31
TORSDOF 8
ENDMDL
MODEL 2
REMARK VINA RESULT:      -9.4      3.493     10.128
REMARK  8 active torsions:
REMARK  status: ('A' for Active; 'I' for Inactive)
REMARK    1  A    between atoms: C_2  and  S_3 
REMARK    2  A    between atoms: C_2  and  C_24 
REMARK    3  A    between atoms: S_3  and  C_4 
REMARK    4  A    between atoms: N_5  and  C_6 
REMARK    5  A    between atoms: C_13  and  C_14 
REMARK    6  A    between atoms: C_14  and  N_15 
REMARK       I    between atoms: C_24  and  N_25 
REMARK    7  A    between atoms: N_25  and  C_26 
REMARK    8  A    between atoms: C_29  and  C_30 
REMARK       I    between atoms: C_30  and  N_31 
ROOT
HETATM    1  C   UNL     1      25.277  46.868  49.891  1.00  0.00     0.197 A 
HETATM    2  N   UNL     1      24.060  46.412  49.414  1.00  0.00    -0.274 N 
HETATM    3  C   UNL     1      23.294  47.568  49.303  1.00  0.00     0.161 A 
HETATM    4  N   UNL     1      24.010  48.614  49.669  1.00  0.00    -0.132 NA
HETATM    5  N   UNL     1      25.258  48.178  49.998  1.00  0.00    -0.122 NA
ENDROOT
BRANCH   1   6
HETATM    6  S   UNL     1      26.730  45.939  50.032  1.00  0.00    -0.076 SA
BRANCH   6   7
HETATM    7  C   UNL     1      26.353  44.694  51.316  1.00  0.00     0.143 C 
HETATM    8  C   UNL     1      26.668  43.297  50.794  1.00  0.00     0.031 C 
BRANCH   7   9
HETATM    9  C   UNL     1      27.021  44.973  52.662  1.00  0.00     0.236 C 
HETATM   10  N   UNL     1      28.116  44.178  52.945  1.00  0.00    -0.326 N 
HETATM   11  H   UNL     1      28.577  43.762  52.143  1.00  0.00     0.169 HD
HETATM   12  O   UNL     1      26.619  45.905  53.361  1.00  0.00    -0.272 OA
BRANCH  10  13
HETATM   13  C   UNL     1      28.883  44.236  54.125  1.00  0.00     0.034 A 
HETATM   14  C   UNL     1      28.820  45.303  55.025  1.00  0.00     0.030 A 
HETATM   15  C   UNL     1      29.625  45.312  56.171  1.00  0.00     0.019 A 
HETATM   16  C   UNL     1      30.503  44.253  56.416  1.00  0.00     0.032 A 
HETATM   17  C   UNL     1      30.560  43.178  55.523  1.00  0.00     0.019 A 
HETATM   18  C   UNL     1      29.738  43.161  54.395  1.00  0.00     0.030 A 
BRANCH  16  19
HETATM   19  C   UNL     1      31.426  44.252  57.576  1.00  0.00     0.249 C 
HETATM   20  N   UNL     1      31.220  45.200  58.539  1.00  0.00    -0.366 N 
HETATM   21  H   UNL     1      30.361  45.728  58.604  1.00  0.00     0.159 HD
HETATM   22  H   UNL     1      31.779  45.117  59.380  1.00  0.00     0.159 HD
HETATM   23  O   UNL     1      32.321  43.422  57.673  1.00  0.00    -0.268 OA
ENDBRANCH  16  19
ENDBRANCH  10  13
ENDBRANCH   7   9
ENDBRANCH   6   7
ENDBRANCH   1   6
BRANCH   2  24
HETATM   24  C   UNL     1      23.660  45.088  49.111  1.00  0.00     0.043 A 
HETATM   25  C   UNL     1      23.715  44.624  47.788  1.00  0.00     0.033 A 
HETATM   26  C   UNL     1      23.306  43.322  47.494  1.00  0.00     0.044 A 
HETATM   27  C   UNL     1      22.847  42.496  48.512  1.00  0.00     0.116 A 
HETATM   28  F   UNL     1      22.451  41.250  48.227  1.00  0.00    -0.206 F 
HETATM   29  C   UNL     1      22.789  42.946  49.827  1.00  0.00     0.044 A 
HETATM   30  C   UNL     1      23.198  44.247  50.132  1.00  0.00     0.033 A 
ENDBRANCH   2  24
BRANCH   3  31
HETATM   31  C   UNL     1      21.839  47.630  48.998  1.00  0.00     0.315 C 
BRANCH  31  32
HETATM   32  N   UNL     1      21.252  49.010  49.285  1.00  0.00    -0.064 N 
HETATM   33  H   UNL     1      21.879  49.414  50.001  1.00  0.00     0.280 HD
HETATM   34  C   UNL     1      21.332  49.933  48.088  1.00  0.00     0.235 C 
HETATM   35  C   UNL     1      20.883  51.329  48.493  1.00  0.00     0.028 C 
HETATM   36  C   UNL     1      19.482  51.314  49.093  1.00  0.00     0.003 C 
HETATM   37  C   UNL     1      19.392  50.331  50.254  1.00  0.00     0.028 C 
HETATM   38  C   UNL     1      19.863  48.938  49.859  1.00  0.00     0.235 C 
ENDBRANCH  31  32
ENDBRANCH   3  31
TORSDOF 8
ENDMDL
MODEL 3
REMARK VINA RESULT:      -9.0      3.400      9.815
REMARK  8 active torsions:
REMARK  status: ('A' for Active; 'I' for Inactive)
REMARK    1  A    between atoms: C_2  and  S_3 
REMARK    2  A    between atoms: C_2  and  C_24 
REMARK    3  A    between atoms: S_3  and  C_4 
REMARK    4  A    between atoms: N_5  and  C_6 
REMARK    5  A    between atoms: C_13  and  C_14 
REMARK    6  A    between atoms: C_14  and  N_15 
REMARK       I    between atoms: C_24  and  N_25 
REMARK    7  A    between atoms: N_25  and  C_26 
REMARK    8  A    between atoms: C_29  and  C_30 
REMARK       I    between atoms: C_30  and  N_31 
ROOT
HETATM    1  C   UNL     1      22.144  46.717  48.439  1.00  0.00     0.197 A 
HETATM    2  N   UNL     1      22.607  47.970  48.800  1.00  0.00    -0.274 N 
HETATM    3  C   UNL     1      21.453  48.660  49.156  1.00  0.00     0.161 A 
HETATM    4  N   UNL     1      20.405  47.869  49.030  1.00  0.00    -0.132 NA
HETATM    5  N   UNL     1      20.844  46.647  48.620  1.00  0.00    -0.122 NA
ENDROOT
BRANCH   1   6
HETATM    6  S   UNL     1      23.119  45.326  48.105  1.00  0.00    -0.076 SA
BRANCH   6   7
HETATM    7  C   UNL     1      23.151  44.403  49.682  1.00  0.00     0.143 C 
HETATM    8  C   UNL     1      22.836  42.933  49.430  1.00  0.00     0.031 C 
BRANCH   7   9
HETATM    9  C   UNL     1      24.442  44.589  50.480  1.00  0.00     0.236 C 
HETATM   10  N   UNL     1      24.261  44.936  51.806  1.00  0.00    -0.326 N 
HETATM   11  H   UNL     1      23.360  44.694  52.205  1.00  0.00     0.169 HD
HETATM   12  O   UNL     1      25.527  44.353  49.948  1.00  0.00    -0.272 OA
BRANCH  10  13
HETATM   13  C   UNL     1      25.293  45.177  52.735  1.00  0.00     0.034 A 
HETATM   14  C   UNL     1      25.959  46.401  52.835  1.00  0.00     0.030 A 
HETATM   15  C   UNL     1      26.992  46.571  53.765  1.00  0.00     0.019 A 
HETATM   16  C   UNL     1      27.367  45.510  54.594  1.00  0.00     0.032 A 
HETATM   17  C   UNL     1      26.694  44.288  54.504  1.00  0.00     0.019 A 
HETATM   18  C   UNL     1      25.648  44.130  53.593  1.00  0.00     0.030 A 
BRANCH  16  19
HETATM   19  C   UNL     1      28.500  45.621  55.543  1.00  0.00     0.249 C 
HETATM   20  N   UNL     1      28.311  46.388  56.657  1.00  0.00    -0.366 N 
HETATM   21  H   UNL     1      27.394  46.681  56.964  1.00  0.00     0.159 HD
HETATM   22  H   UNL     1      29.047  46.362  57.354  1.00  0.00     0.159 HD
HETATM   23  O   UNL     1      29.554  45.030  55.341  1.00  0.00    -0.268 OA
ENDBRANCH  16  19
ENDBRANCH  10  13
ENDBRANCH   7   9
ENDBRANCH   6   7
ENDBRANCH   1   6
BRANCH   2  24
HETATM   24  C   UNL     1      23.935  48.463  48.806  1.00  0.00     0.043 A 
HETATM   25  C   UNL     1      24.898  47.875  49.639  1.00  0.00     0.033 A 
HETATM   26  C   UNL     1      26.202  48.375  49.650  1.00  0.00     0.044 A 
HETATM   27  C   UNL     1      26.535  49.451  48.837  1.00  0.00     0.116 A 
HETATM   28  F   UNL     1      27.784  49.932  48.853  1.00  0.00    -0.206 F 
HETATM   29  C   UNL     1      25.588  50.041  48.007  1.00  0.00     0.044 A 
HETATM   30  C   UNL     1      24.281  49.547  47.987  1.00  0.00     0.033 A 
ENDBRANCH   2  24
BRANCH   3  31
HETATM   31  C   UNL     1      21.359  50.114  49.460  1.00  0.00     0.315 C 
BRANCH  31  32
HETATM   32  N   UNL     1      19.978  50.678  49.133  1.00  0.00    -0.064 N 
HETATM   33  H   UNL     1      19.574  50.002  48.463  1.00  0.00     0.280 HD
HETATM   34  C   UNL     1      19.056  50.685  50.332  1.00  0.00     0.235 C 
HETATM   35  C   UNL     1      17.659  51.103  49.896  1.00  0.00     0.028 C 
HETATM   36  C   UNL     1      17.674  52.458  49.198  1.00  0.00     0.003 C 
HETATM   37  C   UNL     1      18.657  52.464  48.033  1.00  0.00     0.028 C 
HETATM   38  C   UNL     1      20.051  52.023  48.460  1.00  0.00     0.235 C 
ENDBRANCH  31  32
ENDBRANCH   3  31
TORSDOF 8
ENDMDL
MODEL 4
REMARK VINA RESULT:      -9.0      1.975      2.353
REMARK  8 active torsions:
REMARK  status: ('A' for Active; 'I' for Inactive)
REMARK    1  A    between atoms: C_2  and  S_3 
REMARK    2  A    between atoms: C_2  and  C_24 
REMARK    3  A    between atoms: S_3  and  C_4 
REMARK    4  A    between atoms: N_5  and  C_6 
REMARK    5  A    between atoms: C_13  and  C_14 
REMARK    6  A    between atoms: C_14  and  N_15 
REMARK       I    between atoms: C_24  and  N_25 
REMARK    7  A    between atoms: N_25  and  C_26 
REMARK    8  A    between atoms: C_29  and  C_30 
REMARK       I    between atoms: C_30  and  N_31 
ROOT
HETATM    1  C   UNL     1      25.536  46.648  51.262  1.00  0.00     0.197 A 
HETATM    2  N   UNL     1      25.766  45.435  51.887  1.00  0.00    -0.274 N 
HETATM    3  C   UNL     1      25.845  45.768  53.236  1.00  0.00     0.161 A 
HETATM    4  N   UNL     1      25.659  47.066  53.386  1.00  0.00    -0.132 NA
HETATM    5  N   UNL     1      25.428  47.604  52.156  1.00  0.00    -0.122 NA
ENDROOT
BRANCH   1   6
HETATM    6  S   UNL     1      25.124  46.874  49.596  1.00  0.00    -0.076 SA
BRANCH   6   7
HETATM    7  C   UNL     1      23.909  48.238  49.607  1.00  0.00     0.143 C 
HETATM    8  C   UNL     1      24.470  49.441  48.857  1.00  0.00     0.031 C 
BRANCH   7   9
HETATM    9  C   UNL     1      22.524  47.835  49.101  1.00  0.00     0.236 C 
HETATM   10  N   UNL     1      21.515  48.739  49.382  1.00  0.00    -0.326 N 
HETATM   11  H   UNL     1      21.815  49.692  49.558  1.00  0.00     0.169 HD
HETATM   12  O   UNL     1      22.394  46.811  48.429  1.00  0.00    -0.272 OA
BRANCH  10  13
HETATM   13  C   UNL     1      20.159  48.582  49.034  1.00  0.00     0.034 A 
HETATM   14  C   UNL     1      19.202  48.059  49.908  1.00  0.00     0.030 A 
HETATM   15  C   UNL     1      17.873  47.909  49.495  1.00  0.00     0.019 A 
HETATM   16  C   UNL     1      17.498  48.275  48.200  1.00  0.00     0.032 A 
HETATM   17  C   UNL     1      18.451  48.809  47.327  1.00  0.00     0.019 A 
HETATM   18  C   UNL     1      19.770  48.981  47.750  1.00  0.00     0.030 A 
BRANCH  16  19
HETATM   19  C   UNL     1      16.120  48.067  47.695  1.00  0.00     0.249 C 
HETATM   20  N   UNL     1      15.967  47.251  46.610  1.00  0.00    -0.366 N 
HETATM   21  H   UNL     1      16.697  46.625  46.297  1.00  0.00     0.159 HD
HETATM   22  H   UNL     1      15.016  47.023  46.346  1.00  0.00     0.159 HD
HETATM   23  O   UNL     1      15.160  48.593  48.243  1.00  0.00    -0.268 OA
ENDBRANCH  16  19
ENDBRANCH  10  13
ENDBRANCH   7   9
ENDBRANCH   6   7
ENDBRANCH   1   6
BRANCH   2  24
HETATM   24  C   UNL     1      25.902  44.148  51.315  1.00  0.00     0.043 A 
HETATM   25  C   UNL     1      24.772  43.336  51.135  1.00  0.00     0.033 A 
HETATM   26  C   UNL     1      24.916  42.062  50.582  1.00  0.00     0.044 A 
HETATM   27  C   UNL     1      26.175  41.606  50.216  1.00  0.00     0.116 A 
HETATM   28  F   UNL     1      26.311  40.383  49.691  1.00  0.00    -0.206 F 
HETATM   29  C   UNL     1      27.302  42.403  50.389  1.00  0.00     0.044 A 
HETATM   30  C   UNL     1      27.170  43.680  50.940  1.00  0.00     0.033 A 
ENDBRANCH   2  24
BRANCH   3  31
HETATM   31  C   UNL     1      26.254  44.859  54.341  1.00  0.00     0.315 C 
BRANCH  31  32
HETATM   32  N   UNL     1      27.772  44.778  54.483  1.00  0.00    -0.064 N 
HETATM   33  H   UNL     1      28.136  45.307  53.673  1.00  0.00     0.280 HD
HETATM   34  C   UNL     1      28.277  45.496  55.716  1.00  0.00     0.235 C 
HETATM   35  C   UNL     1      29.799  45.514  55.705  1.00  0.00     0.028 C 
HETATM   36  C   UNL     1      30.374  44.106  55.606  1.00  0.00     0.003 C 
HETATM   37  C   UNL     1      29.807  43.366  54.400  1.00  0.00     0.028 C 
HETATM   38  C   UNL     1      28.284  43.366  54.395  1.00  0.00     0.235 C 
ENDBRANCH  31  32
ENDBRANCH   3  31
TORSDOF 8
ENDMDL
MODEL 5
REMARK VINA RESULT:      -8.8      3.882     10.866
REMARK  8 active torsions:
REMARK  status: ('A' for Active; 'I' for Inactive)
REMARK    1  A    between atoms: C_2  and  S_3 
REMARK    2  A    between atoms: C_2  and  C_24 
REMARK    3  A    between atoms: S_3  and  C_4 
REMARK    4  A    between atoms: N_5  and  C_6 
REMARK    5  A    between atoms: C_13  and  C_14 
REMARK    6  A    between atoms: C_14  and  N_15 
REMARK       I    between atoms: C_24  and  N_25 
REMARK    7  A    between atoms: N_25  and  C_26 
REMARK    8  A    between atoms: C_29  and  C_30 
REMARK       I    between atoms: C_30  and  N_31 
ROOT
HETATM    1  C   UNL     1      22.147  48.230  48.143  1.00  0.00     0.197 A 
HETATM    2  N   UNL     1      20.857  48.650  47.870  1.00  0.00    -0.274 N 
HETATM    3  C   UNL     1      20.432  47.784  46.869  1.00  0.00     0.161 A 
HETATM    4  N   UNL     1      21.388  46.918  46.593  1.00  0.00    -0.132 NA
HETATM    5  N   UNL     1      22.441  47.175  47.417  1.00  0.00    -0.122 NA
ENDROOT
BRANCH   1   6
HETATM    6  S   UNL     1      23.140  48.771  49.454  1.00  0.00    -0.076 SA
BRANCH   6   7
HETATM    7  C   UNL     1      24.847  48.647  48.815  1.00  0.00     0.143 C 
HETATM    8  C   UNL     1      25.312  50.007  48.305  1.00  0.00     0.031 C 
BRANCH   7   9
HETATM    9  C   UNL     1      25.835  48.033  49.807  1.00  0.00     0.236 C 
HETATM   10  N   UNL     1      25.299  47.068  50.640  1.00  0.00    -0.326 N 
HETATM   11  H   UNL     1      24.455  46.615  50.303  1.00  0.00     0.169 HD
HETATM   12  O   UNL     1      27.023  48.354  49.763  1.00  0.00    -0.272 OA
BRANCH  10  13
HETATM   13  C   UNL     1      26.004  46.373  51.642  1.00  0.00     0.034 A 
HETATM   14  C   UNL     1      26.172  46.866  52.939  1.00  0.00     0.030 A 
HETATM   15  C   UNL     1      26.902  46.136  53.885  1.00  0.00     0.019 A 
HETATM   16  C   UNL     1      27.474  44.911  53.532  1.00  0.00     0.032 A 
HETATM   17  C   UNL     1      27.298  44.409  52.239  1.00  0.00     0.019 A 
HETATM   18  C   UNL     1      26.548  45.128  51.306  1.00  0.00     0.030 A 
BRANCH  16  19
HETATM   19  C   UNL     1      28.315  44.138  54.478  1.00  0.00     0.249 C 
HETATM   20  N   UNL     1      29.129  44.847  55.315  1.00  0.00    -0.366 N 
HETATM   21  H   UNL     1      29.014  45.839  55.470  1.00  0.00     0.159 HD
HETATM   22  H   UNL     1      29.609  44.318  56.033  1.00  0.00     0.159 HD
HETATM   23  O   UNL     1      28.263  42.915  54.515  1.00  0.00    -0.268 OA
ENDBRANCH  16  19
ENDBRANCH  10  13
ENDBRANCH   7   9
ENDBRANCH   6   7
ENDBRANCH   1   6
BRANCH   2  24
HETATM   24  C   UNL     1      20.124  49.714  48.450  1.00  0.00     0.043 A 
HETATM   25  C   UNL     1      20.210  51.004  47.908  1.00  0.00     0.033 A 
HETATM   26  C   UNL     1      19.495  52.051  48.493  1.00  0.00     0.044 A 
HETATM   27  C   UNL     1      18.705  51.807  49.609  1.00  0.00     0.116 A 
HETATM   28  F   UNL     1      18.024  52.813  50.171  1.00  0.00    -0.206 F 
HETATM   29  C   UNL     1      18.611  50.532  50.154  1.00  0.00     0.044 A 
HETATM   30  C   UNL     1      19.321  49.477  49.576  1.00  0.00     0.033 A 
ENDBRANCH   2  24
BRANCH   3  31
HETATM   31  C   UNL     1      19.172  47.900  46.085  1.00  0.00     0.315 C 
BRANCH  31  32
HETATM   32  N   UNL     1      18.015  48.423  46.934  1.00  0.00    -0.064 N 
HETATM   33  H   UNL     1      18.472  48.856  47.754  1.00  0.00     0.280 HD
HETATM   34  C   UNL     1      17.246  49.529  46.247  1.00  0.00     0.235 C 
HETATM   35  C   UNL     1      16.220  50.108  47.210  1.00  0.00     0.028 C 
HETATM   36  C   UNL     1      15.286  49.030  47.746  1.00  0.00     0.003 C 
HETATM   37  C   UNL     1      16.072  47.886  48.376  1.00  0.00     0.028 C 
HETATM   38  C   UNL     1      17.116  47.320  47.423  1.00  0.00     0.235 C 
ENDBRANCH  31  32
ENDBRANCH   3  31
TORSDOF 8
ENDMDL
MODEL 6
REMARK VINA RESULT:      -8.7     12.053     14.656
REMARK  8 active torsions:
REMARK  status: ('A' for Active; 'I' for Inactive)
REMARK    1  A    between atoms: C_2  and  S_3 
REMARK    2  A    between atoms: C_2  and  C_24 
REMARK    3  A    between atoms: S_3  and  C_4 
REMARK    4  A    between atoms: N_5  and  C_6 
REMARK    5  A    between atoms: C_13  and  C_14 
REMARK    6  A    between atoms: C_14  and  N_15 
REMARK       I    between atoms: C_24  and  N_25 
REMARK    7  A    between atoms: N_25  and  C_26 
REMARK    8  A    between atoms: C_29  and  C_30 
REMARK       I    between atoms: C_30  and  N_31 
ROOT
HETATM    1  C   UNL     1      28.193  50.841  38.570  1.00  0.00     0.197 A 
HETATM    2  N   UNL     1      28.314  49.651  39.265  1.00  0.00    -0.274 N 
HETATM    3  C   UNL     1      27.095  49.016  39.051  1.00  0.00     0.161 A 
HETATM    4  N   UNL     1      26.332  49.767  38.280  1.00  0.00    -0.132 NA
HETATM    5  N   UNL     1      27.035  50.886  37.951  1.00  0.00    -0.122 NA
ENDROOT
BRANCH   1   6
HETATM    6  S   UNL     1      29.461  51.979  38.267  1.00  0.00    -0.076 SA
BRANCH   6   7
HETATM    7  C   UNL     1      29.482  53.046  39.750  1.00  0.00     0.143 C 
HETATM    8  C   UNL     1      28.339  52.662  40.683  1.00  0.00     0.031 C 
BRANCH   7   9
HETATM    9  C   UNL     1      30.831  53.079  40.468  1.00  0.00     0.236 C 
HETATM   10  N   UNL     1      31.495  51.867  40.516  1.00  0.00    -0.326 N 
HETATM   11  H   UNL     1      31.231  51.193  39.805  1.00  0.00     0.169 HD
HETATM   12  O   UNL     1      31.276  54.151  40.880  1.00  0.00    -0.272 OA
BRANCH  10  13
HETATM   13  C   UNL     1      32.741  51.644  41.134  1.00  0.00     0.034 A 
HETATM   14  C   UNL     1      32.908  51.602  42.521  1.00  0.00     0.030 A 
HETATM   15  C   UNL     1      34.177  51.397  43.076  1.00  0.00     0.019 A 
HETATM   16  C   UNL     1      35.287  51.239  42.241  1.00  0.00     0.032 A 
HETATM   17  C   UNL     1      35.121  51.269  40.853  1.00  0.00     0.019 A 
HETATM   18  C   UNL     1      33.850  51.449  40.303  1.00  0.00     0.030 A 
BRANCH  16  19
HETATM   19  C   UNL     1      36.659  51.091  42.782  1.00  0.00     0.249 C 
HETATM   20  N   UNL     1      36.900  51.603  44.025  1.00  0.00    -0.366 N 
HETATM   21  H   UNL     1      36.155  51.859  44.659  1.00  0.00     0.159 HD
HETATM   22  H   UNL     1      37.804  51.394  44.432  1.00  0.00     0.159 HD
HETATM   23  O   UNL     1      37.532  50.516  42.144  1.00  0.00    -0.268 OA
ENDBRANCH  16  19
ENDBRANCH  10  13
ENDBRANCH   7   9
ENDBRANCH   6   7
ENDBRANCH   1   6
BRANCH   2  24
HETATM   24  C   UNL     1      29.405  49.171  40.030  1.00  0.00     0.043 A 
HETATM   25  C   UNL     1      29.376  49.263  41.429  1.00  0.00     0.033 A 
HETATM   26  C   UNL     1      30.462  48.800  42.176  1.00  0.00     0.044 A 
HETATM   27  C   UNL     1      31.562  48.255  41.528  1.00  0.00     0.116 A 
HETATM   28  F   UNL     1      32.604  47.817  42.246  1.00  0.00    -0.206 F 
HETATM   29  C   UNL     1      31.601  48.158  40.142  1.00  0.00     0.044 A 
HETATM   30  C   UNL     1      30.520  48.616  39.385  1.00  0.00     0.033 A 
ENDBRANCH   2  24
BRANCH   3  31
HETATM   31  C   UNL     1      26.624  47.772  39.719  1.00  0.00     0.315 C 
BRANCH  31  32
HETATM   32  N   UNL     1      27.215  46.519  39.076  1.00  0.00    -0.064 N 
HETATM   33  H   UNL     1      26.406  45.889  38.946  1.00  0.00     0.280 HD
HETATM   34  C   UNL     1      27.768  46.785  37.692  1.00  0.00     0.235 C 
HETATM   35  C   UNL     1      28.187  45.469  37.053  1.00  0.00     0.028 C 
HETATM   36  C   UNL     1      29.193  44.722  37.921  1.00  0.00     0.003 C 
HETATM   37  C   UNL     1      28.655  44.519  39.333  1.00  0.00     0.028 C 
HETATM   38  C   UNL     1      28.212  45.830  39.968  1.00  0.00     0.235 C 
ENDBRANCH  31  32
ENDBRANCH   3  31
TORSDOF 8
ENDMDL
MODEL 7
REMARK VINA RESULT:      -8.6      4.540     10.961
REMARK  8 active torsions:
REMARK  status: ('A' for Active; 'I' for Inactive)
REMARK    1  A    between atoms: C_2  and  S_3 
REMARK    2  A    between atoms: C_2  and  C_24 
REMARK    3  A    between atoms: S_3  and  C_4 
REMARK    4  A    between atoms: N_5  and  C_6 
REMARK    5  A    between atoms: C_13  and  C_14 
REMARK    6  A    between atoms: C_14  and  N_15 
REMARK       I    between atoms: C_24  and  N_25 
REMARK    7  A    between atoms: N_25  and  C_26 
REMARK    8  A    between atoms: C_29  and  C_30 
REMARK       I    between atoms: C_30  and  N_31 
ROOT
HETATM    1  C   UNL     1      23.993  45.252  49.841  1.00  0.00     0.197 A 
HETATM    2  N   UNL     1      23.306  46.105  48.995  1.00  0.00    -0.274 N 
HETATM    3  C   UNL     1      22.618  45.246  48.145  1.00  0.00     0.161 A 
HETATM    4  N   UNL     1      22.870  43.994  48.480  1.00  0.00    -0.132 NA
HETATM    5  N   UNL     1      23.696  44.003  49.561  1.00  0.00    -0.122 NA
ENDROOT
BRANCH   1   6
HETATM    6  S   UNL     1      24.864  45.711  51.265  1.00  0.00    -0.076 SA
BRANCH   6   7
HETATM    7  C   UNL     1      26.120  44.401  51.474  1.00  0.00     0.143 C 
HETATM    8  C   UNL     1      27.193  44.532  50.399  1.00  0.00     0.031 C 
BRANCH   7   9
HETATM    9  C   UNL     1      26.715  44.336  52.881  1.00  0.00     0.236 C 
HETATM   10  N   UNL     1      28.091  44.467  52.938  1.00  0.00    -0.326 N 
HETATM   11  H   UNL     1      28.522  44.931  52.145  1.00  0.00     0.169 HD
HETATM   12  O   UNL     1      25.968  44.254  53.856  1.00  0.00    -0.272 OA
BRANCH  10  13
HETATM   13  C   UNL     1      28.866  44.424  54.113  1.00  0.00     0.034 A 
HETATM   14  C   UNL     1      28.840  45.430  55.082  1.00  0.00     0.030 A 
HETATM   15  C   UNL     1      29.651  45.339  56.220  1.00  0.00     0.019 A 
HETATM   16  C   UNL     1      30.499  44.240  56.387  1.00  0.00     0.032 A 
HETATM   17  C   UNL     1      30.519  43.226  55.425  1.00  0.00     0.019 A 
HETATM   18  C   UNL     1      29.690  43.308  54.304  1.00  0.00     0.030 A 
BRANCH  16  19
HETATM   19  C   UNL     1      31.428  44.135  57.538  1.00  0.00     0.249 C 
HETATM   20  N   UNL     1      31.302  45.066  58.530  1.00  0.00    -0.366 N 
HETATM   21  H   UNL     1      30.486  45.656  58.619  1.00  0.00     0.159 HD
HETATM   22  H   UNL     1      31.859  44.917  59.363  1.00  0.00     0.159 HD
HETATM   23  O   UNL     1      32.258  43.237  57.601  1.00  0.00    -0.268 OA
ENDBRANCH  16  19
ENDBRANCH  10  13
ENDBRANCH   7   9
ENDBRANCH   6   7
ENDBRANCH   1   6
BRANCH   2  24
HETATM   24  C   UNL     1      23.295  47.521  48.972  1.00  0.00     0.043 A 
HETATM   25  C   UNL     1      24.490  48.229  48.775  1.00  0.00     0.033 A 
HETATM   26  C   UNL     1      24.474  49.625  48.767  1.00  0.00     0.044 A 
HETATM   27  C   UNL     1      23.277  50.303  48.956  1.00  0.00     0.116 A 
HETATM   28  F   UNL     1      23.265  51.641  48.953  1.00  0.00    -0.206 F 
HETATM   29  C   UNL     1      22.086  49.611  49.151  1.00  0.00     0.044 A 
HETATM   30  C   UNL     1      22.091  48.214  49.159  1.00  0.00     0.033 A 
ENDBRANCH   2  24
BRANCH   3  31
HETATM   31  C   UNL     1      21.856  45.638  46.929  1.00  0.00     0.315 C 
BRANCH  31  32
HETATM   32  N   UNL     1      20.413  45.140  46.973  1.00  0.00    -0.064 N 
HETATM   33  H   UNL     1      20.442  44.318  47.600  1.00  0.00     0.280 HD
HETATM   34  C   UNL     1      19.477  46.134  47.624  1.00  0.00     0.235 C 
HETATM   35  C   UNL     1      18.099  45.506  47.780  1.00  0.00     0.028 C 
HETATM   36  C   UNL     1      17.552  45.020  46.443  1.00  0.00     0.003 C 
HETATM   37  C   UNL     1      18.533  44.072  45.761  1.00  0.00     0.028 C 
HETATM   38  C   UNL     1      19.919  44.688  45.625  1.00  0.00     0.235 C 
ENDBRANCH  31  32
ENDBRANCH   3  31
TORSDOF 8
ENDMDL
MODEL 8
REMARK VINA RESULT:      -8.6      3.800      9.558
REMARK  8 active torsions:
REMARK  status: ('A' for Active; 'I' for Inactive)
REMARK    1  A    between atoms: C_2  and  S_3 
REMARK    2  A    between atoms: C_2  and  C_24 
REMARK    3  A    between atoms: S_3  and  C_4 
REMARK    4  A    between atoms: N_5  and  C_6 
REMARK    5  A    between atoms: C_13  and  C_14 
REMARK    6  A    between atoms: C_14  and  N_15 
REMARK       I    between atoms: C_24  and  N_25 
REMARK    7  A    between atoms: N_25  and  C_26 
REMARK    8  A    between atoms: C_29  and  C_30 
REMARK       I    between atoms: C_30  and  N_31 
ROOT
HETATM    1  C   UNL     1      25.009  47.216  49.736  1.00  0.00     0.197 A 
HETATM    2  N   UNL     1      23.823  46.643  49.310  1.00  0.00    -0.274 N 
HETATM    3  C   UNL     1      22.967  47.729  49.159  1.00  0.00     0.161 A 
HETATM    4  N   UNL     1      23.606  48.845  49.454  1.00  0.00    -0.132 NA
HETATM    5  N   UNL     1      24.889  48.524  49.776  1.00  0.00    -0.122 NA
ENDROOT
BRANCH   1   6
HETATM    6  S   UNL     1      26.532  46.410  49.890  1.00  0.00    -0.076 SA
BRANCH   6   7
HETATM    7  C   UNL     1      26.506  45.702  51.575  1.00  0.00     0.143 C 
HETATM    8  C   UNL     1      25.384  46.338  52.389  1.00  0.00     0.031 C 
BRANCH   7   9
HETATM    9  C   UNL     1      26.447  44.175  51.602  1.00  0.00     0.236 C 
HETATM   10  N   UNL     1      27.129  43.547  50.576  1.00  0.00    -0.326 N 
HETATM   11  H   UNL     1      27.864  44.093  50.138  1.00  0.00     0.169 HD
HETATM   12  O   UNL     1      25.888  43.603  52.539  1.00  0.00    -0.272 OA
BRANCH  10  13
HETATM   13  C   UNL     1      27.207  42.154  50.381  1.00  0.00     0.034 A 
HETATM   14  C   UNL     1      28.254  41.371  50.873  1.00  0.00     0.030 A 
HETATM   15  C   UNL     1      28.285  39.994  50.627  1.00  0.00     0.019 A 
HETATM   16  C   UNL     1      27.268  39.395  49.877  1.00  0.00     0.032 A 
HETATM   17  C   UNL     1      26.213  40.174  49.393  1.00  0.00     0.019 A 
HETATM   18  C   UNL     1      26.172  41.544  49.663  1.00  0.00     0.030 A 
BRANCH  16  19
HETATM   19  C   UNL     1      27.295  37.954  49.530  1.00  0.00     0.249 C 
HETATM   20  N   UNL     1      26.289  37.173  50.024  1.00  0.00    -0.366 N 
HETATM   21  H   UNL     1      25.438  37.563  50.405  1.00  0.00     0.159 HD
HETATM   22  H   UNL     1      26.251  36.218  49.687  1.00  0.00     0.159 HD
HETATM   23  O   UNL     1      28.174  37.492  48.814  1.00  0.00    -0.268 OA
ENDBRANCH  16  19
ENDBRANCH  10  13
ENDBRANCH   7   9
ENDBRANCH   6   7
ENDBRANCH   1   6
BRANCH   2  24
HETATM   24  C   UNL     1      23.522  45.278  49.083  1.00  0.00     0.043 A 
HETATM   25  C   UNL     1      23.562  44.757  47.781  1.00  0.00     0.033 A 
HETATM   26  C   UNL     1      23.250  43.414  47.563  1.00  0.00     0.044 A 
HETATM   27  C   UNL     1      22.902  42.603  48.636  1.00  0.00     0.116 A 
HETATM   28  F   UNL     1      22.599  41.317  48.424  1.00  0.00    -0.206 F 
HETATM   29  C   UNL     1      22.861  43.109  49.931  1.00  0.00     0.044 A 
HETATM   30  C   UNL     1      23.172  44.451  50.160  1.00  0.00     0.033 A 
ENDBRANCH   2  24
BRANCH   3  31
HETATM   31  C   UNL     1      21.505  47.662  48.884  1.00  0.00     0.315 C 
BRANCH  31  32
HETATM   32  N   UNL     1      20.742  48.795  49.568  1.00  0.00    -0.064 N 
HETATM   33  H   UNL     1      21.286  48.992  50.425  1.00  0.00     0.280 HD
HETATM   34  C   UNL     1      20.754  50.072  48.758  1.00  0.00     0.235 C 
HETATM   35  C   UNL     1      20.121  51.193  49.570  1.00  0.00     0.028 C 
HETATM   36  C   UNL     1      18.710  50.830  50.018  1.00  0.00     0.003 C 
HETATM   37  C   UNL     1      18.698  49.507  50.774  1.00  0.00     0.028 C 
HETATM   38  C   UNL     1      19.352  48.388  49.975  1.00  0.00     0.235 C 
ENDBRANCH  31  32
ENDBRANCH   3  31
TORSDOF 8
ENDMDL
MODEL 9
REMARK VINA RESULT:      -8.2      3.567      9.784
REMARK  8 active torsions:
REMARK  status: ('A' for Active; 'I' for Inactive)
REMARK    1  A    between atoms: C_2  and  S_3 
REMARK    2  A    between atoms: C_2  and  C_24 
REMARK    3  A    between atoms: S_3  and  C_4 
REMARK    4  A    between atoms: N_5  and  C_6 
REMARK    5  A    between atoms: C_13  and  C_14 
REMARK    6  A    between atoms: C_14  and  N_15 
REMARK       I    between atoms: C_24  and  N_25 
REMARK    7  A    between atoms: N_25  and  C_26 
REMARK    8  A    between atoms: C_29  and  C_30 
REMARK       I    between atoms: C_30  and  N_31 
ROOT
HETATM    1  C   UNL     1      23.792  46.149  49.872  1.00  0.00     0.197 A 
HETATM    2  N   UNL     1      23.169  47.080  49.060  1.00  0.00    -0.274 N 
HETATM    3  C   UNL     1      23.977  48.207  49.167  1.00  0.00     0.161 A 
HETATM    4  N   UNL     1      24.998  47.949  49.962  1.00  0.00    -0.132 NA
HETATM    5  N   UNL     1      24.900  46.653  50.369  1.00  0.00    -0.122 NA
ENDROOT
BRANCH   1   6
HETATM    6  S   UNL     1      23.392  44.469  49.991  1.00  0.00    -0.076 SA
BRANCH   6   7
HETATM    7  C   UNL     1      24.961  43.659  50.462  1.00  0.00     0.143 C 
HETATM    8  C   UNL     1      26.027  43.938  49.409  1.00  0.00     0.031 C 
BRANCH   7   9
HETATM    9  C   UNL     1      25.435  44.004  51.874  1.00  0.00     0.236 C 
HETATM   10  N   UNL     1      26.765  44.373  51.967  1.00  0.00    -0.326 N 
HETATM   11  H   UNL     1      27.187  44.717  51.110  1.00  0.00     0.169 HD
HETATM   12  O   UNL     1      24.627  44.015  52.803  1.00  0.00    -0.272 OA
BRANCH  10  13
HETATM   13  C   UNL     1      27.433  44.720  53.157  1.00  0.00     0.034 A 
HETATM   14  C   UNL     1      28.463  43.952  53.706  1.00  0.00     0.030 A 
HETATM   15  C   UNL     1      29.075  44.339  54.904  1.00  0.00     0.019 A 
HETATM   16  C   UNL     1      28.650  45.496  55.563  1.00  0.00     0.032 A 
HETATM   17  C   UNL     1      27.627  46.273  55.011  1.00  0.00     0.019 A 
HETATM   18  C   UNL     1      27.037  45.897  53.802  1.00  0.00     0.030 A 
BRANCH  16  19
HETATM   19  C   UNL     1      29.218  45.907  56.870  1.00  0.00     0.249 C 
HETATM   20  N   UNL     1      30.576  45.855  57.006  1.00  0.00    -0.366 N 
HETATM   21  H   UNL     1      31.197  45.774  56.212  1.00  0.00     0.159 HD
HETATM   22  H   UNL     1      30.960  46.247  57.857  1.00  0.00     0.159 HD
HETATM   23  O   UNL     1      28.495  46.295  57.779  1.00  0.00    -0.268 OA
ENDBRANCH  16  19
ENDBRANCH  10  13
ENDBRANCH   7   9
ENDBRANCH   6   7
ENDBRANCH   1   6
BRANCH   2  24
HETATM   24  C   UNL     1      21.984  46.947  48.297  1.00  0.00     0.043 A 
HETATM   25  C   UNL     1      20.733  47.118  48.908  1.00  0.00     0.033 A 
HETATM   26  C   UNL     1      19.568  46.972  48.153  1.00  0.00     0.044 A 
HETATM   27  C   UNL     1      19.655  46.657  46.803  1.00  0.00     0.116 A 
HETATM   28  F   UNL     1      18.536  46.513  46.083  1.00  0.00    -0.206 F 
HETATM   29  C   UNL     1      20.890  46.487  46.187  1.00  0.00     0.044 A 
HETATM   30  C   UNL     1      22.062  46.632  46.933  1.00  0.00     0.033 A 
ENDBRANCH   2  24
BRANCH   3  31
HETATM   31  C   UNL     1      23.672  49.561  48.629  1.00  0.00     0.315 C 
BRANCH  31  32
HETATM   32  N   UNL     1      22.203  49.933  48.819  1.00  0.00    -0.064 N 
HETATM   33  H   UNL     1      21.739  49.041  49.057  1.00  0.00     0.280 HD
HETATM   34  C   UNL     1      21.987  50.850  50.003  1.00  0.00     0.235 C 
HETATM   35  C   UNL     1      20.495  51.045  50.228  1.00  0.00     0.028 C 
HETATM   36  C   UNL     1      19.807  51.579  48.977  1.00  0.00     0.003 C 
HETATM   37  C   UNL     1      20.086  50.687  47.773  1.00  0.00     0.028 C 
HETATM   38  C   UNL     1      21.578  50.470  47.559  1.00  0.00     0.235 C 
ENDBRANCH  31  32
ENDBRANCH   3  31
TORSDOF 8
ENDMDL
MODEL 10
REMARK VINA RESULT:      -8.1     11.904     15.825
REMARK  8 active torsions:
REMARK  status: ('A' for Active; 'I' for Inactive)
REMARK    1  A    between atoms: C_2  and  S_3 
REMARK    2  A    between atoms: C_2  and  C_24 
REMARK    3  A    between atoms: S_3  and  C_4 
REMARK    4  A    between atoms: N_5  and  C_6 
REMARK    5  A    between atoms: C_13  and  C_14 
REMARK    6  A    between atoms: C_14  and  N_15 
REMARK       I    between atoms: C_24  and  N_25 
REMARK    7  A    between atoms: N_25  and  C_26 
REMARK    8  A    between atoms: C_29  and  C_30 
REMARK       I    between atoms: C_30  and  N_31 
ROOT
HETATM    1  C   UNL     1      32.223  50.194  41.646  1.00  0.00     0.197 A 
HETATM    2  N   UNL     1      30.883  50.276  41.312  1.00  0.00    -0.274 N 
HETATM    3  C   UNL     1      30.287  49.289  42.089  1.00  0.00     0.161 A 
HETATM    4  N   UNL     1      31.201  48.692  42.830  1.00  0.00    -0.132 NA
HETATM    5  N   UNL     1      32.401  49.286  42.579  1.00  0.00    -0.122 NA
ENDROOT
BRANCH   1   6
HETATM    6  S   UNL     1      33.460  51.310  41.178  1.00  0.00    -0.076 SA
BRANCH   6   7
HETATM    7  C   UNL     1      34.897  50.859  42.213  1.00  0.00     0.143 C 
HETATM    8  C   UNL     1      36.033  50.350  41.332  1.00  0.00     0.031 C 
BRANCH   7   9
HETATM    9  C   UNL     1      35.351  51.972  43.157  1.00  0.00     0.236 C 
HETATM   10  N   UNL     1      36.587  52.518  42.862  1.00  0.00    -0.326 N 
HETATM   11  H   UNL     1      36.901  52.404  41.904  1.00  0.00     0.169 HD
HETATM   12  O   UNL     1      34.594  52.366  44.045  1.00  0.00    -0.272 OA
BRANCH  10  13
HETATM   13  C   UNL     1      37.223  53.541  43.594  1.00  0.00     0.034 A 
HETATM   14  C   UNL     1      37.408  53.488  44.978  1.00  0.00     0.030 A 
HETATM   15  C   UNL     1      38.029  54.547  45.650  1.00  0.00     0.019 A 
HETATM   16  C   UNL     1      38.461  55.669  44.938  1.00  0.00     0.032 A 
HETATM   17  C   UNL     1      38.287  55.720  43.552  1.00  0.00     0.019 A 
HETATM   18  C   UNL     1      37.691  54.651  42.881  1.00  0.00     0.030 A 
BRANCH  16  19
HETATM   19  C   UNL     1      39.058  56.845  45.616  1.00  0.00     0.249 C 
HETATM   20  N   UNL     1      38.392  58.033  45.509  1.00  0.00    -0.366 N 
HETATM   21  H   UNL     1      37.432  58.090  45.199  1.00  0.00     0.159 HD
HETATM   22  H   UNL     1      38.744  58.800  46.070  1.00  0.00     0.159 HD
HETATM   23  O   UNL     1      40.095  56.745  46.259  1.00  0.00    -0.268 OA
ENDBRANCH  16  19
ENDBRANCH  10  13
ENDBRANCH   7   9
ENDBRANCH   6   7
ENDBRANCH   1   6
BRANCH   2  24
HETATM   24  C   UNL     1      30.243  51.142  40.392  1.00  0.00     0.043 A 
HETATM   25  C   UNL     1      30.248  50.839  39.022  1.00  0.00     0.033 A 
HETATM   26  C   UNL     1      29.628  51.705  38.120  1.00  0.00     0.044 A 
HETATM   27  C   UNL     1      29.013  52.861  38.583  1.00  0.00     0.116 A 
HETATM   28  F   UNL     1      28.424  53.692  37.715  1.00  0.00    -0.206 F 
HETATM   29  C   UNL     1      29.001  53.170  39.939  1.00  0.00     0.044 A 
HETATM   30  C   UNL     1      29.617  52.310  40.851  1.00  0.00     0.033 A 
ENDBRANCH   2  24
BRANCH   3  31
HETATM   31  C   UNL     1      28.874  48.829  41.993  1.00  0.00     0.315 C 
BRANCH  31  32
HETATM   32  N   UNL     1      28.540  48.294  40.602  1.00  0.00    -0.064 N 
HETATM   33  H   UNL     1      28.742  49.083  39.966  1.00  0.00     0.280 HD
HETATM   34  C   UNL     1      29.458  47.167  40.180  1.00  0.00     0.235 C 
HETATM   35  C   UNL     1      29.174  46.797  38.732  1.00  0.00     0.028 C 
HETATM   36  C   UNL     1      27.709  46.430  38.525  1.00  0.00     0.003 C 
HETATM   37  C   UNL     1      26.790  47.542  39.017  1.00  0.00     0.028 C 
HETATM   38  C   UNL     1      27.087  47.931  40.459  1.00  0.00     0.235 C 
ENDBRANCH  31  32
ENDBRANCH   3  31
TORSDOF 8
ENDMDL
