MODEL 1
REMARK VINA RESULT:      -9.8      0.000      0.000
REMARK  5 active torsions:
REMARK  status: ('A' for Active; 'I' for Inactive)
REMARK    1  A    between atoms: C_2  and  C_3 
REMARK    2  A    between atoms: C_7  and  N_8 
REMARK    3  A    between atoms: C_13  and  N_14 
REMARK       I    between atoms: N_14  and  C_15 
REMARK    4  A    between atoms: C_15  and  C_16 
REMARK       I    between atoms: C_16  and  N_17 
REMARK    5  A    between atoms: N_17  and  C_18 
ROOT
HETATM    1  N   UNL     1      27.846  43.190  52.230  1.00  0.00    -0.045 N 
HETATM    2  N   UNL     1      28.413  41.964  52.044  1.00  0.00    -0.156 NA
HETATM    3  C   UNL     1      27.801  41.481  50.957  1.00  0.00     0.055 A 
HETATM    4  C   UNL     1      28.150  40.138  50.426  1.00  0.00     0.072 C 
HETATM    5  C   UNL     1      26.848  42.390  50.438  1.00  0.00     0.079 A 
HETATM    6  C   UNL     1      26.888  43.482  51.271  1.00  0.00     0.152 A 
ENDROOT
BRANCH   6   7
HETATM    7  N   UNL     1      26.143  44.655  51.216  1.00  0.00    -0.303 N 
HETATM    8  C   UNL     1      26.344  45.704  50.265  1.00  0.00     0.315 C 
HETATM    9  O   UNL     1      27.218  45.684  49.416  1.00  0.00    -0.262 OA
HETATM   10  H   UNL     1      25.385  44.778  51.900  1.00  0.00     0.171 HD
BRANCH   8  11
HETATM   11  C   UNL     1      25.354  46.877  50.385  1.00  0.00     0.310 C 
HETATM   12  N   UNL     1      24.478  46.996  49.326  1.00  0.00    -0.348 N 
HETATM   13  H   UNL     1      24.622  46.380  48.529  1.00  0.00     0.163 HD
HETATM   14  O   UNL     1      25.408  47.591  51.377  1.00  0.00    -0.262 OA
BRANCH  12  15
HETATM   15  C   UNL     1      23.513  48.083  49.201  1.00  0.00     0.085 C 
HETATM   16  C   UNL     1      22.282  47.581  48.434  1.00  0.00     0.034 C 
HETATM   17  C   UNL     1      21.218  48.667  48.177  1.00  0.00    -0.045 C 
HETATM   18  C   UNL     1      20.451  48.991  49.471  1.00  0.00     0.015 C 
HETATM   19  C   UNL     1      20.186  48.116  47.168  1.00  0.00     0.015 C 
HETATM   20  C   UNL     1      21.872  49.928  47.563  1.00  0.00     0.013 C 
HETATM   21  C   UNL     1      23.170  50.426  48.223  1.00  0.00    -0.016 C 
HETATM   22  C   UNL     1      24.152  49.277  48.484  1.00  0.00     0.029 C 
HETATM   23  C   UNL     1      22.933  51.273  49.474  1.00  0.00     0.010 C 
ENDBRANCH  12  15
ENDBRANCH   8  11
ENDBRANCH   6   7
BRANCH   1  24
HETATM   24  C   UNL     1      28.242  44.004  53.299  1.00  0.00     0.732 A 
HETATM   25  N   UNL     1      29.294  43.477  53.981  1.00  0.00    -0.152 N 
HETATM   26  C   UNL     1      29.826  44.109  55.058  1.00  0.00     0.268 A 
HETATM   27  H   UNL     1      29.697  42.590  53.693  1.00  0.00     0.188 HD
HETATM   28  C   UNL     1      29.181  45.405  55.420  1.00  0.00     0.035 A 
HETATM   29  O   UNL     1      30.770  43.641  55.682  1.00  0.00    -0.267 OA
HETATM   30  C   UNL     1      28.143  45.822  54.661  1.00  0.00     0.061 A 
HETATM   31  N   UNL     1      27.648  45.121  53.576  1.00  0.00    -0.067 NA
HETATM   32  C   UNL     1      27.421  47.125  54.902  1.00  0.00     0.072 C 
BRANCH  28  33
HETATM   33  C   UNL     1      29.742  46.092  56.638  1.00  0.00     0.042 C 
HETATM   34  C   UNL     1      28.838  45.934  57.853  1.00  0.00     0.010 C 
ENDBRANCH  28  33
ENDBRANCH   1  24
TORSDOF 5
ENDMDL
MODEL 2
REMARK VINA RESULT:      -9.0      3.021      9.273
REMARK  5 active torsions:
REMARK  status: ('A' for Active; 'I' for Inactive)
REMARK    1  A    between atoms: C_2  and  C_3 
REMARK    2  A    between atoms: C_7  and  N_8 
REMARK    3  A    between atoms: C_13  and  N_14 
REMARK       I    between atoms: N_14  and  C_15 
REMARK    4  A    between atoms: C_15  and  C_16 
REMARK       I    between atoms: C_16  and  N_17 
REMARK    5  A    between atoms: N_17  and  C_18 
ROOT
HETATM    1  N   UNL     1      21.028  45.817  47.466  1.00  0.00    -0.045 N 
HETATM    2  N   UNL     1      20.001  45.427  46.660  1.00  0.00    -0.156 NA
HETATM    3  C   UNL     1      20.276  44.149  46.373  1.00  0.00     0.055 A 
HETATM    4  C   UNL     1      19.372  43.358  45.499  1.00  0.00     0.072 C 
HETATM    5  C   UNL     1      21.472  43.713  46.993  1.00  0.00     0.079 A 
HETATM    6  C   UNL     1      21.943  44.801  47.690  1.00  0.00     0.152 A 
ENDROOT
BRANCH   6   7
HETATM    7  N   UNL     1      23.093  44.915  48.464  1.00  0.00    -0.303 N 
HETATM    8  C   UNL     1      23.258  44.347  49.766  1.00  0.00     0.315 C 
HETATM    9  O   UNL     1      22.385  43.722  50.343  1.00  0.00    -0.262 OA
HETATM   10  H   UNL     1      23.888  45.436  48.073  1.00  0.00     0.171 HD
BRANCH   8  11
HETATM   11  C   UNL     1      24.645  44.576  50.394  1.00  0.00     0.310 C 
HETATM   12  N   UNL     1      24.905  43.799  51.503  1.00  0.00    -0.348 N 
HETATM   13  H   UNL     1      24.142  43.229  51.865  1.00  0.00     0.163 HD
HETATM   14  O   UNL     1      25.394  45.396  49.881  1.00  0.00    -0.262 OA
BRANCH  12  15
HETATM   15  C   UNL     1      26.123  43.913  52.296  1.00  0.00     0.085 C 
HETATM   16  C   UNL     1      26.911  42.598  52.208  1.00  0.00     0.034 C 
HETATM   17  C   UNL     1      28.191  42.576  53.069  1.00  0.00    -0.045 C 
HETATM   18  C   UNL     1      29.292  43.438  52.425  1.00  0.00     0.015 C 
HETATM   19  C   UNL     1      28.725  41.127  53.117  1.00  0.00     0.015 C 
HETATM   20  C   UNL     1      27.876  43.027  54.515  1.00  0.00     0.013 C 
HETATM   21  C   UNL     1      27.003  44.283  54.675  1.00  0.00    -0.016 C 
HETATM   22  C   UNL     1      25.778  44.245  53.752  1.00  0.00     0.029 C 
HETATM   23  C   UNL     1      27.784  45.591  54.536  1.00  0.00     0.010 C 
ENDBRANCH  12  15
ENDBRANCH   8  11
ENDBRANCH   6   7
BRANCH   1  24
HETATM   24  C   UNL     1      21.082  47.123  47.970  1.00  0.00     0.732 A 
HETATM   25  N   UNL     1      20.124  47.350  48.909  1.00  0.00    -0.152 N 
HETATM   26  C   UNL     1      20.001  48.556  49.517  1.00  0.00     0.268 A 
HETATM   27  H   UNL     1      19.477  46.610  49.167  1.00  0.00     0.188 HD
HETATM   28  C   UNL     1      20.987  49.591  49.086  1.00  0.00     0.035 A 
HETATM   29  O   UNL     1      19.140  48.772  50.361  1.00  0.00    -0.267 OA
HETATM   30  C   UNL     1      21.892  49.241  48.145  1.00  0.00     0.061 A 
HETATM   31  N   UNL     1      21.955  47.988  47.562  1.00  0.00    -0.067 NA
HETATM   32  C   UNL     1      22.959  50.182  47.642  1.00  0.00     0.072 C 
BRANCH  28  33
HETATM   33  C   UNL     1      20.832  50.945  49.730  1.00  0.00     0.042 C 
HETATM   34  C   UNL     1      19.875  51.840  48.956  1.00  0.00     0.010 C 
ENDBRANCH  28  33
ENDBRANCH   1  24
TORSDOF 5
ENDMDL
MODEL 3
REMARK VINA RESULT:      -8.9      2.612      5.833
REMARK  5 active torsions:
REMARK  status: ('A' for Active; 'I' for Inactive)
REMARK    1  A    between atoms: C_2  and  C_3 
REMARK    2  A    between atoms: C_7  and  N_8 
REMARK    3  A    between atoms: C_13  and  N_14 
REMARK       I    between atoms: N_14  and  C_15 
REMARK    4  A    between atoms: C_15  and  C_16 
REMARK       I    between atoms: C_16  and  N_17 
REMARK    5  A    between atoms: N_17  and  C_18 
ROOT
HETATM    1  N   UNL     1      25.515  45.250  51.568  1.00  0.00    -0.045 N 
HETATM    2  N   UNL     1      26.431  44.967  52.537  1.00  0.00    -0.156 NA
HETATM    3  C   UNL     1      26.527  46.103  53.238  1.00  0.00     0.055 A 
HETATM    4  C   UNL     1      27.446  46.198  54.402  1.00  0.00     0.072 C 
HETATM    5  C   UNL     1      25.676  47.113  52.730  1.00  0.00     0.079 A 
HETATM    6  C   UNL     1      25.035  46.547  51.653  1.00  0.00     0.152 A 
ENDROOT
BRANCH   6   7
HETATM    7  N   UNL     1      24.100  47.113  50.793  1.00  0.00    -0.303 N 
HETATM    8  C   UNL     1      24.397  48.102  49.804  1.00  0.00     0.315 C 
HETATM    9  O   UNL     1      25.509  48.571  49.635  1.00  0.00    -0.262 OA
HETATM   10  H   UNL     1      23.125  46.794  50.862  1.00  0.00     0.171 HD
BRANCH   8  11
HETATM   11  C   UNL     1      23.194  48.531  48.946  1.00  0.00     0.310 C 
HETATM   12  N   UNL     1      22.001  48.615  49.634  1.00  0.00    -0.348 N 
HETATM   13  H   UNL     1      21.995  48.295  50.600  1.00  0.00     0.163 HD
HETATM   14  O   UNL     1      23.373  48.766  47.758  1.00  0.00    -0.262 OA
BRANCH  12  15
HETATM   15  C   UNL     1      20.726  48.925  48.997  1.00  0.00     0.085 C 
HETATM   16  C   UNL     1      20.592  50.447  48.849  1.00  0.00     0.034 C 
HETATM   17  C   UNL     1      19.245  50.902  48.248  1.00  0.00    -0.045 C 
HETATM   18  C   UNL     1      19.200  50.612  46.737  1.00  0.00     0.015 C 
HETATM   19  C   UNL     1      19.124  52.432  48.417  1.00  0.00     0.015 C 
HETATM   20  C   UNL     1      18.068  50.235  48.999  1.00  0.00     0.013 C 
HETATM   21  C   UNL     1      18.186  48.725  49.272  1.00  0.00    -0.016 C 
HETATM   22  C   UNL     1      19.569  48.354  49.823  1.00  0.00     0.029 C 
HETATM   23  C   UNL     1      17.794  47.856  48.076  1.00  0.00     0.010 C 
ENDBRANCH  12  15
ENDBRANCH   8  11
ENDBRANCH   6   7
BRANCH   1  24
HETATM   24  C   UNL     1      25.155  44.281  50.622  1.00  0.00     0.732 A 
HETATM   25  N   UNL     1      25.572  43.036  50.982  1.00  0.00    -0.152 N 
HETATM   26  C   UNL     1      25.328  41.956  50.197  1.00  0.00     0.268 A 
HETATM   27  H   UNL     1      26.080  42.899  51.850  1.00  0.00     0.188 HD
HETATM   28  C   UNL     1      24.577  42.237  48.939  1.00  0.00     0.035 A 
HETATM   29  O   UNL     1      25.702  40.832  50.509  1.00  0.00    -0.267 OA
HETATM   30  C   UNL     1      24.218  43.518  48.697  1.00  0.00     0.061 A 
HETATM   31  N   UNL     1      24.505  44.574  49.542  1.00  0.00    -0.067 NA
HETATM   32  C   UNL     1      23.433  43.933  47.476  1.00  0.00     0.072 C 
BRANCH  28  33
HETATM   33  C   UNL     1      24.337  41.048  48.045  1.00  0.00     0.042 C 
HETATM   34  C   UNL     1      25.431  40.889  46.999  1.00  0.00     0.010 C 
ENDBRANCH  28  33
ENDBRANCH   1  24
TORSDOF 5
ENDMDL
MODEL 4
REMARK VINA RESULT:      -8.7      2.677      6.017
REMARK  5 active torsions:
REMARK  status: ('A' for Active; 'I' for Inactive)
REMARK    1  A    between atoms: C_2  and  C_3 
REMARK    2  A    between atoms: C_7  and  N_8 
REMARK    3  A    between atoms: C_13  and  N_14 
REMARK       I    between atoms: N_14  and  C_15 
REMARK    4  A    between atoms: C_15  and  C_16 
REMARK       I    between atoms: C_16  and  N_17 
REMARK    5  A    between atoms: N_17  and  C_18 
ROOT
HETATM    1  N   UNL     1      25.414  45.182  51.893  1.00  0.00    -0.045 N 
HETATM    2  N   UNL     1      26.298  44.799  52.857  1.00  0.00    -0.156 NA
HETATM    3  C   UNL     1      26.625  45.940  53.475  1.00  0.00     0.055 A 
HETATM    4  C   UNL     1      27.587  45.939  54.607  1.00  0.00     0.072 C 
HETATM    5  C   UNL     1      25.953  47.054  52.918  1.00  0.00     0.079 A 
HETATM    6  C   UNL     1      25.181  46.548  51.900  1.00  0.00     0.152 A 
ENDROOT
BRANCH   6   7
HETATM    7  N   UNL     1      24.333  47.219  51.025  1.00  0.00    -0.303 N 
HETATM    8  C   UNL     1      24.750  47.854  49.813  1.00  0.00     0.315 C 
HETATM    9  O   UNL     1      25.909  47.893  49.438  1.00  0.00    -0.262 OA
HETATM   10  H   UNL     1      23.333  47.257  51.256  1.00  0.00     0.171 HD
BRANCH   8  11
HETATM   11  C   UNL     1      23.610  48.488  48.997  1.00  0.00     0.310 C 
HETATM   12  N   UNL     1      22.356  48.333  49.549  1.00  0.00    -0.348 N 
HETATM   13  H   UNL     1      22.278  47.741  50.375  1.00  0.00     0.163 HD
HETATM   14  O   UNL     1      23.886  49.068  47.955  1.00  0.00    -0.262 OA
BRANCH  12  15
HETATM   15  C   UNL     1      21.130  48.785  48.901  1.00  0.00     0.085 C 
HETATM   16  C   UNL     1      20.677  50.105  49.539  1.00  0.00     0.034 C 
HETATM   17  C   UNL     1      19.346  50.647  48.980  1.00  0.00    -0.045 C 
HETATM   18  C   UNL     1      19.550  51.238  47.573  1.00  0.00     0.015 C 
HETATM   19  C   UNL     1      18.864  51.801  49.887  1.00  0.00     0.015 C 
HETATM   20  C   UNL     1      18.266  49.539  48.989  1.00  0.00     0.013 C 
HETATM   21  C   UNL     1      18.686  48.158  48.456  1.00  0.00    -0.016 C 
HETATM   22  C   UNL     1      20.039  47.716  49.026  1.00  0.00     0.029 C 
HETATM   23  C   UNL     1      18.646  48.054  46.931  1.00  0.00     0.010 C 
ENDBRANCH  12  15
ENDBRANCH   8  11
ENDBRANCH   6   7
BRANCH   1  24
HETATM   24  C   UNL     1      24.850  44.236  51.027  1.00  0.00     0.732 A 
HETATM   25  N   UNL     1      23.571  44.553  50.688  1.00  0.00    -0.152 N 
HETATM   26  C   UNL     1      22.843  43.761  49.861  1.00  0.00     0.268 A 
HETATM   27  H   UNL     1      23.138  45.394  51.057  1.00  0.00     0.188 HD
HETATM   28  C   UNL     1      23.546  42.544  49.359  1.00  0.00     0.035 A 
HETATM   29  O   UNL     1      21.690  44.035  49.552  1.00  0.00    -0.267 OA
HETATM   30  C   UNL     1      24.819  42.343  49.769  1.00  0.00     0.061 A 
HETATM   31  N   UNL     1      25.500  43.193  50.621  1.00  0.00    -0.067 NA
HETATM   32  C   UNL     1      25.651  41.168  49.316  1.00  0.00     0.072 C 
BRANCH  28  33
HETATM   33  C   UNL     1      22.730  41.641  48.471  1.00  0.00     0.042 C 
HETATM   34  C   UNL     1      22.886  41.993  46.999  1.00  0.00     0.010 C 
ENDBRANCH  28  33
ENDBRANCH   1  24
TORSDOF 5
ENDMDL
MODEL 5
REMARK VINA RESULT:      -8.7      2.233      3.117
REMARK  5 active torsions:
REMARK  status: ('A' for Active; 'I' for Inactive)
REMARK    1  A    between atoms: C_2  and  C_3 
REMARK    2  A    between atoms: C_7  and  N_8 
REMARK    3  A    between atoms: C_13  and  N_14 
REMARK       I    between atoms: N_14  and  C_15 
REMARK    4  A    between atoms: C_15  and  C_16 
REMARK       I    between atoms: C_16  and  N_17 
REMARK    5  A    between atoms: N_17  and  C_18 
ROOT
HETATM    1  N   UNL     1      25.987  42.248  49.997  1.00  0.00    -0.045 N 
HETATM    2  N   UNL     1      26.133  40.934  49.670  1.00  0.00    -0.156 NA
HETATM    3  C   UNL     1      25.500  40.815  48.498  1.00  0.00     0.055 A 
HETATM    4  C   UNL     1      25.435  39.503  47.802  1.00  0.00     0.072 C 
HETATM    5  C   UNL     1      24.951  42.046  48.065  1.00  0.00     0.079 A 
HETATM    6  C   UNL     1      25.272  42.956  49.044  1.00  0.00     0.152 A 
ENDROOT
BRANCH   6   7
HETATM    7  N   UNL     1      24.962  44.310  49.118  1.00  0.00    -0.303 N 
HETATM    8  C   UNL     1      23.671  44.834  49.440  1.00  0.00     0.315 C 
HETATM    9  O   UNL     1      22.697  44.136  49.658  1.00  0.00    -0.262 OA
HETATM   10  H   UNL     1      25.714  44.987  48.938  1.00  0.00     0.171 HD
BRANCH   8  11
HETATM   11  C   UNL     1      23.601  46.370  49.503  1.00  0.00     0.310 C 
HETATM   12  N   UNL     1      22.367  46.900  49.185  1.00  0.00    -0.348 N 
HETATM   13  H   UNL     1      21.655  46.256  48.845  1.00  0.00     0.163 HD
HETATM   14  O   UNL     1      24.605  46.992  49.825  1.00  0.00    -0.262 OA
BRANCH  12  15
HETATM   15  C   UNL     1      22.105  48.332  49.106  1.00  0.00     0.085 C 
HETATM   16  C   UNL     1      20.590  48.574  49.165  1.00  0.00     0.034 C 
HETATM   17  C   UNL     1      20.185  50.055  49.018  1.00  0.00    -0.045 C 
HETATM   18  C   UNL     1      20.498  50.833  50.308  1.00  0.00     0.015 C 
HETATM   19  C   UNL     1      18.656  50.128  48.808  1.00  0.00     0.015 C 
HETATM   20  C   UNL     1      20.876  50.682  47.783  1.00  0.00     0.013 C 
HETATM   21  C   UNL     1      22.377  50.394  47.608  1.00  0.00    -0.016 C 
HETATM   22  C   UNL     1      22.698  48.908  47.815  1.00  0.00     0.029 C 
HETATM   23  C   UNL     1      23.275  51.298  48.453  1.00  0.00     0.010 C 
ENDBRANCH  12  15
ENDBRANCH   8  11
ENDBRANCH   6   7
BRANCH   1  24
HETATM   24  C   UNL     1      26.528  42.752  51.188  1.00  0.00     0.732 A 
HETATM   25  N   UNL     1      25.567  43.223  52.027  1.00  0.00    -0.152 N 
HETATM   26  C   UNL     1      25.882  43.760  53.232  1.00  0.00     0.268 A 
HETATM   27  H   UNL     1      24.588  43.183  51.757  1.00  0.00     0.188 HD
HETATM   28  C   UNL     1      27.339  43.785  53.558  1.00  0.00     0.035 A 
HETATM   29  O   UNL     1      25.026  44.191  53.994  1.00  0.00    -0.267 OA
HETATM   30  C   UNL     1      28.195  43.283  52.640  1.00  0.00     0.061 A 
HETATM   31  N   UNL     1      27.801  42.754  51.424  1.00  0.00    -0.067 NA
HETATM   32  C   UNL     1      29.687  43.223  52.856  1.00  0.00     0.072 C 
BRANCH  28  33
HETATM   33  C   UNL     1      27.699  44.415  54.879  1.00  0.00     0.042 C 
HETATM   34  C   UNL     1      27.980  45.905  54.744  1.00  0.00     0.010 C 
ENDBRANCH  28  33
ENDBRANCH   1  24
TORSDOF 5
ENDMDL
MODEL 6
REMARK VINA RESULT:      -8.5      3.074      4.446
REMARK  5 active torsions:
REMARK  status: ('A' for Active; 'I' for Inactive)
REMARK    1  A    between atoms: C_2  and  C_3 
REMARK    2  A    between atoms: C_7  and  N_8 
REMARK    3  A    between atoms: C_13  and  N_14 
REMARK       I    between atoms: N_14  and  C_15 
REMARK    4  A    between atoms: C_15  and  C_16 
REMARK       I    between atoms: C_16  and  N_17 
REMARK    5  A    between atoms: N_17  and  C_18 
ROOT
HETATM    1  N   UNL     1      25.113  43.256  49.505  1.00  0.00    -0.045 N 
HETATM    2  N   UNL     1      25.808  42.091  49.638  1.00  0.00    -0.156 NA
HETATM    3  C   UNL     1      25.372  41.331  48.628  1.00  0.00     0.055 A 
HETATM    4  C   UNL     1      25.902  39.957  48.430  1.00  0.00     0.072 C 
HETATM    5  C   UNL     1      24.404  42.000  47.841  1.00  0.00     0.079 A 
HETATM    6  C   UNL     1      24.247  43.236  48.422  1.00  0.00     0.152 A 
ENDROOT
BRANCH   6   7
HETATM    7  N   UNL     1      23.408  44.280  48.050  1.00  0.00    -0.303 N 
HETATM    8  C   UNL     1      22.165  44.592  48.685  1.00  0.00     0.315 C 
HETATM    9  O   UNL     1      21.701  43.947  49.609  1.00  0.00    -0.262 OA
HETATM   10  H   UNL     1      23.701  44.880  47.269  1.00  0.00     0.171 HD
BRANCH   8  11
HETATM   11  C   UNL     1      21.446  45.828  48.115  1.00  0.00     0.310 C 
HETATM   12  N   UNL     1      20.792  46.594  49.057  1.00  0.00    -0.348 N 
HETATM   13  H   UNL     1      20.754  46.234  50.009  1.00  0.00     0.163 HD
HETATM   14  O   UNL     1      21.507  46.040  46.911  1.00  0.00    -0.262 OA
BRANCH  12  15
HETATM   15  C   UNL     1      19.984  47.761  48.723  1.00  0.00     0.085 C 
HETATM   16  C   UNL     1      20.888  49.000  48.650  1.00  0.00     0.034 C 
HETATM   17  C   UNL     1      20.129  50.313  48.371  1.00  0.00    -0.045 C 
HETATM   18  C   UNL     1      19.685  50.381  46.899  1.00  0.00     0.015 C 
HETATM   19  C   UNL     1      21.094  51.497  48.604  1.00  0.00     0.015 C 
HETATM   20  C   UNL     1      18.933  50.462  49.342  1.00  0.00     0.013 C 
HETATM   21  C   UNL     1      18.044  49.223  49.541  1.00  0.00    -0.016 C 
HETATM   22  C   UNL     1      18.878  47.955  49.766  1.00  0.00     0.029 C 
HETATM   23  C   UNL     1      17.003  49.035  48.437  1.00  0.00     0.010 C 
ENDBRANCH  12  15
ENDBRANCH   8  11
ENDBRANCH   6   7
BRANCH   1  24
HETATM   24  C   UNL     1      25.306  44.309  50.408  1.00  0.00     0.732 A 
HETATM   25  N   UNL     1      25.001  43.952  51.684  1.00  0.00    -0.152 N 
HETATM   26  C   UNL     1      25.114  44.832  52.711  1.00  0.00     0.268 A 
HETATM   27  H   UNL     1      24.676  43.011  51.887  1.00  0.00     0.188 HD
HETATM   28  C   UNL     1      25.597  46.193  52.335  1.00  0.00     0.035 A 
HETATM   29  O   UNL     1      24.838  44.521  53.863  1.00  0.00    -0.267 OA
HETATM   30  C   UNL     1      25.869  46.422  51.030  1.00  0.00     0.061 A 
HETATM   31  N   UNL     1      25.725  45.475  50.032  1.00  0.00    -0.067 NA
HETATM   32  C   UNL     1      26.390  47.744  50.521  1.00  0.00     0.072 C 
BRANCH  28  33
HETATM   33  C   UNL     1      25.689  47.186  53.465  1.00  0.00     0.042 C 
HETATM   34  C   UNL     1      27.056  47.166  54.134  1.00  0.00     0.010 C 
ENDBRANCH  28  33
ENDBRANCH   1  24
TORSDOF 5
ENDMDL
MODEL 7
REMARK VINA RESULT:      -8.4      2.123      5.098
REMARK  5 active torsions:
REMARK  status: ('A' for Active; 'I' for Inactive)
REMARK    1  A    between atoms: C_2  and  C_3 
REMARK    2  A    between atoms: C_7  and  N_8 
REMARK    3  A    between atoms: C_13  and  N_14 
REMARK       I    between atoms: N_14  and  C_15 
REMARK    4  A    between atoms: C_15  and  C_16 
REMARK       I    between atoms: C_16  and  N_17 
REMARK    5  A    between atoms: N_17  and  C_18 
ROOT
HETATM    1  N   UNL     1      26.285  45.217  52.761  1.00  0.00    -0.045 N 
HETATM    2  N   UNL     1      27.144  44.975  53.791  1.00  0.00    -0.156 NA
HETATM    3  C   UNL     1      27.299  46.168  54.376  1.00  0.00     0.055 A 
HETATM    4  C   UNL     1      28.181  46.321  55.562  1.00  0.00     0.072 C 
HETATM    5  C   UNL     1      26.541  47.176  53.733  1.00  0.00     0.079 A 
HETATM    6  C   UNL     1      25.898  46.546  52.694  1.00  0.00     0.152 A 
ENDROOT
BRANCH   6   7
HETATM    7  N   UNL     1      25.036  47.082  51.742  1.00  0.00    -0.303 N 
HETATM    8  C   UNL     1      25.447  47.611  50.478  1.00  0.00     0.315 C 
HETATM    9  O   UNL     1      26.610  47.670  50.119  1.00  0.00    -0.262 OA
HETATM   10  H   UNL     1      24.031  47.091  51.952  1.00  0.00     0.171 HD
BRANCH   8  11
HETATM   11  C   UNL     1      24.294  48.100  49.584  1.00  0.00     0.310 C 
HETATM   12  N   UNL     1      23.282  47.180  49.400  1.00  0.00    -0.348 N 
HETATM   13  H   UNL     1      23.427  46.245  49.776  1.00  0.00     0.163 HD
HETATM   14  O   UNL     1      24.350  49.231  49.119  1.00  0.00    -0.262 OA
BRANCH  12  15
HETATM   15  C   UNL     1      22.138  47.409  48.526  1.00  0.00     0.085 C 
HETATM   16  C   UNL     1      21.151  48.357  49.221  1.00  0.00     0.034 C 
HETATM   17  C   UNL     1      19.861  48.618  48.418  1.00  0.00    -0.045 C 
HETATM   18  C   UNL     1      20.142  49.558  47.231  1.00  0.00     0.015 C 
HETATM   19  C   UNL     1      18.849  49.341  49.334  1.00  0.00     0.015 C 
HETATM   20  C   UNL     1      19.232  47.281  47.958  1.00  0.00     0.013 C 
HETATM   21  C   UNL     1      20.185  46.242  47.345  1.00  0.00    -0.016 C 
HETATM   22  C   UNL     1      21.462  46.077  48.181  1.00  0.00     0.029 C 
HETATM   23  C   UNL     1      20.497  46.494  45.869  1.00  0.00     0.010 C 
ENDBRANCH  12  15
ENDBRANCH   8  11
ENDBRANCH   6   7
BRANCH   1  24
HETATM   24  C   UNL     1      25.889  44.181  51.905  1.00  0.00     0.732 A 
HETATM   25  N   UNL     1      26.911  43.328  51.627  1.00  0.00    -0.152 N 
HETATM   26  C   UNL     1      26.736  42.258  50.810  1.00  0.00     0.268 A 
HETATM   27  H   UNL     1      27.830  43.484  52.029  1.00  0.00     0.188 HD
HETATM   28  C   UNL     1      25.359  42.095  50.258  1.00  0.00     0.035 A 
HETATM   29  O   UNL     1      27.650  41.486  50.550  1.00  0.00    -0.267 OA
HETATM   30  C   UNL     1      24.430  43.011  50.612  1.00  0.00     0.061 A 
HETATM   31  N   UNL     1      24.681  44.083  51.450  1.00  0.00    -0.067 NA
HETATM   32  C   UNL     1      22.995  42.947  50.147  1.00  0.00     0.072 C 
BRANCH  28  33
HETATM   33  C   UNL     1      25.169  40.932  49.319  1.00  0.00     0.042 C 
HETATM   34  C   UNL     1      25.409  41.322  47.868  1.00  0.00     0.010 C 
ENDBRANCH  28  33
ENDBRANCH   1  24
TORSDOF 5
ENDMDL
MODEL 8
REMARK VINA RESULT:      -8.3      3.099      5.945
REMARK  5 active torsions:
REMARK  status: ('A' for Active; 'I' for Inactive)
REMARK    1  A    between atoms: C_2  and  C_3 
REMARK    2  A    between atoms: C_7  and  N_8 
REMARK    3  A    between atoms: C_13  and  N_14 
REMARK       I    between atoms: N_14  and  C_15 
REMARK    4  A    between atoms: C_15  and  C_16 
REMARK       I    between atoms: C_16  and  N_17 
REMARK    5  A    between atoms: N_17  and  C_18 
ROOT
HETATM    1  N   UNL     1      28.441  41.697  52.173  1.00  0.00    -0.045 N 
HETATM    2  N   UNL     1      29.520  41.775  53.002  1.00  0.00    -0.156 NA
HETATM    3  C   UNL     1      29.154  42.661  53.935  1.00  0.00     0.055 A 
HETATM    4  C   UNL     1      30.080  43.024  55.039  1.00  0.00     0.072 C 
HETATM    5  C   UNL     1      27.845  43.151  53.715  1.00  0.00     0.079 A 
HETATM    6  C   UNL     1      27.402  42.522  52.576  1.00  0.00     0.152 A 
ENDROOT
BRANCH   6   7
HETATM    7  N   UNL     1      26.184  42.655  51.918  1.00  0.00    -0.303 N 
HETATM    8  C   UNL     1      25.772  43.816  51.192  1.00  0.00     0.315 C 
HETATM    9  O   UNL     1      26.447  44.827  51.101  1.00  0.00    -0.262 OA
HETATM   10  H   UNL     1      25.533  41.860  51.943  1.00  0.00     0.171 HD
BRANCH   8  11
HETATM   11  C   UNL     1      24.397  43.693  50.512  1.00  0.00     0.310 C 
HETATM   12  N   UNL     1      24.302  44.333  49.294  1.00  0.00    -0.348 N 
HETATM   13  H   UNL     1      25.093  44.903  49.001  1.00  0.00     0.163 HD
HETATM   14  O   UNL     1      23.518  43.055  51.076  1.00  0.00    -0.262 OA
BRANCH  12  15
HETATM   15  C   UNL     1      23.067  44.409  48.521  1.00  0.00     0.085 C 
HETATM   16  C   UNL     1      23.371  44.097  47.049  1.00  0.00     0.034 C 
HETATM   17  C   UNL     1      22.147  44.217  46.118  1.00  0.00    -0.045 C 
HETATM   18  C   UNL     1      21.196  43.024  46.317  1.00  0.00     0.015 C 
HETATM   19  C   UNL     1      22.637  44.163  44.653  1.00  0.00     0.015 C 
HETATM   20  C   UNL     1      21.430  45.570  46.341  1.00  0.00     0.013 C 
HETATM   21  C   UNL     1      21.186  45.992  47.799  1.00  0.00    -0.016 C 
HETATM   22  C   UNL     1      22.438  45.799  48.665  1.00  0.00     0.029 C 
HETATM   23  C   UNL     1      19.951  45.342  48.425  1.00  0.00     0.010 C 
ENDBRANCH  12  15
ENDBRANCH   8  11
ENDBRANCH   6   7
BRANCH   1  24
HETATM   24  C   UNL     1      28.460  40.854  51.055  1.00  0.00     0.732 A 
HETATM   25  N   UNL     1      29.027  39.649  51.332  1.00  0.00    -0.152 N 
HETATM   26  C   UNL     1      29.148  38.689  50.381  1.00  0.00     0.268 A 
HETATM   27  H   UNL     1      29.376  39.451  52.266  1.00  0.00     0.188 HD
HETATM   28  C   UNL     1      28.614  39.053  49.036  1.00  0.00     0.035 A 
HETATM   29  O   UNL     1      29.661  37.602  50.619  1.00  0.00    -0.267 OA
HETATM   30  C   UNL     1      28.071  40.282  48.889  1.00  0.00     0.061 A 
HETATM   31  N   UNL     1      27.985  41.216  49.906  1.00  0.00    -0.067 NA
HETATM   32  C   UNL     1      27.471  40.765  47.591  1.00  0.00     0.072 C 
BRANCH  28  33
HETATM   33  C   UNL     1      28.780  38.005  47.965  1.00  0.00     0.042 C 
HETATM   34  C   UNL     1      27.530  37.152  47.801  1.00  0.00     0.010 C 
ENDBRANCH  28  33
ENDBRANCH   1  24
TORSDOF 5
ENDMDL
MODEL 9
REMARK VINA RESULT:      -8.2      3.266     10.238
REMARK  5 active torsions:
REMARK  status: ('A' for Active; 'I' for Inactive)
REMARK    1  A    between atoms: C_2  and  C_3 
REMARK    2  A    between atoms: C_7  and  N_8 
REMARK    3  A    between atoms: C_13  and  N_14 
REMARK       I    between atoms: N_14  and  C_15 
REMARK    4  A    between atoms: C_15  and  C_16 
REMARK       I    between atoms: C_16  and  N_17 
REMARK    5  A    between atoms: N_17  and  C_18 
ROOT
HETATM    1  N   UNL     1      20.864  48.236  47.898  1.00  0.00    -0.045 N 
HETATM    2  N   UNL     1      20.261  49.422  47.603  1.00  0.00    -0.156 NA
HETATM    3  C   UNL     1      20.766  50.278  48.497  1.00  0.00     0.055 A 
HETATM    4  C   UNL     1      20.345  51.703  48.503  1.00  0.00     0.072 C 
HETATM    5  C   UNL     1      21.695  49.653  49.364  1.00  0.00     0.079 A 
HETATM    6  C   UNL     1      21.743  48.338  48.965  1.00  0.00     0.152 A 
ENDROOT
BRANCH   6   7
HETATM    7  N   UNL     1      22.490  47.289  49.491  1.00  0.00    -0.303 N 
HETATM    8  C   UNL     1      23.913  47.292  49.629  1.00  0.00     0.315 C 
HETATM    9  O   UNL     1      24.622  48.216  49.270  1.00  0.00    -0.262 OA
HETATM   10  H   UNL     1      21.987  46.453  49.813  1.00  0.00     0.171 HD
BRANCH   8  11
HETATM   11  C   UNL     1      24.495  46.028  50.285  1.00  0.00     0.310 C 
HETATM   12  N   UNL     1      25.343  46.273  51.347  1.00  0.00    -0.348 N 
HETATM   13  H   UNL     1      25.585  47.243  51.537  1.00  0.00     0.163 HD
HETATM   14  O   UNL     1      24.175  44.934  49.840  1.00  0.00    -0.262 OA
BRANCH  12  15
HETATM   15  C   UNL     1      26.064  45.223  52.057  1.00  0.00     0.085 C 
HETATM   16  C   UNL     1      26.584  45.779  53.390  1.00  0.00     0.034 C 
HETATM   17  C   UNL     1      27.428  44.775  54.201  1.00  0.00    -0.045 C 
HETATM   18  C   UNL     1      26.527  43.704  54.842  1.00  0.00     0.015 C 
HETATM   19  C   UNL     1      28.117  45.533  55.357  1.00  0.00     0.015 C 
HETATM   20  C   UNL     1      28.525  44.147  53.309  1.00  0.00     0.013 C 
HETATM   21  C   UNL     1      28.090  43.661  51.916  1.00  0.00    -0.016 C 
HETATM   22  C   UNL     1      27.219  44.700  51.197  1.00  0.00     0.029 C 
HETATM   23  C   UNL     1      27.440  42.277  51.927  1.00  0.00     0.010 C 
ENDBRANCH  12  15
ENDBRANCH   8  11
ENDBRANCH   6   7
BRANCH   1  24
HETATM   24  C   UNL     1      20.571  47.083  47.157  1.00  0.00     0.732 A 
HETATM   25  N   UNL     1      19.630  46.311  47.765  1.00  0.00    -0.152 N 
HETATM   26  C   UNL     1      19.210  45.144  47.213  1.00  0.00     0.268 A 
HETATM   27  H   UNL     1      19.228  46.599  48.652  1.00  0.00     0.188 HD
HETATM   28  C   UNL     1      19.846  44.789  45.910  1.00  0.00     0.035 A 
HETATM   29  O   UNL     1      18.367  44.439  47.752  1.00  0.00    -0.267 OA
HETATM   30  C   UNL     1      20.767  45.642  45.409  1.00  0.00     0.061 A 
HETATM   31  N   UNL     1      21.152  46.817  46.032  1.00  0.00    -0.067 NA
HETATM   32  C   UNL     1      21.464  45.416  44.090  1.00  0.00     0.072 C 
BRANCH  28  33
HETATM   33  C   UNL     1      19.411  43.476  45.311  1.00  0.00     0.042 C 
HETATM   34  C   UNL     1      18.227  43.642  44.368  1.00  0.00     0.010 C 
ENDBRANCH  28  33
ENDBRANCH   1  24
TORSDOF 5
ENDMDL
MODEL 10
REMARK VINA RESULT:      -8.1      2.944      5.811
REMARK  5 active torsions:
REMARK  status: ('A' for Active; 'I' for Inactive)
REMARK    1  A    between atoms: C_2  and  C_3 
REMARK    2  A    between atoms: C_7  and  N_8 
REMARK    3  A    between atoms: C_13  and  N_14 
REMARK       I    between atoms: N_14  and  C_15 
REMARK    4  A    between atoms: C_15  and  C_16 
REMARK       I    between atoms: C_16  and  N_17 
REMARK    5  A    between atoms: N_17  and  C_18 
ROOT
HETATM    1  N   UNL     1      28.476  42.182  52.306  1.00  0.00    -0.045 N 
HETATM    2  N   UNL     1      29.375  41.964  53.307  1.00  0.00    -0.156 NA
HETATM    3  C   UNL     1      29.406  43.121  53.978  1.00  0.00     0.055 A 
HETATM    4  C   UNL     1      30.286  43.286  55.163  1.00  0.00     0.072 C 
HETATM    5  C   UNL     1      28.528  44.081  53.418  1.00  0.00     0.079 A 
HETATM    6  C   UNL     1      27.941  43.460  52.342  1.00  0.00     0.152 A 
ENDROOT
BRANCH   6   7
HETATM    7  N   UNL     1      27.008  43.962  51.440  1.00  0.00    -0.303 N 
HETATM    8  C   UNL     1      25.618  44.141  51.722  1.00  0.00     0.315 C 
HETATM    9  O   UNL     1      25.103  43.841  52.785  1.00  0.00    -0.262 OA
HETATM   10  H   UNL     1      27.339  44.236  50.507  1.00  0.00     0.171 HD
BRANCH   8  11
HETATM   11  C   UNL     1      24.805  44.761  50.572  1.00  0.00     0.310 C 
HETATM   12  N   UNL     1      24.182  43.842  49.752  1.00  0.00    -0.348 N 
HETATM   13  H   UNL     1      24.390  42.858  49.910  1.00  0.00     0.163 HD
HETATM   14  O   UNL     1      24.765  45.979  50.471  1.00  0.00    -0.262 OA
BRANCH  12  15
HETATM   15  C   UNL     1      23.430  44.211  48.559  1.00  0.00     0.085 C 
HETATM   16  C   UNL     1      22.025  44.675  48.969  1.00  0.00     0.034 C 
HETATM   17  C   UNL     1      21.109  45.026  47.779  1.00  0.00    -0.045 C 
HETATM   18  C   UNL     1      21.521  46.372  47.155  1.00  0.00     0.015 C 
HETATM   19  C   UNL     1      19.666  45.196  48.303  1.00  0.00     0.015 C 
HETATM   20  C   UNL     1      21.116  43.881  46.737  1.00  0.00     0.013 C 
HETATM   21  C   UNL     1      22.488  43.299  46.357  1.00  0.00    -0.016 C 
HETATM   22  C   UNL     1      23.351  43.022  47.595  1.00  0.00     0.029 C 
HETATM   23  C   UNL     1      23.235  44.128  45.312  1.00  0.00     0.010 C 
ENDBRANCH  12  15
ENDBRANCH   8  11
ENDBRANCH   6   7
BRANCH   1  24
HETATM   24  C   UNL     1      28.183  41.173  51.380  1.00  0.00     0.732 A 
HETATM   25  N   UNL     1      29.040  40.121  51.480  1.00  0.00    -0.152 N 
HETATM   26  C   UNL     1      28.931  39.040  50.666  1.00  0.00     0.268 A 
HETATM   27  H   UNL     1      29.784  40.133  52.171  1.00  0.00     0.188 HD
HETATM   28  C   UNL     1      27.814  39.096  49.678  1.00  0.00     0.035 A 
HETATM   29  O   UNL     1      29.699  38.090  50.745  1.00  0.00    -0.267 OA
HETATM   30  C   UNL     1      27.029  40.197  49.681  1.00  0.00     0.061 A 
HETATM   31  N   UNL     1      27.203  41.268  50.539  1.00  0.00    -0.067 NA
HETATM   32  C   UNL     1      25.851  40.367  48.753  1.00  0.00     0.072 C 
BRANCH  28  33
HETATM   33  C   UNL     1      27.711  37.916  48.746  1.00  0.00     0.042 C 
HETATM   34  C   UNL     1      26.778  36.841  49.286  1.00  0.00     0.010 C 
ENDBRANCH  28  33
ENDBRANCH   1  24
TORSDOF 5
ENDMDL
