MODEL 1
REMARK VINA RESULT:      -7.0      0.000      0.000
REMARK  8 active torsions:
REMARK  status: ('A' for Active; 'I' for Inactive)
REMARK    1  A    between atoms: C_2  and  C_3 
REMARK    2  A    between atoms: C_3  and  N_4 
REMARK    3  A    between atoms: C_7  and  C_8 
REMARK       I    between atoms: C_8  and  N_9 
REMARK    4  A    between atoms: N_9  and  C_10 
REMARK    5  A    between atoms: C_13  and  O_14 
REMARK    6  A    between atoms: O_14  and  C_15 
REMARK    7  A    between atoms: C_15  and  C_16 
REMARK       I    between atoms: C_16  and  N_17 
REMARK    8  A    between atoms: C_23  and  C_24 
ROOT
HETATM    1  C   UNL     1      30.841  53.594  40.795  1.00  0.00     0.259 C 
HETATM    2  N   UNL     1      29.629  53.499  40.144  1.00  0.00    -0.323 N 
HETATM    3  O   UNL     1      31.411  54.683  40.722  1.00  0.00    -0.267 OA
HETATM    4  H   UNL     1      29.469  54.357  39.629  1.00  0.00     0.169 HD
ENDROOT
BRANCH   2   5
HETATM    5  C   UNL     1      28.648  52.504  39.998  1.00  0.00     0.035 A 
HETATM    6  C   UNL     1      27.969  51.870  41.033  1.00  0.00     0.032 A 
HETATM    7  C   UNL     1      27.115  50.789  40.762  1.00  0.00     0.039 A 
HETATM    8  C   UNL     1      26.891  50.357  39.454  1.00  0.00     0.069 A 
HETATM    9  C   UNL     1      27.464  51.075  38.409  1.00  0.00     0.039 A 
HETATM   10  C   UNL     1      28.339  52.133  38.682  1.00  0.00     0.032 A 
BRANCH   8  11
HETATM   11  O   UNL     1      26.120  49.236  39.338  1.00  0.00    -0.342 OA
BRANCH  11  12
HETATM   12  C   UNL     1      26.685  48.115  38.662  1.00  0.00     0.278 C 
BRANCH  12  13
HETATM   13  C   UNL     1      27.730  47.412  39.528  1.00  0.00     0.241 C 
HETATM   14  N   UNL     1      28.977  47.327  38.945  1.00  0.00    -0.364 N 
HETATM   15  C   UNL     1      30.036  46.531  39.508  1.00  0.00     0.149 C 
HETATM   16  H   UNL     1      29.101  47.754  38.032  1.00  0.00     0.161 HD
HETATM   17  O   UNL     1      27.444  46.880  40.598  1.00  0.00    -0.271 OA
ENDBRANCH  12  13
ENDBRANCH  11  12
ENDBRANCH   8  11
ENDBRANCH   2   5
BRANCH   1  18
HETATM   18  C   UNL     1      31.444  52.453  41.452  1.00  0.00     0.076 A 
HETATM   19  C   UNL     1      31.349  52.143  42.830  1.00  0.00     0.158 A 
HETATM   20  N   UNL     1      32.068  51.080  43.179  1.00  0.00    -0.183 NA
HETATM   21  N   UNL     1      32.558  50.625  42.008  1.00  0.00    -0.268 N 
HETATM   22  C   UNL     1      32.168  51.387  40.923  1.00  0.00     0.052 A 
BRANCH  21  23
HETATM   23  C   UNL     1      33.465  49.477  42.012  1.00  0.00     0.106 C 
HETATM   24  C   UNL     1      32.775  48.278  41.354  1.00  0.00     0.034 C 
BRANCH  23  25
HETATM   25  C   UNL     1      34.833  49.741  41.349  1.00  0.00     0.022 C 
HETATM   26  C   UNL     1      35.710  50.685  42.160  1.00  0.00     0.007 C 
ENDBRANCH  23  25
ENDBRANCH  21  23
BRANCH  22  27
HETATM   27  C   UNL     1      32.539  51.057  39.473  1.00  0.00     0.038 A 
HETATM   28  C   UNL     1      31.553  50.288  38.623  1.00  0.00     0.011 A 
HETATM   29  C   UNL     1      31.862  51.713  38.297  1.00  0.00     0.011 A 
ENDBRANCH  22  27
ENDBRANCH   1  18
TORSDOF 8
ENDMDL
MODEL 2
REMARK VINA RESULT:      -6.9      1.865      2.555
REMARK  8 active torsions:
REMARK  status: ('A' for Active; 'I' for Inactive)
REMARK    1  A    between atoms: C_2  and  C_3 
REMARK    2  A    between atoms: C_3  and  N_4 
REMARK    3  A    between atoms: C_7  and  C_8 
REMARK       I    between atoms: C_8  and  N_9 
REMARK    4  A    between atoms: N_9  and  C_10 
REMARK    5  A    between atoms: C_13  and  O_14 
REMARK    6  A    between atoms: O_14  and  C_15 
REMARK    7  A    between atoms: C_15  and  C_16 
REMARK       I    between atoms: C_16  and  N_17 
REMARK    8  A    between atoms: C_23  and  C_24 
ROOT
HETATM    1  C   UNL     1      30.832  53.583  40.806  1.00  0.00     0.259 C 
HETATM    2  N   UNL     1      29.623  53.487  40.151  1.00  0.00    -0.323 N 
HETATM    3  O   UNL     1      31.396  54.676  40.744  1.00  0.00    -0.267 OA
HETATM    4  H   UNL     1      29.459  54.347  39.642  1.00  0.00     0.169 HD
ENDROOT
BRANCH   2   5
HETATM    5  C   UNL     1      28.648  52.487  39.994  1.00  0.00     0.035 A 
HETATM    6  C   UNL     1      27.999  51.812  41.022  1.00  0.00     0.032 A 
HETATM    7  C   UNL     1      27.149  50.732  40.735  1.00  0.00     0.039 A 
HETATM    8  C   UNL     1      26.900  50.341  39.419  1.00  0.00     0.069 A 
HETATM    9  C   UNL     1      27.443  51.098  38.385  1.00  0.00     0.039 A 
HETATM   10  C   UNL     1      28.313  52.156  38.673  1.00  0.00     0.032 A 
BRANCH   8  11
HETATM   11  O   UNL     1      26.137  49.216  39.282  1.00  0.00    -0.342 OA
BRANCH  11  12
HETATM   12  C   UNL     1      25.041  49.270  38.372  1.00  0.00     0.278 C 
BRANCH  12  13
HETATM   13  C   UNL     1      23.711  49.423  39.109  1.00  0.00     0.241 C 
HETATM   14  N   UNL     1      23.119  50.659  38.950  1.00  0.00    -0.364 N 
HETATM   15  C   UNL     1      21.973  51.066  39.720  1.00  0.00     0.149 C 
HETATM   16  H   UNL     1      23.585  51.331  38.349  1.00  0.00     0.161 HD
HETATM   17  O   UNL     1      23.274  48.553  39.859  1.00  0.00    -0.271 OA
ENDBRANCH  12  13
ENDBRANCH  11  12
ENDBRANCH   8  11
ENDBRANCH   2   5
BRANCH   1  18
HETATM   18  C   UNL     1      31.440  52.441  41.456  1.00  0.00     0.076 A 
HETATM   19  C   UNL     1      31.354  52.127  42.833  1.00  0.00     0.158 A 
HETATM   20  N   UNL     1      32.075  51.063  43.175  1.00  0.00    -0.183 NA
HETATM   21  N   UNL     1      32.559  50.611  42.000  1.00  0.00    -0.268 N 
HETATM   22  C   UNL     1      32.161  51.377  40.919  1.00  0.00     0.052 A 
BRANCH  21  23
HETATM   23  C   UNL     1      33.466  49.464  41.995  1.00  0.00     0.106 C 
HETATM   24  C   UNL     1      32.771  48.265  41.343  1.00  0.00     0.034 C 
BRANCH  23  25
HETATM   25  C   UNL     1      34.827  49.730  41.320  1.00  0.00     0.022 C 
HETATM   26  C   UNL     1      35.702  50.693  42.112  1.00  0.00     0.007 C 
ENDBRANCH  23  25
ENDBRANCH  21  23
BRANCH  22  27
HETATM   27  C   UNL     1      32.524  51.052  39.466  1.00  0.00     0.038 A 
HETATM   28  C   UNL     1      31.517  50.319  38.608  1.00  0.00     0.011 A 
HETATM   29  C   UNL     1      31.866  51.738  38.297  1.00  0.00     0.011 A 
ENDBRANCH  22  27
ENDBRANCH   1  18
TORSDOF 8
ENDMDL
MODEL 3
REMARK VINA RESULT:      -6.8      1.806      3.057
REMARK  8 active torsions:
REMARK  status: ('A' for Active; 'I' for Inactive)
REMARK    1  A    between atoms: C_2  and  C_3 
REMARK    2  A    between atoms: C_3  and  N_4 
REMARK    3  A    between atoms: C_7  and  C_8 
REMARK       I    between atoms: C_8  and  N_9 
REMARK    4  A    between atoms: N_9  and  C_10 
REMARK    5  A    between atoms: C_13  and  O_14 
REMARK    6  A    between atoms: O_14  and  C_15 
REMARK    7  A    between atoms: C_15  and  C_16 
REMARK       I    between atoms: C_16  and  N_17 
REMARK    8  A    between atoms: C_23  and  C_24 
ROOT
HETATM    1  C   UNL     1      30.983  53.796  40.631  1.00  0.00     0.259 C 
HETATM    2  N   UNL     1      29.623  53.596  40.522  1.00  0.00    -0.323 N 
HETATM    3  O   UNL     1      31.346  54.957  40.830  1.00  0.00    -0.267 OA
HETATM    4  H   UNL     1      29.160  54.497  40.538  1.00  0.00     0.169 HD
ENDROOT
BRANCH   2   5
HETATM    5  C   UNL     1      28.788  52.480  40.342  1.00  0.00     0.035 A 
HETATM    6  C   UNL     1      28.310  51.649  41.349  1.00  0.00     0.032 A 
HETATM    7  C   UNL     1      27.601  50.482  41.027  1.00  0.00     0.039 A 
HETATM    8  C   UNL     1      27.320  50.152  39.700  1.00  0.00     0.069 A 
HETATM    9  C   UNL     1      27.682  51.049  38.700  1.00  0.00     0.039 A 
HETATM   10  C   UNL     1      28.415  52.198  39.021  1.00  0.00     0.032 A 
BRANCH   8  11
HETATM   11  O   UNL     1      26.713  48.942  39.519  1.00  0.00    -0.342 OA
BRANCH  11  12
HETATM   12  C   UNL     1      26.497  48.133  40.674  1.00  0.00     0.278 C 
BRANCH  12  13
HETATM   13  C   UNL     1      25.056  47.627  40.738  1.00  0.00     0.241 C 
HETATM   14  N   UNL     1      24.140  48.462  40.133  1.00  0.00    -0.364 N 
HETATM   15  C   UNL     1      22.720  48.265  40.261  1.00  0.00     0.149 C 
HETATM   16  H   UNL     1      24.492  49.301  39.683  1.00  0.00     0.161 HD
HETATM   17  O   UNL     1      24.743  46.620  41.367  1.00  0.00    -0.271 OA
ENDBRANCH  12  13
ENDBRANCH  11  12
ENDBRANCH   8  11
ENDBRANCH   2   5
BRANCH   1  18
HETATM   18  C   UNL     1      31.930  52.718  40.437  1.00  0.00     0.076 A 
HETATM   19  C   UNL     1      32.775  52.548  39.315  1.00  0.00     0.158 A 
HETATM   20  N   UNL     1      33.487  51.426  39.359  1.00  0.00    -0.183 NA
HETATM   21  N   UNL     1      33.186  50.902  40.565  1.00  0.00    -0.268 N 
HETATM   22  C   UNL     1      32.289  51.671  41.282  1.00  0.00     0.052 A 
BRANCH  21  23
HETATM   23  C   UNL     1      33.751  49.605  40.941  1.00  0.00     0.106 C 
HETATM   24  C   UNL     1      34.976  49.821  41.835  1.00  0.00     0.034 C 
BRANCH  23  25
HETATM   25  C   UNL     1      32.751  48.647  41.620  1.00  0.00     0.022 C 
HETATM   26  C   UNL     1      31.817  47.967  40.628  1.00  0.00     0.007 C 
ENDBRANCH  23  25
ENDBRANCH  21  23
BRANCH  22  27
HETATM   27  C   UNL     1      31.823  51.332  42.703  1.00  0.00     0.038 A 
HETATM   28  C   UNL     1      32.704  51.712  43.871  1.00  0.00     0.011 A 
HETATM   29  C   UNL     1      31.386  52.391  43.683  1.00  0.00     0.011 A 
ENDBRANCH  22  27
ENDBRANCH   1  18
TORSDOF 8
ENDMDL
MODEL 4
REMARK VINA RESULT:      -6.7     11.218     14.342
REMARK  8 active torsions:
REMARK  status: ('A' for Active; 'I' for Inactive)
REMARK    1  A    between atoms: C_2  and  C_3 
REMARK    2  A    between atoms: C_3  and  N_4 
REMARK    3  A    between atoms: C_7  and  C_8 
REMARK       I    between atoms: C_8  and  N_9 
REMARK    4  A    between atoms: N_9  and  C_10 
REMARK    5  A    between atoms: C_13  and  O_14 
REMARK    6  A    between atoms: O_14  and  C_15 
REMARK    7  A    between atoms: C_15  and  C_16 
REMARK       I    between atoms: C_16  and  N_17 
REMARK    8  A    between atoms: C_23  and  C_24 
ROOT
HETATM    1  C   UNL     1      18.991  49.711  50.082  1.00  0.00     0.259 C 
HETATM    2  N   UNL     1      20.350  49.635  50.301  1.00  0.00    -0.323 N 
HETATM    3  O   UNL     1      18.279  49.702  51.087  1.00  0.00    -0.267 OA
HETATM    4  H   UNL     1      20.512  49.490  51.290  1.00  0.00     0.169 HD
ENDROOT
BRANCH   2   5
HETATM    5  C   UNL     1      21.496  49.654  49.487  1.00  0.00     0.035 A 
HETATM    6  C   UNL     1      22.005  48.577  48.771  1.00  0.00     0.032 A 
HETATM    7  C   UNL     1      23.239  48.685  48.110  1.00  0.00     0.039 A 
HETATM    8  C   UNL     1      23.957  49.882  48.116  1.00  0.00     0.069 A 
HETATM    9  C   UNL     1      23.386  50.998  48.719  1.00  0.00     0.039 A 
HETATM   10  C   UNL     1      22.170  50.880  49.403  1.00  0.00     0.032 A 
BRANCH   8  11
HETATM   11  O   UNL     1      25.186  49.824  47.522  1.00  0.00    -0.342 OA
BRANCH  11  12
HETATM   12  C   UNL     1      26.330  49.985  48.357  1.00  0.00     0.278 C 
BRANCH  12  13
HETATM   13  C   UNL     1      26.767  48.653  48.967  1.00  0.00     0.241 C 
HETATM   14  N   UNL     1      25.922  48.181  49.949  1.00  0.00    -0.364 N 
HETATM   15  C   UNL     1      26.262  47.054  50.778  1.00  0.00     0.149 C 
HETATM   16  H   UNL     1      25.090  48.723  50.156  1.00  0.00     0.161 HD
HETATM   17  O   UNL     1      27.833  48.117  48.674  1.00  0.00    -0.271 OA
ENDBRANCH  12  13
ENDBRANCH  11  12
ENDBRANCH   8  11
ENDBRANCH   2   5
BRANCH   1  18
HETATM   18  C   UNL     1      18.433  49.714  48.745  1.00  0.00     0.076 A 
HETATM   19  C   UNL     1      18.313  48.589  47.894  1.00  0.00     0.158 A 
HETATM   20  N   UNL     1      17.839  48.892  46.689  1.00  0.00    -0.183 NA
HETATM   21  N   UNL     1      17.548  50.206  46.778  1.00  0.00    -0.268 N 
HETATM   22  C   UNL     1      17.838  50.743  48.019  1.00  0.00     0.052 A 
BRANCH  21  23
HETATM   23  C   UNL     1      17.053  50.910  45.595  1.00  0.00     0.106 C 
HETATM   24  C   UNL     1      18.113  50.861  44.490  1.00  0.00     0.034 C 
BRANCH  23  25
HETATM   25  C   UNL     1      15.700  50.393  45.065  1.00  0.00     0.022 C 
HETATM   26  C   UNL     1      14.550  51.353  45.344  1.00  0.00     0.007 C 
ENDBRANCH  23  25
ENDBRANCH  21  23
BRANCH  22  27
HETATM   27  C   UNL     1      17.553  52.199  48.404  1.00  0.00     0.038 A 
HETATM   28  C   UNL     1      16.151  52.583  48.822  1.00  0.00     0.011 A 
HETATM   29  C   UNL     1      17.260  52.616  49.823  1.00  0.00     0.011 A 
ENDBRANCH  22  27
ENDBRANCH   1  18
TORSDOF 8
ENDMDL
MODEL 5
REMARK VINA RESULT:      -6.7     11.327     14.366
REMARK  8 active torsions:
REMARK  status: ('A' for Active; 'I' for Inactive)
REMARK    1  A    between atoms: C_2  and  C_3 
REMARK    2  A    between atoms: C_3  and  N_4 
REMARK    3  A    between atoms: C_7  and  C_8 
REMARK       I    between atoms: C_8  and  N_9 
REMARK    4  A    between atoms: N_9  and  C_10 
REMARK    5  A    between atoms: C_13  and  O_14 
REMARK    6  A    between atoms: O_14  and  C_15 
REMARK    7  A    between atoms: C_15  and  C_16 
REMARK       I    between atoms: C_16  and  N_17 
REMARK    8  A    between atoms: C_23  and  C_24 
ROOT
HETATM    1  C   UNL     1      18.826  49.579  50.536  1.00  0.00     0.259 C 
HETATM    2  N   UNL     1      20.093  49.053  50.402  1.00  0.00    -0.323 N 
HETATM    3  O   UNL     1      18.153  49.139  51.469  1.00  0.00    -0.267 OA
HETATM    4  H   UNL     1      20.208  48.304  51.074  1.00  0.00     0.169 HD
ENDROOT
BRANCH   2   5
HETATM    5  C   UNL     1      21.183  49.278  49.542  1.00  0.00     0.035 A 
HETATM    6  C   UNL     1      21.627  48.415  48.547  1.00  0.00     0.032 A 
HETATM    7  C   UNL     1      22.815  48.688  47.851  1.00  0.00     0.039 A 
HETATM    8  C   UNL     1      23.550  49.847  48.106  1.00  0.00     0.069 A 
HETATM    9  C   UNL     1      23.037  50.776  49.007  1.00  0.00     0.039 A 
HETATM   10  C   UNL     1      21.868  50.487  49.721  1.00  0.00     0.032 A 
BRANCH   8  11
HETATM   11  O   UNL     1      24.735  49.942  47.434  1.00  0.00    -0.342 OA
BRANCH  11  12
HETATM   12  C   UNL     1      25.911  50.186  48.202  1.00  0.00     0.278 C 
BRANCH  12  13
HETATM   13  C   UNL     1      26.455  48.895  48.813  1.00  0.00     0.241 C 
HETATM   14  N   UNL     1      25.643  48.347  49.784  1.00  0.00    -0.364 N 
HETATM   15  C   UNL     1      26.071  47.252  50.614  1.00  0.00     0.149 C 
HETATM   16  H   UNL     1      24.765  48.815  49.983  1.00  0.00     0.161 HD
HETATM   17  O   UNL     1      27.567  48.456  48.531  1.00  0.00    -0.271 OA
ENDBRANCH  12  13
ENDBRANCH  11  12
ENDBRANCH   8  11
ENDBRANCH   2   5
BRANCH   1  18
HETATM   18  C   UNL     1      18.290  50.529  49.584  1.00  0.00     0.076 A 
HETATM   19  C   UNL     1      18.373  51.939  49.682  1.00  0.00     0.158 A 
HETATM   20  N   UNL     1      17.724  52.572  48.709  1.00  0.00    -0.183 NA
HETATM   21  N   UNL     1      17.296  51.576  47.907  1.00  0.00    -0.268 N 
HETATM   22  C   UNL     1      17.658  50.320  48.361  1.00  0.00     0.052 A 
BRANCH  21  23
HETATM   23  C   UNL     1      16.474  51.901  46.742  1.00  0.00     0.106 C 
HETATM   24  C   UNL     1      15.289  52.767  47.178  1.00  0.00     0.034 C 
BRANCH  23  25
HETATM   25  C   UNL     1      17.241  52.580  45.588  1.00  0.00     0.022 C 
HETATM   26  C   UNL     1      16.317  53.204  44.551  1.00  0.00     0.007 C 
ENDBRANCH  23  25
ENDBRANCH  21  23
BRANCH  22  27
HETATM   27  C   UNL     1      17.346  49.021  47.609  1.00  0.00     0.038 A 
HETATM   28  C   UNL     1      18.265  48.586  46.490  1.00  0.00     0.011 A 
HETATM   29  C   UNL     1      18.196  47.785  47.748  1.00  0.00     0.011 A 
ENDBRANCH  22  27
ENDBRANCH   1  18
TORSDOF 8
ENDMDL
MODEL 6
REMARK VINA RESULT:      -6.7      1.117      2.376
REMARK  8 active torsions:
REMARK  status: ('A' for Active; 'I' for Inactive)
REMARK    1  A    between atoms: C_2  and  C_3 
REMARK    2  A    between atoms: C_3  and  N_4 
REMARK    3  A    between atoms: C_7  and  C_8 
REMARK       I    between atoms: C_8  and  N_9 
REMARK    4  A    between atoms: N_9  and  C_10 
REMARK    5  A    between atoms: C_13  and  O_14 
REMARK    6  A    between atoms: O_14  and  C_15 
REMARK    7  A    between atoms: C_15  and  C_16 
REMARK       I    between atoms: C_16  and  N_17 
REMARK    8  A    between atoms: C_23  and  C_24 
ROOT
HETATM    1  C   UNL     1      30.973  53.810  40.590  1.00  0.00     0.259 C 
HETATM    2  N   UNL     1      29.611  53.644  40.461  1.00  0.00    -0.323 N 
HETATM    3  O   UNL     1      31.361  54.959  40.803  1.00  0.00    -0.267 OA
HETATM    4  H   UNL     1      29.169  54.555  40.479  1.00  0.00     0.169 HD
ENDROOT
BRANCH   2   5
HETATM    5  C   UNL     1      28.751  52.550  40.261  1.00  0.00     0.035 A 
HETATM    6  C   UNL     1      28.194  51.757  41.258  1.00  0.00     0.032 A 
HETATM    7  C   UNL     1      27.467  50.604  40.924  1.00  0.00     0.039 A 
HETATM    8  C   UNL     1      27.246  50.253  39.591  1.00  0.00     0.069 A 
HETATM    9  C   UNL     1      27.689  51.116  38.593  1.00  0.00     0.039 A 
HETATM   10  C   UNL     1      28.439  52.249  38.928  1.00  0.00     0.032 A 
BRANCH   8  11
HETATM   11  O   UNL     1      26.612  49.058  39.404  1.00  0.00    -0.342 OA
BRANCH  11  12
HETATM   12  C   UNL     1      27.190  48.142  38.477  1.00  0.00     0.278 C 
BRANCH  12  13
HETATM   13  C   UNL     1      28.045  47.094  39.188  1.00  0.00     0.241 C 
HETATM   14  N   UNL     1      28.847  46.356  38.343  1.00  0.00    -0.364 N 
HETATM   15  C   UNL     1      29.569  45.193  38.791  1.00  0.00     0.149 C 
HETATM   16  H   UNL     1      28.827  46.584  37.355  1.00  0.00     0.161 HD
HETATM   17  O   UNL     1      27.937  46.868  40.391  1.00  0.00    -0.271 OA
ENDBRANCH  12  13
ENDBRANCH  11  12
ENDBRANCH   8  11
ENDBRANCH   2   5
BRANCH   1  18
HETATM   18  C   UNL     1      31.896  52.710  40.399  1.00  0.00     0.076 A 
HETATM   19  C   UNL     1      32.740  52.521  39.279  1.00  0.00     0.158 A 
HETATM   20  N   UNL     1      33.427  51.383  39.326  1.00  0.00    -0.183 NA
HETATM   21  N   UNL     1      33.112  50.867  40.531  1.00  0.00    -0.268 N 
HETATM   22  C   UNL     1      32.230  51.657  41.246  1.00  0.00     0.052 A 
BRANCH  21  23
HETATM   23  C   UNL     1      33.646  49.559  40.910  1.00  0.00     0.106 C 
HETATM   24  C   UNL     1      34.874  49.748  41.806  1.00  0.00     0.034 C 
BRANCH  23  25
HETATM   25  C   UNL     1      32.624  48.624  41.589  1.00  0.00     0.022 C 
HETATM   26  C   UNL     1      31.682  47.957  40.595  1.00  0.00     0.007 C 
ENDBRANCH  23  25
ENDBRANCH  21  23
BRANCH  22  27
HETATM   27  C   UNL     1      31.753  51.330  42.666  1.00  0.00     0.038 A 
HETATM   28  C   UNL     1      32.616  51.737  43.839  1.00  0.00     0.011 A 
HETATM   29  C   UNL     1      31.291  52.395  43.627  1.00  0.00     0.011 A 
ENDBRANCH  22  27
ENDBRANCH   1  18
TORSDOF 8
ENDMDL
MODEL 7
REMARK VINA RESULT:      -6.7      3.582      8.396
REMARK  8 active torsions:
REMARK  status: ('A' for Active; 'I' for Inactive)
REMARK    1  A    between atoms: C_2  and  C_3 
REMARK    2  A    between atoms: C_3  and  N_4 
REMARK    3  A    between atoms: C_7  and  C_8 
REMARK       I    between atoms: C_8  and  N_9 
REMARK    4  A    between atoms: N_9  and  C_10 
REMARK    5  A    between atoms: C_13  and  O_14 
REMARK    6  A    between atoms: O_14  and  C_15 
REMARK    7  A    between atoms: C_15  and  C_16 
REMARK       I    between atoms: C_16  and  N_17 
REMARK    8  A    between atoms: C_23  and  C_24 
ROOT
HETATM    1  C   UNL     1      32.515  48.611  40.701  1.00  0.00     0.259 C 
HETATM    2  N   UNL     1      33.671  48.837  41.417  1.00  0.00    -0.323 N 
HETATM    3  O   UNL     1      32.231  47.431  40.490  1.00  0.00    -0.267 OA
HETATM    4  H   UNL     1      34.140  47.952  41.566  1.00  0.00     0.169 HD
ENDROOT
BRANCH   2   5
HETATM    5  C   UNL     1      34.337  49.974  41.907  1.00  0.00     0.035 A 
HETATM    6  C   UNL     1      35.635  50.358  41.592  1.00  0.00     0.032 A 
HETATM    7  C   UNL     1      36.237  51.436  42.260  1.00  0.00     0.039 A 
HETATM    8  C   UNL     1      35.537  52.173  43.215  1.00  0.00     0.069 A 
HETATM    9  C   UNL     1      34.196  51.875  43.436  1.00  0.00     0.039 A 
HETATM   10  C   UNL     1      33.607  50.781  42.791  1.00  0.00     0.032 A 
BRANCH   8  11
HETATM   11  O   UNL     1      36.269  53.130  43.860  1.00  0.00    -0.342 OA
BRANCH  11  12
HETATM   12  C   UNL     1      37.678  52.935  43.947  1.00  0.00     0.278 C 
BRANCH  12  13
HETATM   13  C   UNL     1      38.165  53.027  45.393  1.00  0.00     0.241 C 
HETATM   14  N   UNL     1      37.885  54.231  46.004  1.00  0.00    -0.364 N 
HETATM   15  C   UNL     1      38.434  54.587  47.287  1.00  0.00     0.149 C 
HETATM   16  H   UNL     1      37.367  54.921  45.471  1.00  0.00     0.161 HD
HETATM   17  O   UNL     1      38.838  52.141  45.915  1.00  0.00    -0.271 OA
ENDBRANCH  12  13
ENDBRANCH  11  12
ENDBRANCH   8  11
ENDBRANCH   2   5
BRANCH   1  18
HETATM   18  C   UNL     1      31.729  49.699  40.159  1.00  0.00     0.076 A 
HETATM   19  C   UNL     1      31.986  50.384  38.947  1.00  0.00     0.158 A 
HETATM   20  N   UNL     1      31.151  51.396  38.730  1.00  0.00    -0.183 NA
HETATM   21  N   UNL     1      30.275  51.316  39.752  1.00  0.00    -0.268 N 
HETATM   22  C   UNL     1      30.546  50.273  40.618  1.00  0.00     0.052 A 
BRANCH  21  23
HETATM   23  C   UNL     1      29.228  52.331  39.876  1.00  0.00     0.106 C 
HETATM   24  C   UNL     1      29.867  53.691  40.172  1.00  0.00     0.034 C 
BRANCH  23  25
HETATM   25  C   UNL     1      28.290  52.432  38.656  1.00  0.00     0.022 C 
HETATM   26  C   UNL     1      27.528  51.140  38.388  1.00  0.00     0.007 C 
ENDBRANCH  23  25
ENDBRANCH  21  23
BRANCH  22  27
HETATM   27  C   UNL     1      29.674  49.925  41.830  1.00  0.00     0.038 A 
HETATM   28  C   UNL     1      28.309  49.319  41.598  1.00  0.00     0.011 A 
HETATM   29  C   UNL     1      29.385  48.502  42.234  1.00  0.00     0.011 A 
ENDBRANCH  22  27
ENDBRANCH   1  18
TORSDOF 8
ENDMDL
MODEL 8
REMARK VINA RESULT:      -6.6      2.705      6.763
REMARK  8 active torsions:
REMARK  status: ('A' for Active; 'I' for Inactive)
REMARK    1  A    between atoms: C_2  and  C_3 
REMARK    2  A    between atoms: C_3  and  N_4 
REMARK    3  A    between atoms: C_7  and  C_8 
REMARK       I    between atoms: C_8  and  N_9 
REMARK    4  A    between atoms: N_9  and  C_10 
REMARK    5  A    between atoms: C_13  and  O_14 
REMARK    6  A    between atoms: O_14  and  C_15 
REMARK    7  A    between atoms: C_15  and  C_16 
REMARK       I    between atoms: C_16  and  N_17 
REMARK    8  A    between atoms: C_23  and  C_24 
ROOT
HETATM    1  C   UNL     1      28.724  52.143  41.459  1.00  0.00     0.259 C 
HETATM    2  N   UNL     1      29.894  52.676  41.958  1.00  0.00    -0.323 N 
HETATM    3  O   UNL     1      27.724  52.856  41.547  1.00  0.00    -0.267 OA
HETATM    4  H   UNL     1      29.684  53.560  42.404  1.00  0.00     0.169 HD
ENDROOT
BRANCH   2   5
HETATM    5  C   UNL     1      31.233  52.254  42.031  1.00  0.00     0.035 A 
HETATM    6  C   UNL     1      32.096  52.090  40.953  1.00  0.00     0.032 A 
HETATM    7  C   UNL     1      33.367  51.525  41.143  1.00  0.00     0.039 A 
HETATM    8  C   UNL     1      33.810  51.160  42.415  1.00  0.00     0.069 A 
HETATM    9  C   UNL     1      33.001  51.446  43.510  1.00  0.00     0.039 A 
HETATM   10  C   UNL     1      31.722  51.982  43.315  1.00  0.00     0.032 A 
BRANCH   8  11
HETATM   11  O   UNL     1      35.022  50.531  42.448  1.00  0.00    -0.342 OA
BRANCH  11  12
HETATM   12  C   UNL     1      35.948  50.828  41.405  1.00  0.00     0.278 C 
BRANCH  12  13
HETATM   13  C   UNL     1      37.392  50.712  41.893  1.00  0.00     0.241 C 
HETATM   14  N   UNL     1      37.520  50.133  43.138  1.00  0.00    -0.364 N 
HETATM   15  C   UNL     1      38.770  50.117  43.852  1.00  0.00     0.149 C 
HETATM   16  H   UNL     1      36.674  49.814  43.598  1.00  0.00     0.161 HD
HETATM   17  O   UNL     1      38.335  51.192  41.268  1.00  0.00    -0.271 OA
ENDBRANCH  12  13
ENDBRANCH  11  12
ENDBRANCH   8  11
ENDBRANCH   2   5
BRANCH   1  18
HETATM   18  C   UNL     1      28.662  50.792  40.942  1.00  0.00     0.076 A 
HETATM   19  C   UNL     1      28.443  49.621  41.707  1.00  0.00     0.158 A 
HETATM   20  N   UNL     1      28.515  48.504  40.988  1.00  0.00    -0.183 NA
HETATM   21  N   UNL     1      28.680  48.945  39.724  1.00  0.00    -0.268 N 
HETATM   22  C   UNL     1      28.722  50.324  39.632  1.00  0.00     0.052 A 
BRANCH  21  23
HETATM   23  C   UNL     1      28.864  47.973  38.647  1.00  0.00     0.106 C 
HETATM   24  C   UNL     1      30.262  47.355  38.748  1.00  0.00     0.034 C 
BRANCH  23  25
HETATM   25  C   UNL     1      27.790  46.867  38.595  1.00  0.00     0.022 C 
HETATM   26  C   UNL     1      26.473  47.350  38.002  1.00  0.00     0.007 C 
ENDBRANCH  23  25
ENDBRANCH  21  23
BRANCH  22  27
HETATM   27  C   UNL     1      28.846  51.085  38.307  1.00  0.00     0.038 A 
HETATM   28  C   UNL     1      29.061  52.581  38.341  1.00  0.00     0.011 A 
HETATM   29  C   UNL     1      30.147  51.686  37.840  1.00  0.00     0.011 A 
ENDBRANCH  22  27
ENDBRANCH   1  18
TORSDOF 8
ENDMDL
MODEL 9
REMARK VINA RESULT:      -6.5      3.345      7.743
REMARK  8 active torsions:
REMARK  status: ('A' for Active; 'I' for Inactive)
REMARK    1  A    between atoms: C_2  and  C_3 
REMARK    2  A    between atoms: C_3  and  N_4 
REMARK    3  A    between atoms: C_7  and  C_8 
REMARK       I    between atoms: C_8  and  N_9 
REMARK    4  A    between atoms: N_9  and  C_10 
REMARK    5  A    between atoms: C_13  and  O_14 
REMARK    6  A    between atoms: O_14  and  C_15 
REMARK    7  A    between atoms: C_15  and  C_16 
REMARK       I    between atoms: C_16  and  N_17 
REMARK    8  A    between atoms: C_23  and  C_24 
ROOT
HETATM    1  C   UNL     1      33.231  48.591  41.328  1.00  0.00     0.259 C 
HETATM    2  N   UNL     1      34.430  49.154  40.944  1.00  0.00    -0.323 N 
HETATM    3  O   UNL     1      33.219  47.365  41.439  1.00  0.00    -0.267 OA
HETATM    4  H   UNL     1      35.084  48.411  40.729  1.00  0.00     0.169 HD
ENDROOT
BRANCH   2   5
HETATM    5  C   UNL     1      34.900  50.462  40.739  1.00  0.00     0.035 A 
HETATM    6  C   UNL     1      34.579  51.285  39.666  1.00  0.00     0.032 A 
HETATM    7  C   UNL     1      35.227  52.519  39.500  1.00  0.00     0.039 A 
HETATM    8  C   UNL     1      36.169  52.968  40.427  1.00  0.00     0.069 A 
HETATM    9  C   UNL     1      36.393  52.208  41.570  1.00  0.00     0.039 A 
HETATM   10  C   UNL     1      35.768  50.964  41.718  1.00  0.00     0.032 A 
BRANCH   8  11
HETATM   11  O   UNL     1      36.797  54.136  40.096  1.00  0.00    -0.342 OA
BRANCH  11  12
HETATM   12  C   UNL     1      36.354  54.813  38.922  1.00  0.00     0.278 C 
BRANCH  12  13
HETATM   13  C   UNL     1      35.637  56.117  39.268  1.00  0.00     0.241 C 
HETATM   14  N   UNL     1      35.309  56.886  38.171  1.00  0.00    -0.364 N 
HETATM   15  C   UNL     1      34.815  58.232  38.297  1.00  0.00     0.149 C 
HETATM   16  H   UNL     1      35.536  56.518  37.253  1.00  0.00     0.161 HD
HETATM   17  O   UNL     1      35.470  56.485  40.428  1.00  0.00    -0.271 OA
ENDBRANCH  12  13
ENDBRANCH  11  12
ENDBRANCH   8  11
ENDBRANCH   2   5
BRANCH   1  18
HETATM   18  C   UNL     1      32.036  49.391  41.505  1.00  0.00     0.076 A 
HETATM   19  C   UNL     1      31.715  50.160  42.649  1.00  0.00     0.158 A 
HETATM   20  N   UNL     1      30.516  50.731  42.577  1.00  0.00    -0.183 NA
HETATM   21  N   UNL     1      30.086  50.421  41.337  1.00  0.00    -0.268 N 
HETATM   22  C   UNL     1      30.991  49.656  40.624  1.00  0.00     0.052 A 
BRANCH  21  23
HETATM   23  C   UNL     1      28.747  50.840  40.920  1.00  0.00     0.106 C 
HETATM   24  C   UNL     1      27.702  49.928  41.570  1.00  0.00     0.034 C 
BRANCH  23  25
HETATM   25  C   UNL     1      28.423  52.320  41.207  1.00  0.00     0.022 C 
HETATM   26  C   UNL     1      29.186  53.278  40.301  1.00  0.00     0.007 C 
ENDBRANCH  23  25
ENDBRANCH  21  23
BRANCH  22  27
HETATM   27  C   UNL     1      30.773  49.214  39.173  1.00  0.00     0.038 A 
HETATM   28  C   UNL     1      30.685  47.736  38.865  1.00  0.00     0.011 A 
HETATM   29  C   UNL     1      29.479  48.602  38.700  1.00  0.00     0.011 A 
ENDBRANCH  22  27
ENDBRANCH   1  18
TORSDOF 8
ENDMDL
MODEL 10
REMARK VINA RESULT:      -6.5     11.383     14.199
REMARK  8 active torsions:
REMARK  status: ('A' for Active; 'I' for Inactive)
REMARK    1  A    between atoms: C_2  and  C_3 
REMARK    2  A    between atoms: C_3  and  N_4 
REMARK    3  A    between atoms: C_7  and  C_8 
REMARK       I    between atoms: C_8  and  N_9 
REMARK    4  A    between atoms: N_9  and  C_10 
REMARK    5  A    between atoms: C_13  and  O_14 
REMARK    6  A    between atoms: O_14  and  C_15 
REMARK    7  A    between atoms: C_15  and  C_16 
REMARK       I    between atoms: C_16  and  N_17 
REMARK    8  A    between atoms: C_23  and  C_24 
ROOT
HETATM    1  C   UNL     1      19.837  51.576  48.252  1.00  0.00     0.259 C 
HETATM    2  N   UNL     1      21.115  51.447  48.752  1.00  0.00    -0.323 N 
HETATM    3  O   UNL     1      19.293  52.667  48.432  1.00  0.00    -0.267 OA
HETATM    4  H   UNL     1      21.346  52.283  49.275  1.00  0.00     0.169 HD
ENDROOT
BRANCH   2   5
HETATM    5  C   UNL     1      22.094  50.438  48.745  1.00  0.00     0.035 A 
HETATM    6  C   UNL     1      21.898  49.109  49.105  1.00  0.00     0.032 A 
HETATM    7  C   UNL     1      22.990  48.231  49.194  1.00  0.00     0.039 A 
HETATM    8  C   UNL     1      24.282  48.654  48.880  1.00  0.00     0.069 A 
HETATM    9  C   UNL     1      24.460  49.945  48.392  1.00  0.00     0.039 A 
HETATM   10  C   UNL     1      23.376  50.827  48.333  1.00  0.00     0.032 A 
BRANCH   8  11
HETATM   11  O   UNL     1      25.265  47.732  49.104  1.00  0.00    -0.342 OA
BRANCH  11  12
HETATM   12  C   UNL     1      26.102  47.923  50.242  1.00  0.00     0.278 C 
BRANCH  12  13
HETATM   13  C   UNL     1      25.651  47.057  51.418  1.00  0.00     0.241 C 
HETATM   14  N   UNL     1      25.451  45.731  51.094  1.00  0.00    -0.364 N 
HETATM   15  C   UNL     1      24.837  44.802  52.006  1.00  0.00     0.149 C 
HETATM   16  H   UNL     1      25.644  45.444  50.140  1.00  0.00     0.161 HD
HETATM   17  O   UNL     1      25.392  47.532  52.520  1.00  0.00    -0.271 OA
ENDBRANCH  12  13
ENDBRANCH  11  12
ENDBRANCH   8  11
ENDBRANCH   2   5
BRANCH   1  18
HETATM   18  C   UNL     1      19.146  50.466  47.631  1.00  0.00     0.076 A 
HETATM   19  C   UNL     1      19.231  50.094  46.268  1.00  0.00     0.158 A 
HETATM   20  N   UNL     1      18.428  49.083  45.948  1.00  0.00    -0.183 NA
HETATM   21  N   UNL     1      17.885  48.719  47.127  1.00  0.00    -0.268 N 
HETATM   22  C   UNL     1      18.326  49.488  48.189  1.00  0.00     0.052 A 
BRANCH  21  23
HETATM   23  C   UNL     1      16.882  47.654  47.153  1.00  0.00     0.106 C 
HETATM   24  C   UNL     1      15.489  48.259  46.958  1.00  0.00     0.034 C 
BRANCH  23  25
HETATM   25  C   UNL     1      17.126  46.523  46.133  1.00  0.00     0.022 C 
HETATM   26  C   UNL     1      17.625  45.239  46.781  1.00  0.00     0.007 C 
ENDBRANCH  23  25
ENDBRANCH  21  23
BRANCH  22  27
HETATM   27  C   UNL     1      17.909  49.249  49.644  1.00  0.00     0.038 A 
HETATM   28  C   UNL     1      18.598  48.158  50.432  1.00  0.00     0.011 A 
HETATM   29  C   UNL     1      18.805  49.590  50.807  1.00  0.00     0.011 A 
ENDBRANCH  22  27
ENDBRANCH   1  18
TORSDOF 8
ENDMDL
