MODEL 1
REMARK VINA RESULT:     -10.0      0.000      0.000
REMARK  2 active torsions:
REMARK  status: ('A' for Active; 'I' for Inactive)
REMARK    1  A    between atoms: C_5  and  N_6 
REMARK    2  A    between atoms: C_9  and  C_10 
REMARK       I    between atoms: C_10  and  N_11 
ROOT
HETATM    1  N   UNL     1      26.351  44.370  51.219  1.00  0.00    -0.281 N 
HETATM    2  C   UNL     1      25.818  45.340  50.343  1.00  0.00     0.268 A 
HETATM    3  O   UNL     1      25.421  45.146  49.188  1.00  0.00    -0.267 OA
HETATM    4  C   UNL     1      25.665  46.720  50.869  1.00  0.00     0.101 A 
HETATM    5  C   UNL     1      26.036  46.986  52.128  1.00  0.00     0.040 A 
HETATM    6  C   UNL     1      26.605  45.971  52.983  1.00  0.00     0.034 A 
HETATM    7  C   UNL     1      26.763  44.709  52.535  1.00  0.00     0.034 A 
HETATM    8  C   UNL     1      27.478  43.669  53.387  1.00  0.00     0.059 C 
HETATM    9  C   UNL     1      28.367  44.281  54.465  1.00  0.00     0.014 C 
HETATM   10  C   UNL     1      27.594  45.297  55.281  1.00  0.00     0.084 C 
HETATM   11  C   UNL     1      27.010  46.354  54.380  1.00  0.00     0.161 C 
HETATM   12  O   UNL     1      26.797  47.495  54.787  1.00  0.00    -0.292 OA
ENDROOT
BRANCH   4  13
HETATM   13  C   UNL     1      25.080  47.831  50.078  1.00  0.00     0.262 C 
HETATM   14  N   UNL     1      23.657  47.803  49.967  1.00  0.00    -0.309 N 
HETATM   15  H   UNL     1      23.205  46.983  50.370  1.00  0.00     0.170 HD
HETATM   16  C   UNL     1      22.838  48.686  49.427  1.00  0.00     0.108 A 
HETATM   17  N   UNL     1      21.518  48.477  49.425  1.00  0.00    -0.346 N 
HETATM   18  C   UNL     1      23.313  49.967  48.803  1.00  0.00     0.049 A 
HETATM   19  C   UNL     1      20.607  49.383  48.885  1.00  0.00     0.007 A 
HETATM   20  H   UNL     1      21.148  47.627  49.833  1.00  0.00     0.167 HD
HETATM   21  C   UNL     1      19.155  49.016  48.969  1.00  0.00     0.068 C 
HETATM   22  C   UNL     1      21.032  50.529  48.329  1.00  0.00     0.025 A 
HETATM   23  C   UNL     1      22.437  50.836  48.282  1.00  0.00     0.006 A 
HETATM   24  O   UNL     1      25.733  48.720  49.564  1.00  0.00    -0.267 OA
ENDBRANCH   4  13
BRANCH   1  25
HETATM   25  C   UNL     1      26.441  43.024  50.718  1.00  0.00     0.042 A 
HETATM   26  C   UNL     1      27.656  42.530  50.226  1.00  0.00     0.030 A 
HETATM   27  C   UNL     1      27.770  41.191  49.835  1.00  0.00     0.009 A 
HETATM   28  C   UNL     1      26.670  40.331  49.913  1.00  0.00    -0.062 A 
HETATM   29  C   UNL     1      26.788  38.881  49.540  1.00  0.00     0.048 C 
HETATM   30  C   UNL     1      25.443  40.836  50.354  1.00  0.00     0.009 A 
HETATM   31  C   UNL     1      25.330  42.172  50.750  1.00  0.00     0.030 A 
ENDBRANCH   1  25
TORSDOF 2
ENDMDL
MODEL 2
REMARK VINA RESULT:      -9.8      2.180      8.032
REMARK  2 active torsions:
REMARK  status: ('A' for Active; 'I' for Inactive)
REMARK    1  A    between atoms: C_5  and  N_6 
REMARK    2  A    between atoms: C_9  and  C_10 
REMARK       I    between atoms: C_10  and  N_11 
ROOT
HETATM    1  N   UNL     1      25.862  45.976  50.999  1.00  0.00    -0.281 N 
HETATM    2  C   UNL     1      25.733  44.744  50.321  1.00  0.00     0.268 A 
HETATM    3  O   UNL     1      25.320  44.583  49.167  1.00  0.00    -0.267 OA
HETATM    4  C   UNL     1      26.185  43.523  51.036  1.00  0.00     0.101 A 
HETATM    5  C   UNL     1      26.684  43.637  52.274  1.00  0.00     0.040 A 
HETATM    6  C   UNL     1      26.771  44.913  52.945  1.00  0.00     0.034 A 
HETATM    7  C   UNL     1      26.364  46.040  52.326  1.00  0.00     0.034 A 
HETATM    8  C   UNL     1      26.336  47.366  53.074  1.00  0.00     0.059 C 
HETATM    9  C   UNL     1      26.318  47.201  54.590  1.00  0.00     0.014 C 
HETATM   10  C   UNL     1      27.433  46.282  55.042  1.00  0.00     0.084 C 
HETATM   11  C   UNL     1      27.330  44.953  54.340  1.00  0.00     0.161 C 
HETATM   12  O   UNL     1      27.753  43.921  54.860  1.00  0.00    -0.292 OA
ENDROOT
BRANCH   4  13
HETATM   13  C   UNL     1      26.150  42.168  50.432  1.00  0.00     0.262 C 
HETATM   14  N   UNL     1      27.333  41.395  50.628  1.00  0.00    -0.309 N 
HETATM   15  H   UNL     1      28.102  41.884  51.087  1.00  0.00     0.170 HD
HETATM   16  C   UNL     1      27.579  40.136  50.312  1.00  0.00     0.108 A 
HETATM   17  N   UNL     1      28.765  39.586  50.585  1.00  0.00    -0.346 N 
HETATM   18  C   UNL     1      26.564  39.248  49.651  1.00  0.00     0.049 A 
HETATM   19  C   UNL     1      29.071  38.258  50.289  1.00  0.00     0.007 A 
HETATM   20  H   UNL     1      29.483  40.144  51.029  1.00  0.00     0.167 HD
HETATM   21  C   UNL     1      30.440  37.778  50.667  1.00  0.00     0.068 C 
HETATM   22  C   UNL     1      28.163  37.463  49.700  1.00  0.00     0.025 A 
HETATM   23  C   UNL     1      26.860  37.974  49.364  1.00  0.00     0.006 A 
HETATM   24  O   UNL     1      25.196  41.716  49.826  1.00  0.00    -0.267 OA
ENDBRANCH   4  13
BRANCH   1  25
HETATM   25  C   UNL     1      25.474  47.157  50.276  1.00  0.00     0.042 A 
HETATM   26  C   UNL     1      26.442  47.973  49.677  1.00  0.00     0.030 A 
HETATM   27  C   UNL     1      26.061  49.063  48.887  1.00  0.00     0.009 A 
HETATM   28  C   UNL     1      24.709  49.365  48.697  1.00  0.00    -0.062 A 
HETATM   29  C   UNL     1      24.283  50.504  47.816  1.00  0.00     0.048 C 
HETATM   30  C   UNL     1      23.742  48.583  49.336  1.00  0.00     0.009 A 
HETATM   31  C   UNL     1      24.122  47.491  50.121  1.00  0.00     0.030 A 
ENDBRANCH   1  25
TORSDOF 2
ENDMDL
MODEL 3
REMARK VINA RESULT:      -9.7      1.401      4.184
REMARK  2 active torsions:
REMARK  status: ('A' for Active; 'I' for Inactive)
REMARK    1  A    between atoms: C_5  and  N_6 
REMARK    2  A    between atoms: C_9  and  C_10 
REMARK       I    between atoms: C_10  and  N_11 
ROOT
HETATM    1  N   UNL     1      26.735  44.218  51.363  1.00  0.00    -0.281 N 
HETATM    2  C   UNL     1      26.335  45.557  51.154  1.00  0.00     0.268 A 
HETATM    3  O   UNL     1      26.704  46.541  51.804  1.00  0.00    -0.267 OA
HETATM    4  C   UNL     1      25.427  45.824  50.010  1.00  0.00     0.101 A 
HETATM    5  C   UNL     1      25.026  44.804  49.239  1.00  0.00     0.040 A 
HETATM    6  C   UNL     1      25.434  43.444  49.505  1.00  0.00     0.034 A 
HETATM    7  C   UNL     1      26.255  43.166  50.539  1.00  0.00     0.034 A 
HETATM    8  C   UNL     1      26.584  41.724  50.899  1.00  0.00     0.059 C 
HETATM    9  C   UNL     1      25.574  40.721  50.351  1.00  0.00     0.014 C 
HETATM   10  C   UNL     1      25.359  40.935  48.867  1.00  0.00     0.084 C 
HETATM   11  C   UNL     1      24.929  42.354  48.602  1.00  0.00     0.161 C 
HETATM   12  O   UNL     1      24.233  42.640  47.628  1.00  0.00    -0.292 OA
ENDROOT
BRANCH   4  13
HETATM   13  C   UNL     1      24.960  47.184  49.644  1.00  0.00     0.262 C 
HETATM   14  N   UNL     1      23.542  47.337  49.597  1.00  0.00    -0.309 N 
HETATM   15  H   UNL     1      23.006  46.481  49.737  1.00  0.00     0.170 HD
HETATM   16  C   UNL     1      22.818  48.426  49.407  1.00  0.00     0.108 A 
HETATM   17  N   UNL     1      21.484  48.362  49.400  1.00  0.00    -0.346 N 
HETATM   18  C   UNL     1      23.425  49.784  49.205  1.00  0.00     0.049 A 
HETATM   19  C   UNL     1      20.672  49.482  49.222  1.00  0.00     0.007 A 
HETATM   20  H   UNL     1      21.027  47.468  49.532  1.00  0.00     0.167 HD
HETATM   21  C   UNL     1      19.190  49.256  49.252  1.00  0.00     0.068 C 
HETATM   22  C   UNL     1      21.215  50.697  49.043  1.00  0.00     0.025 A 
HETATM   23  C   UNL     1      22.645  50.859  49.030  1.00  0.00     0.006 A 
HETATM   24  O   UNL     1      25.702  48.121  49.412  1.00  0.00    -0.267 OA
ENDBRANCH   4  13
BRANCH   1  25
HETATM   25  C   UNL     1      27.661  43.979  52.438  1.00  0.00     0.042 A 
HETATM   26  C   UNL     1      28.928  43.442  52.178  1.00  0.00     0.030 A 
HETATM   27  C   UNL     1      29.865  43.306  53.208  1.00  0.00     0.009 A 
HETATM   28  C   UNL     1      29.547  43.688  54.515  1.00  0.00    -0.062 A 
HETATM   29  C   UNL     1      30.557  43.591  55.621  1.00  0.00     0.048 C 
HETATM   30  C   UNL     1      28.265  44.176  54.786  1.00  0.00     0.009 A 
HETATM   31  C   UNL     1      27.330  44.318  53.756  1.00  0.00     0.030 A 
ENDBRANCH   1  25
TORSDOF 2
ENDMDL
MODEL 4
REMARK VINA RESULT:      -9.6      2.421      7.457
REMARK  2 active torsions:
REMARK  status: ('A' for Active; 'I' for Inactive)
REMARK    1  A    between atoms: C_5  and  N_6 
REMARK    2  A    between atoms: C_9  and  C_10 
REMARK       I    between atoms: C_10  and  N_11 
ROOT
HETATM    1  N   UNL     1      25.796  45.901  50.798  1.00  0.00    -0.281 N 
HETATM    2  C   UNL     1      25.700  44.708  50.049  1.00  0.00     0.268 A 
HETATM    3  O   UNL     1      25.280  44.603  48.891  1.00  0.00    -0.267 OA
HETATM    4  C   UNL     1      26.200  43.463  50.685  1.00  0.00     0.101 A 
HETATM    5  C   UNL     1      26.709  43.519  51.923  1.00  0.00     0.040 A 
HETATM    6  C   UNL     1      26.762  44.755  52.668  1.00  0.00     0.034 A 
HETATM    7  C   UNL     1      26.311  45.903  52.122  1.00  0.00     0.034 A 
HETATM    8  C   UNL     1      26.248  47.180  52.948  1.00  0.00     0.059 C 
HETATM    9  C   UNL     1      26.252  46.925  54.452  1.00  0.00     0.014 C 
HETATM   10  C   UNL     1      27.402  46.018  54.837  1.00  0.00     0.084 C 
HETATM   11  C   UNL     1      27.334  44.730  54.058  1.00  0.00     0.161 C 
HETATM   12  O   UNL     1      27.797  43.684  54.511  1.00  0.00    -0.292 OA
ENDROOT
BRANCH   4  13
HETATM   13  C   UNL     1      26.202  42.146  50.002  1.00  0.00     0.262 C 
HETATM   14  N   UNL     1      26.771  42.152  48.692  1.00  0.00    -0.309 N 
HETATM   15  H   UNL     1      27.037  43.070  48.337  1.00  0.00     0.170 HD
HETATM   16  C   UNL     1      27.012  41.143  47.875  1.00  0.00     0.108 A 
HETATM   17  N   UNL     1      27.560  41.357  46.675  1.00  0.00    -0.346 N 
HETATM   18  C   UNL     1      26.710  39.715  48.229  1.00  0.00     0.049 A 
HETATM   19  C   UNL     1      27.852  40.328  45.781  1.00  0.00     0.007 A 
HETATM   20  H   UNL     1      27.781  42.302  46.390  1.00  0.00     0.167 HD
HETATM   21  C   UNL     1      28.478  40.721  44.477  1.00  0.00     0.068 C 
HETATM   22  C   UNL     1      27.584  39.051  46.098  1.00  0.00     0.025 A 
HETATM   23  C   UNL     1      26.988  38.728  47.367  1.00  0.00     0.006 A 
HETATM   24  O   UNL     1      25.775  41.120  50.497  1.00  0.00    -0.267 OA
ENDBRANCH   4  13
BRANCH   1  25
HETATM   25  C   UNL     1      25.362  47.110  50.151  1.00  0.00     0.042 A 
HETATM   26  C   UNL     1      26.297  47.997  49.604  1.00  0.00     0.030 A 
HETATM   27  C   UNL     1      25.872  49.120  48.884  1.00  0.00     0.009 A 
HETATM   28  C   UNL     1      24.510  49.382  48.714  1.00  0.00    -0.062 A 
HETATM   29  C   UNL     1      24.038  50.557  47.906  1.00  0.00     0.048 C 
HETATM   30  C   UNL     1      23.575  48.525  49.303  1.00  0.00     0.009 A 
HETATM   31  C   UNL     1      23.998  47.401  50.017  1.00  0.00     0.030 A 
ENDBRANCH   1  25
TORSDOF 2
ENDMDL
MODEL 5
REMARK VINA RESULT:      -9.2      2.706      8.301
REMARK  2 active torsions:
REMARK  status: ('A' for Active; 'I' for Inactive)
REMARK    1  A    between atoms: C_5  and  N_6 
REMARK    2  A    between atoms: C_9  and  C_10 
REMARK       I    between atoms: C_10  and  N_11 
ROOT
HETATM    1  N   UNL     1      22.841  47.174  48.702  1.00  0.00    -0.281 N 
HETATM    2  C   UNL     1      23.828  47.165  49.712  1.00  0.00     0.268 A 
HETATM    3  O   UNL     1      24.086  48.090  50.491  1.00  0.00    -0.267 OA
HETATM    4  C   UNL     1      24.597  45.910  49.901  1.00  0.00     0.101 A 
HETATM    5  C   UNL     1      24.333  44.856  49.116  1.00  0.00     0.040 A 
HETATM    6  C   UNL     1      23.336  44.915  48.073  1.00  0.00     0.034 A 
HETATM    7  C   UNL     1      22.623  46.043  47.872  1.00  0.00     0.034 A 
HETATM    8  C   UNL     1      21.662  46.151  46.696  1.00  0.00     0.059 C 
HETATM    9  C   UNL     1      21.957  45.149  45.584  1.00  0.00     0.014 C 
HETATM   10  C   UNL     1      22.063  43.745  46.144  1.00  0.00     0.084 C 
HETATM   11  C   UNL     1      23.110  43.694  47.227  1.00  0.00     0.161 C 
HETATM   12  O   UNL     1      23.727  42.658  47.470  1.00  0.00    -0.292 OA
ENDROOT
BRANCH   4  13
HETATM   13  C   UNL     1      25.633  45.741  50.949  1.00  0.00     0.262 C 
HETATM   14  N   UNL     1      25.539  46.661  52.037  1.00  0.00    -0.309 N 
HETATM   15  H   UNL     1      24.826  47.383  51.935  1.00  0.00     0.170 HD
HETATM   16  C   UNL     1      26.232  46.711  53.159  1.00  0.00     0.108 A 
HETATM   17  N   UNL     1      25.990  47.661  54.066  1.00  0.00    -0.346 N 
HETATM   18  C   UNL     1      27.309  45.721  53.498  1.00  0.00     0.049 A 
HETATM   19  C   UNL     1      26.679  47.750  55.275  1.00  0.00     0.007 A 
HETATM   20  H   UNL     1      25.274  48.353  53.883  1.00  0.00     0.167 HD
HETATM   21  C   UNL     1      26.286  48.864  56.199  1.00  0.00     0.068 C 
HETATM   22  C   UNL     1      27.641  46.864  55.579  1.00  0.00     0.025 A 
HETATM   23  C   UNL     1      27.974  45.809  54.658  1.00  0.00     0.006 A 
HETATM   24  O   UNL     1      26.497  44.885  50.923  1.00  0.00    -0.267 OA
ENDBRANCH   4  13
BRANCH   1  25
HETATM   25  C   UNL     1      22.062  48.376  48.567  1.00  0.00     0.042 A 
HETATM   26  C   UNL     1      20.780  48.458  49.124  1.00  0.00     0.030 A 
HETATM   27  C   UNL     1      20.065  49.660  49.082  1.00  0.00     0.009 A 
HETATM   28  C   UNL     1      20.611  50.793  48.471  1.00  0.00    -0.062 A 
HETATM   29  C   UNL     1      19.875  52.102  48.459  1.00  0.00     0.048 C 
HETATM   30  C   UNL     1      21.869  50.698  47.869  1.00  0.00     0.009 A 
HETATM   31  C   UNL     1      22.587  49.500  47.914  1.00  0.00     0.030 A 
ENDBRANCH   1  25
TORSDOF 2
ENDMDL
MODEL 6
REMARK VINA RESULT:      -9.0      1.722      2.408
REMARK  2 active torsions:
REMARK  status: ('A' for Active; 'I' for Inactive)
REMARK    1  A    between atoms: C_5  and  N_6 
REMARK    2  A    between atoms: C_9  and  C_10 
REMARK       I    between atoms: C_10  and  N_11 
ROOT
HETATM    1  N   UNL     1      27.377  42.663  50.849  1.00  0.00    -0.281 N 
HETATM    2  C   UNL     1      26.619  43.667  50.207  1.00  0.00     0.268 A 
HETATM    3  O   UNL     1      25.983  43.544  49.155  1.00  0.00    -0.267 OA
HETATM    4  C   UNL     1      26.525  44.986  50.884  1.00  0.00     0.101 A 
HETATM    5  C   UNL     1      27.157  45.169  52.051  1.00  0.00     0.040 A 
HETATM    6  C   UNL     1      27.948  44.125  52.660  1.00  0.00     0.034 A 
HETATM    7  C   UNL     1      28.057  42.917  52.069  1.00  0.00     0.034 A 
HETATM    8  C   UNL     1      28.990  41.858  52.641  1.00  0.00     0.059 C 
HETATM    9  C   UNL     1      30.069  42.435  53.551  1.00  0.00     0.014 C 
HETATM   10  C   UNL     1      29.455  43.328  54.610  1.00  0.00     0.084 C 
HETATM   11  C   UNL     1      28.637  44.416  53.964  1.00  0.00     0.161 C 
HETATM   12  O   UNL     1      28.471  45.503  54.515  1.00  0.00    -0.292 OA
ENDROOT
BRANCH   4  13
HETATM   13  C   UNL     1      25.730  46.118  50.349  1.00  0.00     0.262 C 
HETATM   14  N   UNL     1      24.444  45.761  49.843  1.00  0.00    -0.309 N 
HETATM   15  H   UNL     1      24.245  44.761  49.828  1.00  0.00     0.170 HD
HETATM   16  C   UNL     1      23.469  46.533  49.401  1.00  0.00     0.108 A 
HETATM   17  N   UNL     1      22.324  46.000  48.966  1.00  0.00    -0.346 N 
HETATM   18  C   UNL     1      23.566  48.031  49.367  1.00  0.00     0.049 A 
HETATM   19  C   UNL     1      21.256  46.769  48.505  1.00  0.00     0.007 A 
HETATM   20  H   UNL     1      22.210  44.994  48.968  1.00  0.00     0.167 HD
HETATM   21  C   UNL     1      20.030  46.030  48.061  1.00  0.00     0.068 C 
HETATM   22  C   UNL     1      21.342  48.109  48.476  1.00  0.00     0.025 A 
HETATM   23  C   UNL     1      22.541  48.770  48.920  1.00  0.00     0.006 A 
HETATM   24  O   UNL     1      26.109  47.275  50.343  1.00  0.00    -0.267 OA
ENDBRANCH   4  13
BRANCH   1  25
HETATM   25  C   UNL     1      27.412  41.373  50.214  1.00  0.00     0.042 A 
HETATM   26  C   UNL     1      26.471  40.391  50.548  1.00  0.00     0.030 A 
HETATM   27  C   UNL     1      26.440  39.174  49.858  1.00  0.00     0.009 A 
HETATM   28  C   UNL     1      27.359  38.912  48.836  1.00  0.00    -0.062 A 
HETATM   29  C   UNL     1      27.310  37.630  48.056  1.00  0.00     0.048 C 
HETATM   30  C   UNL     1      28.332  39.870  48.538  1.00  0.00     0.009 A 
HETATM   31  C   UNL     1      28.360  41.088  49.223  1.00  0.00     0.030 A 
ENDBRANCH   1  25
TORSDOF 2
ENDMDL
MODEL 7
REMARK VINA RESULT:      -9.0      1.820      2.361
REMARK  2 active torsions:
REMARK  status: ('A' for Active; 'I' for Inactive)
REMARK    1  A    between atoms: C_5  and  N_6 
REMARK    2  A    between atoms: C_9  and  C_10 
REMARK       I    between atoms: C_10  and  N_11 
ROOT
HETATM    1  N   UNL     1      24.680  44.528  49.901  1.00  0.00    -0.281 N 
HETATM    2  C   UNL     1      24.078  45.661  49.310  1.00  0.00     0.268 A 
HETATM    3  O   UNL     1      23.380  45.670  48.290  1.00  0.00    -0.267 OA
HETATM    4  C   UNL     1      24.250  46.962  50.004  1.00  0.00     0.101 A 
HETATM    5  C   UNL     1      24.959  47.010  51.140  1.00  0.00     0.040 A 
HETATM    6  C   UNL     1      25.585  45.833  51.696  1.00  0.00     0.034 A 
HETATM    7  C   UNL     1      25.453  44.637  51.087  1.00  0.00     0.034 A 
HETATM    8  C   UNL     1      26.213  43.421  51.599  1.00  0.00     0.059 C 
HETATM    9  C   UNL     1      27.420  43.784  52.459  1.00  0.00     0.014 C 
HETATM   10  C   UNL     1      27.023  44.749  53.557  1.00  0.00     0.084 C 
HETATM   11  C   UNL     1      26.377  45.974  52.966  1.00  0.00     0.161 C 
HETATM   12  O   UNL     1      26.430  47.063  53.536  1.00  0.00    -0.292 OA
ENDROOT
BRANCH   4  13
HETATM   13  C   UNL     1      23.639  48.226  49.524  1.00  0.00     0.262 C 
HETATM   14  N   UNL     1      22.213  48.216  49.462  1.00  0.00    -0.309 N 
HETATM   15  H   UNL     1      21.774  47.320  49.674  1.00  0.00     0.170 HD
HETATM   16  C   UNL     1      21.376  49.197  49.179  1.00  0.00     0.108 A 
HETATM   17  N   UNL     1      20.056  48.985  49.176  1.00  0.00    -0.346 N 
HETATM   18  C   UNL     1      21.830  50.593  48.863  1.00  0.00     0.049 A 
HETATM   19  C   UNL     1      19.128  49.989  48.902  1.00  0.00     0.007 A 
HETATM   20  H   UNL     1      19.700  48.061  49.382  1.00  0.00     0.167 HD
HETATM   21  C   UNL     1      17.680  49.603  48.949  1.00  0.00     0.068 C 
HETATM   22  C   UNL     1      19.535  51.237  48.621  1.00  0.00     0.025 A 
HETATM   23  C   UNL     1      20.938  51.555  48.596  1.00  0.00     0.006 A 
HETATM   24  O   UNL     1      24.275  49.216  49.214  1.00  0.00    -0.267 OA
ENDBRANCH   4  13
BRANCH   1  25
HETATM   25  C   UNL     1      24.459  43.264  49.251  1.00  0.00     0.042 A 
HETATM   26  C   UNL     1      23.213  42.632  49.334  1.00  0.00     0.030 A 
HETATM   27  C   UNL     1      22.966  41.455  48.618  1.00  0.00     0.009 A 
HETATM   28  C   UNL     1      23.964  40.883  47.822  1.00  0.00    -0.062 A 
HETATM   29  C   UNL     1      23.700  39.647  47.012  1.00  0.00     0.048 C 
HETATM   30  C   UNL     1      25.225  41.485  47.780  1.00  0.00     0.009 A 
HETATM   31  C   UNL     1      25.471  42.663  48.491  1.00  0.00     0.030 A 
ENDBRANCH   1  25
TORSDOF 2
ENDMDL
MODEL 8
REMARK VINA RESULT:      -8.9      7.780     12.902
REMARK  2 active torsions:
REMARK  status: ('A' for Active; 'I' for Inactive)
REMARK    1  A    between atoms: C_5  and  N_6 
REMARK    2  A    between atoms: C_9  and  C_10 
REMARK       I    between atoms: C_10  and  N_11 
ROOT
HETATM    1  N   UNL     1      17.087  51.943  48.228  1.00  0.00    -0.281 N 
HETATM    2  C   UNL     1      16.453  52.416  49.398  1.00  0.00     0.268 A 
HETATM    3  O   UNL     1      16.895  52.346  50.550  1.00  0.00    -0.267 OA
HETATM    4  C   UNL     1      15.154  53.116  49.232  1.00  0.00     0.101 A 
HETATM    5  C   UNL     1      14.643  53.264  48.002  1.00  0.00     0.040 A 
HETATM    6  C   UNL     1      15.308  52.738  46.833  1.00  0.00     0.034 A 
HETATM    7  C   UNL     1      16.487  52.093  46.950  1.00  0.00     0.034 A 
HETATM    8  C   UNL     1      17.128  51.428  45.739  1.00  0.00     0.059 C 
HETATM    9  C   UNL     1      16.138  51.148  44.613  1.00  0.00     0.014 C 
HETATM   10  C   UNL     1      15.355  52.397  44.266  1.00  0.00     0.084 C 
HETATM   11  C   UNL     1      14.660  52.934  45.491  1.00  0.00     0.161 C 
HETATM   12  O   UNL     1      13.618  53.581  45.403  1.00  0.00    -0.292 OA
ENDROOT
BRANCH   4  13
HETATM   13  C   UNL     1      14.397  53.703  50.364  1.00  0.00     0.262 C 
HETATM   14  N   UNL     1      15.158  54.564  51.211  1.00  0.00    -0.309 N 
HETATM   15  H   UNL     1      16.154  54.617  50.996  1.00  0.00     0.170 HD
HETATM   16  C   UNL     1      14.764  55.310  52.227  1.00  0.00     0.108 A 
HETATM   17  N   UNL     1      15.641  56.059  52.901  1.00  0.00    -0.346 N 
HETATM   18  C   UNL     1      13.334  55.382  52.680  1.00  0.00     0.049 A 
HETATM   19  C   UNL     1      15.276  56.878  53.969  1.00  0.00     0.007 A 
HETATM   20  H   UNL     1      16.617  56.044  52.635  1.00  0.00     0.167 HD
HETATM   21  C   UNL     1      16.369  57.671  54.620  1.00  0.00     0.068 C 
HETATM   22  C   UNL     1      13.997  56.943  54.373  1.00  0.00     0.025 A 
HETATM   23  C   UNL     1      12.984  56.166  53.709  1.00  0.00     0.006 A 
HETATM   24  O   UNL     1      13.216  53.500  50.573  1.00  0.00    -0.267 OA
ENDBRANCH   4  13
BRANCH   1  25
HETATM   25  C   UNL     1      18.372  51.318  48.395  1.00  0.00     0.042 A 
HETATM   26  C   UNL     1      19.544  52.082  48.351  1.00  0.00     0.030 A 
HETATM   27  C   UNL     1      20.785  51.492  48.616  1.00  0.00     0.009 A 
HETATM   28  C   UNL     1      20.876  50.128  48.913  1.00  0.00    -0.062 A 
HETATM   29  C   UNL     1      22.195  49.490  49.244  1.00  0.00     0.048 C 
HETATM   30  C   UNL     1      19.713  49.354  48.906  1.00  0.00     0.009 A 
HETATM   31  C   UNL     1      18.472  49.943  48.647  1.00  0.00     0.030 A 
ENDBRANCH   1  25
TORSDOF 2
ENDMDL
MODEL 9
REMARK VINA RESULT:      -8.8     12.489     14.611
REMARK  2 active torsions:
REMARK  status: ('A' for Active; 'I' for Inactive)
REMARK    1  A    between atoms: C_5  and  N_6 
REMARK    2  A    between atoms: C_9  and  C_10 
REMARK       I    between atoms: C_10  and  N_11 
ROOT
HETATM    1  N   UNL     1      31.045  49.772  40.477  1.00  0.00    -0.281 N 
HETATM    2  C   UNL     1      32.368  49.580  40.934  1.00  0.00     0.268 A 
HETATM    3  O   UNL     1      32.953  48.497  41.046  1.00  0.00    -0.267 OA
HETATM    4  C   UNL     1      33.157  50.794  41.261  1.00  0.00     0.101 A 
HETATM    5  C   UNL     1      32.593  52.001  41.118  1.00  0.00     0.040 A 
HETATM    6  C   UNL     1      31.226  52.153  40.676  1.00  0.00     0.034 A 
HETATM    7  C   UNL     1      30.480  51.070  40.375  1.00  0.00     0.034 A 
HETATM    8  C   UNL     1      29.004  51.220  40.032  1.00  0.00     0.059 C 
HETATM    9  C   UNL     1      28.400  52.529  40.528  1.00  0.00     0.014 C 
HETATM   10  C   UNL     1      29.241  53.708  40.084  1.00  0.00     0.084 C 
HETATM   11  C   UNL     1      30.662  53.542  40.555  1.00  0.00     0.161 C 
HETATM   12  O   UNL     1      31.381  54.515  40.773  1.00  0.00    -0.292 OA
ENDROOT
BRANCH   4  13
HETATM   13  C   UNL     1      34.570  50.748  41.710  1.00  0.00     0.262 C 
HETATM   14  N   UNL     1      34.963  51.823  42.563  1.00  0.00    -0.309 N 
HETATM   15  H   UNL     1      34.259  52.547  42.703  1.00  0.00     0.170 HD
HETATM   16  C   UNL     1      36.101  52.016  43.205  1.00  0.00     0.108 A 
HETATM   17  N   UNL     1      36.276  53.100  43.967  1.00  0.00    -0.346 N 
HETATM   18  C   UNL     1      37.249  51.050  43.140  1.00  0.00     0.049 A 
HETATM   19  C   UNL     1      37.449  53.344  44.680  1.00  0.00     0.007 A 
HETATM   20  H   UNL     1      35.532  53.781  44.042  1.00  0.00     0.167 HD
HETATM   21  C   UNL     1      37.494  54.596  45.502  1.00  0.00     0.068 C 
HETATM   22  C   UNL     1      38.475  52.479  44.623  1.00  0.00     0.025 A 
HETATM   23  C   UNL     1      38.377  51.287  43.823  1.00  0.00     0.006 A 
HETATM   24  O   UNL     1      35.354  49.867  41.407  1.00  0.00    -0.267 OA
ENDBRANCH   4  13
BRANCH   1  25
HETATM   25  C   UNL     1      30.310  48.592  40.107  1.00  0.00     0.042 A 
HETATM   26  C   UNL     1      29.427  47.993  41.014  1.00  0.00     0.030 A 
HETATM   27  C   UNL     1      28.635  46.908  40.622  1.00  0.00     0.009 A 
HETATM   28  C   UNL     1      28.724  46.395  39.324  1.00  0.00    -0.062 A 
HETATM   29  C   UNL     1      27.849  45.261  38.874  1.00  0.00     0.048 C 
HETATM   30  C   UNL     1      29.643  46.959  38.433  1.00  0.00     0.009 A 
HETATM   31  C   UNL     1      30.430  48.046  38.823  1.00  0.00     0.030 A 
ENDBRANCH   1  25
TORSDOF 2
ENDMDL
MODEL 10
REMARK VINA RESULT:      -8.8      3.889      9.227
REMARK  2 active torsions:
REMARK  status: ('A' for Active; 'I' for Inactive)
REMARK    1  A    between atoms: C_5  and  N_6 
REMARK    2  A    between atoms: C_9  and  C_10 
REMARK       I    between atoms: C_10  and  N_11 
ROOT
HETATM    1  N   UNL     1      19.187  48.344  46.879  1.00  0.00    -0.281 N 
HETATM    2  C   UNL     1      20.585  48.326  47.077  1.00  0.00     0.268 A 
HETATM    3  O   UNL     1      21.353  47.401  46.789  1.00  0.00    -0.267 OA
HETATM    4  C   UNL     1      21.210  49.553  47.634  1.00  0.00     0.101 A 
HETATM    5  C   UNL     1      20.436  50.607  47.925  1.00  0.00     0.040 A 
HETATM    6  C   UNL     1      19.005  50.575  47.736  1.00  0.00     0.034 A 
HETATM    7  C   UNL     1      18.405  49.474  47.238  1.00  0.00     0.034 A 
HETATM    8  C   UNL     1      16.887  49.390  47.156  1.00  0.00     0.059 C 
HETATM    9  C   UNL     1      16.179  50.368  48.089  1.00  0.00     0.014 C 
HETATM   10  C   UNL     1      16.713  51.772  47.897  1.00  0.00     0.084 C 
HETATM   11  C   UNL     1      18.206  51.795  48.102  1.00  0.00     0.161 C 
HETATM   12  O   UNL     1      18.782  52.808  48.495  1.00  0.00    -0.292 OA
ENDROOT
BRANCH   4  13
HETATM   13  C   UNL     1      22.670  49.692  47.854  1.00  0.00     0.262 C 
HETATM   14  N   UNL     1      23.213  48.816  48.841  1.00  0.00    -0.309 N 
HETATM   15  H   UNL     1      22.530  48.250  49.344  1.00  0.00     0.170 HD
HETATM   16  C   UNL     1      24.471  48.622  49.194  1.00  0.00     0.108 A 
HETATM   17  N   UNL     1      24.780  47.743  50.152  1.00  0.00    -0.346 N 
HETATM   18  C   UNL     1      25.620  49.345  48.553  1.00  0.00     0.049 A 
HETATM   19  C   UNL     1      26.091  47.486  50.552  1.00  0.00     0.007 A 
HETATM   20  H   UNL     1      24.040  47.231  50.615  1.00  0.00     0.167 HD
HETATM   21  C   UNL     1      26.282  46.462  51.630  1.00  0.00     0.068 C 
HETATM   22  C   UNL     1      27.118  48.132  49.977  1.00  0.00     0.025 A 
HETATM   23  C   UNL     1      26.879  49.101  48.940  1.00  0.00     0.006 A 
HETATM   24  O   UNL     1      23.380  50.472  47.246  1.00  0.00    -0.267 OA
ENDBRANCH   4  13
BRANCH   1  25
HETATM   25  C   UNL     1      18.601  47.172  46.286  1.00  0.00     0.042 A 
HETATM   26  C   UNL     1      18.168  46.111  47.090  1.00  0.00     0.030 A 
HETATM   27  C   UNL     1      17.505  45.016  46.523  1.00  0.00     0.009 A 
HETATM   28  C   UNL     1      17.279  44.958  45.145  1.00  0.00    -0.062 A 
HETATM   29  C   UNL     1      16.529  43.813  44.527  1.00  0.00     0.048 C 
HETATM   30  C   UNL     1      17.757  45.992  44.334  1.00  0.00     0.009 A 
HETATM   31  C   UNL     1      18.414  47.088  44.900  1.00  0.00     0.030 A 
ENDBRANCH   1  25
TORSDOF 2
ENDMDL
