MODEL 1
REMARK VINA RESULT:      -8.8      0.000      0.000
REMARK  8 active torsions:
REMARK  status: ('A' for Active; 'I' for Inactive)
REMARK    1  A    between atoms: C_6  and  C_7 
REMARK       I    between atoms: C_7  and  N_8 
REMARK    2  A    between atoms: N_8  and  C_9 
REMARK    3  A    between atoms: C_9  and  C_10 
REMARK    4  A    between atoms: N_15  and  C_17 
REMARK    5  A    between atoms: C_17  and  C_18 
REMARK    6  A    between atoms: C_21  and  C_22 
REMARK    7  A    between atoms: C_23  and  C_24 
REMARK    8  A    between atoms: C_24  and  O_25 
ROOT
HETATM    1  C   UNL     1      27.458  41.055  51.964  1.00  0.00     0.140 C 
HETATM    2  O   UNL     1      26.708  42.274  51.751  1.00  0.00    -0.373 OA
HETATM    3  C   UNL     1      26.485  42.416  50.331  1.00  0.00     0.064 C 
HETATM    4  C   UNL     1      26.896  43.841  49.948  1.00  0.00     0.066 C 
HETATM    5  C   UNL     1      26.003  44.873  50.622  1.00  0.00     0.238 C 
HETATM    6  N   UNL     1      24.550  44.626  50.292  1.00  0.00    -0.067 N 
HETATM    7  H   UNL     1      24.028  45.274  50.894  1.00  0.00     0.280 HD
HETATM    8  C   UNL     1      24.125  43.241  50.717  1.00  0.00     0.238 C 
HETATM    9  C   UNL     1      24.996  42.181  50.055  1.00  0.00     0.066 C 
HETATM   10  C   UNL     1      27.363  41.362  49.643  1.00  0.00     0.041 C 
HETATM   11  C   UNL     1      28.330  40.947  50.728  1.00  0.00     0.036 C 
ENDROOT
BRANCH   1  12
HETATM   12  C   UNL     1      28.267  41.112  53.263  1.00  0.00     0.155 C 
BRANCH  12  13
HETATM   13  N   UNL     1      28.161  42.376  53.973  1.00  0.00    -0.353 N 
HETATM   14  C   UNL     1      29.014  43.431  53.728  1.00  0.00     0.270 C 
HETATM   15  O   UNL     1      29.990  43.305  52.994  1.00  0.00    -0.266 OA
HETATM   16  H   UNL     1      27.327  42.542  54.513  1.00  0.00     0.162 HD
BRANCH  14  17
HETATM   17  C   UNL     1      28.677  44.665  54.402  1.00  0.00     0.122 A 
HETATM   18  N   UNL     1      29.384  45.187  55.463  1.00  0.00    -0.269 N 
HETATM   19  N   UNL     1      28.873  46.337  55.944  1.00  0.00    -0.177 NA
HETATM   20  C   UNL     1      30.566  44.640  56.091  1.00  0.00     0.180 C 
HETATM   21  C   UNL     1      27.838  46.601  55.146  1.00  0.00     0.053 A 
HETATM   22  C   UNL     1      27.035  47.834  55.330  1.00  0.00     0.072 C 
HETATM   23  C   UNL     1      27.664  45.586  54.180  1.00  0.00     0.065 A 
ENDBRANCH  14  17
ENDBRANCH  12  13
ENDBRANCH   1  12
BRANCH   6  24
HETATM   24  C   UNL     1      24.120  44.981  48.883  1.00  0.00     0.273 C 
BRANCH  24  25
HETATM   25  C   UNL     1      23.099  46.084  48.825  1.00  0.00    -0.033 A 
HETATM   26  C   UNL     1      23.447  47.391  49.201  1.00  0.00     0.010 A 
HETATM   27  C   UNL     1      22.490  48.409  49.200  1.00  0.00     0.021 A 
HETATM   28  C   UNL     1      21.177  48.134  48.821  1.00  0.00     0.017 A 
HETATM   29  C   UNL     1      20.823  46.842  48.430  1.00  0.00     0.021 A 
HETATM   30  C   UNL     1      21.777  45.820  48.430  1.00  0.00     0.010 A 
BRANCH  28  31
HETATM   31  C   UNL     1      20.196  49.171  48.843  1.00  0.00    -0.064 C 
HETATM   32  C   UNL     1      19.362  50.036  48.862  1.00  0.00    -0.064 C 
BRANCH  32  33
HETATM   33  C   UNL     1      18.333  51.091  48.878  1.00  0.00     0.114 C 
HETATM   34  C   UNL     1      18.935  52.434  48.470  1.00  0.00     0.060 C 
HETATM   35  C   UNL     1      17.171  50.720  47.961  1.00  0.00     0.060 C 
BRANCH  33  36
HETATM   36  O   UNL     1      17.820  51.206  50.203  1.00  0.00    -0.378 OA
HETATM   37  H   UNL     1      17.285  50.414  50.376  1.00  0.00     0.211 HD
ENDBRANCH  33  36
ENDBRANCH  32  33
ENDBRANCH  28  31
ENDBRANCH  24  25
ENDBRANCH   6  24
TORSDOF 8
ENDMDL
MODEL 2
REMARK VINA RESULT:      -8.6      5.287     13.049
REMARK  8 active torsions:
REMARK  status: ('A' for Active; 'I' for Inactive)
REMARK    1  A    between atoms: C_6  and  C_7 
REMARK       I    between atoms: C_7  and  N_8 
REMARK    2  A    between atoms: N_8  and  C_9 
REMARK    3  A    between atoms: C_9  and  C_10 
REMARK    4  A    between atoms: N_15  and  C_17 
REMARK    5  A    between atoms: C_17  and  C_18 
REMARK    6  A    between atoms: C_21  and  C_22 
REMARK    7  A    between atoms: C_23  and  C_24 
REMARK    8  A    between atoms: C_24  and  O_25 
ROOT
HETATM    1  C   UNL     1      18.045  51.777  48.322  1.00  0.00     0.140 C 
HETATM    2  O   UNL     1      18.881  50.759  48.921  1.00  0.00    -0.373 OA
HETATM    3  C   UNL     1      19.747  50.234  47.890  1.00  0.00     0.064 C 
HETATM    4  C   UNL     1      19.650  48.707  47.951  1.00  0.00     0.066 C 
HETATM    5  C   UNL     1      20.188  48.172  49.271  1.00  0.00     0.238 C 
HETATM    6  N   UNL     1      21.610  48.630  49.497  1.00  0.00    -0.067 N 
HETATM    7  H   UNL     1      21.832  48.341  50.458  1.00  0.00     0.280 HD
HETATM    8  C   UNL     1      21.702  50.137  49.491  1.00  0.00     0.238 C 
HETATM    9  C   UNL     1      21.175  50.706  48.180  1.00  0.00     0.066 C 
HETATM   10  C   UNL     1      19.226  50.788  46.557  1.00  0.00     0.041 C 
HETATM   11  C   UNL     1      17.842  51.289  46.901  1.00  0.00     0.036 C 
ENDROOT
BRANCH   1  12
HETATM   12  C   UNL     1      16.729  51.947  49.088  1.00  0.00     0.155 C 
BRANCH  12  13
HETATM   13  N   UNL     1      16.318  53.329  49.263  1.00  0.00    -0.353 N 
HETATM   14  C   UNL     1      15.168  53.675  49.940  1.00  0.00     0.270 C 
HETATM   15  O   UNL     1      14.365  52.822  50.310  1.00  0.00    -0.266 OA
HETATM   16  H   UNL     1      16.990  54.049  49.051  1.00  0.00     0.162 HD
BRANCH  14  17
HETATM   17  C   UNL     1      14.985  55.092  50.162  1.00  0.00     0.122 A 
HETATM   18  N   UNL     1      14.384  55.946  49.262  1.00  0.00    -0.269 N 
HETATM   19  N   UNL     1      14.343  57.228  49.673  1.00  0.00    -0.177 NA
HETATM   20  C   UNL     1      13.826  55.617  47.969  1.00  0.00     0.180 C 
HETATM   21  C   UNL     1      14.881  57.203  50.893  1.00  0.00     0.053 A 
HETATM   22  C   UNL     1      14.970  58.440  51.706  1.00  0.00     0.072 C 
HETATM   23  C   UNL     1      15.309  55.903  51.239  1.00  0.00     0.065 A 
ENDBRANCH  14  17
ENDBRANCH  12  13
ENDBRANCH   1  12
BRANCH   6  24
HETATM   24  C   UNL     1      22.667  47.959  48.643  1.00  0.00     0.273 C 
BRANCH  24  25
HETATM   25  C   UNL     1      23.667  47.163  49.436  1.00  0.00    -0.033 A 
HETATM   26  C   UNL     1      23.627  45.760  49.418  1.00  0.00     0.010 A 
HETATM   27  C   UNL     1      24.519  45.015  50.193  1.00  0.00     0.021 A 
HETATM   28  C   UNL     1      25.461  45.662  50.992  1.00  0.00     0.017 A 
HETATM   29  C   UNL     1      25.520  47.056  51.005  1.00  0.00     0.021 A 
HETATM   30  C   UNL     1      24.629  47.805  50.232  1.00  0.00     0.010 A 
BRANCH  28  31
HETATM   31  C   UNL     1      26.356  44.898  51.801  1.00  0.00    -0.064 C 
HETATM   32  C   UNL     1      27.100  44.248  52.485  1.00  0.00    -0.064 C 
BRANCH  32  33
HETATM   33  C   UNL     1      28.005  43.451  53.331  1.00  0.00     0.114 C 
HETATM   34  C   UNL     1      29.141  42.862  52.497  1.00  0.00     0.060 C 
HETATM   35  C   UNL     1      28.558  44.300  54.472  1.00  0.00     0.060 C 
BRANCH  33  36
HETATM   36  O   UNL     1      27.263  42.379  53.909  1.00  0.00    -0.378 OA
HETATM   37  H   UNL     1      27.390  42.425  54.871  1.00  0.00     0.211 HD
ENDBRANCH  33  36
ENDBRANCH  32  33
ENDBRANCH  28  31
ENDBRANCH  24  25
ENDBRANCH   6  24
TORSDOF 8
ENDMDL
MODEL 3
REMARK VINA RESULT:      -8.5      3.161      6.029
REMARK  8 active torsions:
REMARK  status: ('A' for Active; 'I' for Inactive)
REMARK    1  A    between atoms: C_6  and  C_7 
REMARK       I    between atoms: C_7  and  N_8 
REMARK    2  A    between atoms: N_8  and  C_9 
REMARK    3  A    between atoms: C_9  and  C_10 
REMARK    4  A    between atoms: N_15  and  C_17 
REMARK    5  A    between atoms: C_17  and  C_18 
REMARK    6  A    between atoms: C_21  and  C_22 
REMARK    7  A    between atoms: C_23  and  C_24 
REMARK    8  A    between atoms: C_24  and  O_25 
ROOT
HETATM    1  C   UNL     1      22.325  43.979  48.306  1.00  0.00     0.140 C 
HETATM    2  O   UNL     1      21.925  45.279  48.800  1.00  0.00    -0.373 OA
HETATM    3  C   UNL     1      21.540  46.086  47.665  1.00  0.00     0.064 C 
HETATM    4  C   UNL     1      22.272  47.425  47.791  1.00  0.00     0.066 C 
HETATM    5  C   UNL     1      21.818  48.188  49.028  1.00  0.00     0.238 C 
HETATM    6  N   UNL     1      20.321  48.393  49.014  1.00  0.00    -0.067 N 
HETATM    7  H   UNL     1      20.100  48.785  49.937  1.00  0.00     0.280 HD
HETATM    8  C   UNL     1      19.593  47.072  48.944  1.00  0.00     0.238 C 
HETATM    9  C   UNL     1      20.021  46.283  47.713  1.00  0.00     0.066 C 
HETATM   10  C   UNL     1      21.971  45.312  46.412  1.00  0.00     0.041 C 
HETATM   11  C   UNL     1      22.934  44.280  46.950  1.00  0.00     0.036 C 
ENDROOT
BRANCH   1  12
HETATM   12  C   UNL     1      23.304  43.291  49.262  1.00  0.00     0.155 C 
BRANCH  12  13
HETATM   13  N   UNL     1      23.832  44.162  50.300  1.00  0.00    -0.353 N 
HETATM   14  C   UNL     1      25.163  44.515  50.357  1.00  0.00     0.270 C 
HETATM   15  O   UNL     1      25.992  43.999  49.612  1.00  0.00    -0.266 OA
HETATM   16  H   UNL     1      23.171  44.668  50.868  1.00  0.00     0.162 HD
BRANCH  14  17
HETATM   17  C   UNL     1      25.494  45.510  51.352  1.00  0.00     0.122 A 
HETATM   18  N   UNL     1      25.634  46.855  51.087  1.00  0.00    -0.269 N 
HETATM   19  N   UNL     1      25.966  47.591  52.166  1.00  0.00    -0.177 NA
HETATM   20  C   UNL     1      25.476  47.526  49.816  1.00  0.00     0.180 C 
HETATM   21  C   UNL     1      25.992  46.714  53.171  1.00  0.00     0.053 A 
HETATM   22  C   UNL     1      26.277  47.159  54.556  1.00  0.00     0.072 C 
HETATM   23  C   UNL     1      25.719  45.405  52.717  1.00  0.00     0.065 A 
ENDBRANCH  14  17
ENDBRANCH  12  13
ENDBRANCH   1  12
BRANCH   6  24
HETATM   24  C   UNL     1      19.801  49.420  48.028  1.00  0.00     0.273 C 
BRANCH  24  25
HETATM   25  C   UNL     1      18.757  50.335  48.606  1.00  0.00    -0.033 A 
HETATM   26  C   UNL     1      17.395  50.091  48.372  1.00  0.00     0.010 A 
HETATM   27  C   UNL     1      16.422  50.966  48.861  1.00  0.00     0.021 A 
HETATM   28  C   UNL     1      16.799  52.092  49.592  1.00  0.00     0.017 A 
HETATM   29  C   UNL     1      18.149  52.336  49.845  1.00  0.00     0.021 A 
HETATM   30  C   UNL     1      19.125  51.463  49.356  1.00  0.00     0.010 A 
BRANCH  28  31
HETATM   31  C   UNL     1      15.803  52.997  50.072  1.00  0.00    -0.064 C 
HETATM   32  C   UNL     1      14.958  53.753  50.468  1.00  0.00    -0.064 C 
BRANCH  32  33
HETATM   33  C   UNL     1      13.919  54.683  50.944  1.00  0.00     0.114 C 
HETATM   34  C   UNL     1      14.358  56.131  50.736  1.00  0.00     0.060 C 
HETATM   35  C   UNL     1      12.594  54.414  50.235  1.00  0.00     0.060 C 
BRANCH  33  36
HETATM   36  O   UNL     1      13.716  54.465  52.338  1.00  0.00    -0.378 OA
HETATM   37  H   UNL     1      14.582  54.263  52.728  1.00  0.00     0.211 HD
ENDBRANCH  33  36
ENDBRANCH  32  33
ENDBRANCH  28  31
ENDBRANCH  24  25
ENDBRANCH   6  24
TORSDOF 8
ENDMDL
MODEL 4
REMARK VINA RESULT:      -8.3      3.315      6.876
REMARK  8 active torsions:
REMARK  status: ('A' for Active; 'I' for Inactive)
REMARK    1  A    between atoms: C_6  and  C_7 
REMARK       I    between atoms: C_7  and  N_8 
REMARK    2  A    between atoms: N_8  and  C_9 
REMARK    3  A    between atoms: C_9  and  C_10 
REMARK    4  A    between atoms: N_15  and  C_17 
REMARK    5  A    between atoms: C_17  and  C_18 
REMARK    6  A    between atoms: C_21  and  C_22 
REMARK    7  A    between atoms: C_23  and  C_24 
REMARK    8  A    between atoms: C_24  and  O_25 
ROOT
HETATM    1  C   UNL     1      24.214  47.641  49.419  1.00  0.00     0.140 C 
HETATM    2  O   UNL     1      22.783  47.849  49.484  1.00  0.00    -0.373 OA
HETATM    3  C   UNL     1      22.443  48.891  48.543  1.00  0.00     0.064 C 
HETATM    4  C   UNL     1      21.569  49.905  49.286  1.00  0.00     0.066 C 
HETATM    5  C   UNL     1      20.251  49.282  49.724  1.00  0.00     0.238 C 
HETATM    6  N   UNL     1      19.512  48.700  48.541  1.00  0.00    -0.067 N 
HETATM    7  H   UNL     1      18.720  48.190  48.950  1.00  0.00     0.280 HD
HETATM    8  C   UNL     1      20.349  47.660  47.837  1.00  0.00     0.238 C 
HETATM    9  C   UNL     1      21.676  48.252  47.380  1.00  0.00     0.066 C 
HETATM   10  C   UNL     1      23.768  49.509  48.077  1.00  0.00     0.041 C 
HETATM   11  C   UNL     1      24.765  49.017  49.101  1.00  0.00     0.036 C 
ENDROOT
BRANCH   1  12
HETATM   12  C   UNL     1      24.759  47.067  50.731  1.00  0.00     0.155 C 
BRANCH  12  13
HETATM   13  N   UNL     1      25.593  45.889  50.562  1.00  0.00    -0.353 N 
HETATM   14  C   UNL     1      25.307  44.690  51.180  1.00  0.00     0.270 C 
HETATM   15  O   UNL     1      24.409  44.601  52.012  1.00  0.00    -0.266 OA
HETATM   16  H   UNL     1      26.280  45.902  49.825  1.00  0.00     0.162 HD
BRANCH  14  17
HETATM   17  C   UNL     1      26.142  43.578  50.784  1.00  0.00     0.122 A 
HETATM   18  N   UNL     1      26.991  42.905  51.635  1.00  0.00    -0.269 N 
HETATM   19  N   UNL     1      27.686  41.916  51.041  1.00  0.00    -0.177 NA
HETATM   20  C   UNL     1      27.209  43.152  53.044  1.00  0.00     0.180 C 
HETATM   21  C   UNL     1      27.242  41.907  49.783  1.00  0.00     0.053 A 
HETATM   22  C   UNL     1      27.743  40.906  48.810  1.00  0.00     0.072 C 
HETATM   23  C   UNL     1      26.292  42.928  49.568  1.00  0.00     0.065 A 
ENDBRANCH  14  17
ENDBRANCH  12  13
ENDBRANCH   1  12
BRANCH   6  24
HETATM   24  C   UNL     1      18.877  49.701  47.598  1.00  0.00     0.273 C 
BRANCH  24  25
HETATM   25  C   UNL     1      18.000  50.709  48.290  1.00  0.00    -0.033 A 
HETATM   26  C   UNL     1      18.526  51.948  48.689  1.00  0.00     0.010 A 
HETATM   27  C   UNL     1      17.732  52.867  49.378  1.00  0.00     0.021 A 
HETATM   28  C   UNL     1      16.404  52.561  49.675  1.00  0.00     0.017 A 
HETATM   29  C   UNL     1      15.866  51.339  49.268  1.00  0.00     0.021 A 
HETATM   30  C   UNL     1      16.658  50.416  48.579  1.00  0.00     0.010 A 
BRANCH  28  31
HETATM   31  C   UNL     1      15.601  53.493  50.399  1.00  0.00    -0.064 C 
HETATM   32  C   UNL     1      14.928  54.287  51.001  1.00  0.00    -0.064 C 
BRANCH  32  33
HETATM   33  C   UNL     1      14.112  55.266  51.738  1.00  0.00     0.114 C 
HETATM   34  C   UNL     1      14.808  56.626  51.776  1.00  0.00     0.060 C 
HETATM   35  C   UNL     1      12.725  55.387  51.112  1.00  0.00     0.060 C 
BRANCH  33  36
HETATM   36  O   UNL     1      13.944  54.805  53.077  1.00  0.00    -0.378 OA
HETATM   37  H   UNL     1      13.765  55.582  53.630  1.00  0.00     0.211 HD
ENDBRANCH  33  36
ENDBRANCH  32  33
ENDBRANCH  28  31
ENDBRANCH  24  25
ENDBRANCH   6  24
TORSDOF 8
ENDMDL
MODEL 5
REMARK VINA RESULT:      -8.1      3.085      6.011
REMARK  8 active torsions:
REMARK  status: ('A' for Active; 'I' for Inactive)
REMARK    1  A    between atoms: C_6  and  C_7 
REMARK       I    between atoms: C_7  and  N_8 
REMARK    2  A    between atoms: N_8  and  C_9 
REMARK    3  A    between atoms: C_9  and  C_10 
REMARK    4  A    between atoms: N_15  and  C_17 
REMARK    5  A    between atoms: C_17  and  C_18 
REMARK    6  A    between atoms: C_21  and  C_22 
REMARK    7  A    between atoms: C_23  and  C_24 
REMARK    8  A    between atoms: C_24  and  O_25 
ROOT
HETATM    1  C   UNL     1      23.740  46.111  49.377  1.00  0.00     0.140 C 
HETATM    2  O   UNL     1      22.381  46.555  49.157  1.00  0.00    -0.373 OA
HETATM    3  C   UNL     1      22.435  47.874  48.568  1.00  0.00     0.064 C 
HETATM    4  C   UNL     1      21.485  48.768  49.372  1.00  0.00     0.066 C 
HETATM    5  C   UNL     1      20.042  48.302  49.237  1.00  0.00     0.238 C 
HETATM    6  N   UNL     1      19.628  48.246  47.786  1.00  0.00    -0.067 N 
HETATM    7  H   UNL     1      18.704  47.796  47.792  1.00  0.00     0.280 HD
HETATM    8  C   UNL     1      20.528  47.323  47.000  1.00  0.00     0.238 C 
HETATM    9  C   UNL     1      21.982  47.764  47.108  1.00  0.00     0.066 C 
HETATM   10  C   UNL     1      23.892  48.342  48.676  1.00  0.00     0.041 C 
HETATM   11  C   UNL     1      24.493  47.391  49.686  1.00  0.00     0.036 C 
ENDROOT
BRANCH   1  12
HETATM   12  C   UNL     1      23.819  45.083  50.510  1.00  0.00     0.155 C 
BRANCH  12  13
HETATM   13  N   UNL     1      25.125  44.997  51.143  1.00  0.00    -0.353 N 
HETATM   14  C   UNL     1      25.343  44.246  52.279  1.00  0.00     0.270 C 
HETATM   15  O   UNL     1      24.413  43.724  52.886  1.00  0.00    -0.266 OA
HETATM   16  H   UNL     1      25.920  45.338  50.627  1.00  0.00     0.162 HD
BRANCH  14  17
HETATM   17  C   UNL     1      26.726  44.139  52.690  1.00  0.00     0.122 A 
HETATM   18  N   UNL     1      27.343  45.005  53.566  1.00  0.00    -0.269 N 
HETATM   19  N   UNL     1      28.641  44.722  53.787  1.00  0.00    -0.177 NA
HETATM   20  C   UNL     1      26.761  46.146  54.238  1.00  0.00     0.180 C 
HETATM   21  C   UNL     1      28.865  43.614  53.079  1.00  0.00     0.053 A 
HETATM   22  C   UNL     1      30.192  42.954  53.105  1.00  0.00     0.072 C 
HETATM   23  C   UNL     1      27.711  43.218  52.368  1.00  0.00     0.065 A 
ENDBRANCH  14  17
ENDBRANCH  12  13
ENDBRANCH   1  12
BRANCH   6  24
HETATM   24  C   UNL     1      19.398  49.582  47.109  1.00  0.00     0.273 C 
BRANCH  24  25
HETATM   25  C   UNL     1      18.571  50.537  47.927  1.00  0.00    -0.033 A 
HETATM   26  C   UNL     1      17.194  50.319  48.089  1.00  0.00     0.010 A 
HETATM   27  C   UNL     1      16.410  51.228  48.803  1.00  0.00     0.021 A 
HETATM   28  C   UNL     1      16.994  52.364  49.364  1.00  0.00     0.017 A 
HETATM   29  C   UNL     1      18.365  52.582  49.223  1.00  0.00     0.021 A 
HETATM   30  C   UNL     1      19.152  51.675  48.509  1.00  0.00     0.010 A 
BRANCH  28  31
HETATM   31  C   UNL     1      16.186  53.304  50.074  1.00  0.00    -0.064 C 
HETATM   32  C   UNL     1      15.517  54.102  50.674  1.00  0.00    -0.064 C 
BRANCH  32  33
HETATM   33  C   UNL     1      14.703  55.078  51.419  1.00  0.00     0.114 C 
HETATM   34  C   UNL     1      15.155  56.503  51.107  1.00  0.00     0.060 C 
HETATM   35  C   UNL     1      13.222  54.898  51.096  1.00  0.00     0.060 C 
BRANCH  33  36
HETATM   36  O   UNL     1      14.874  54.842  52.815  1.00  0.00    -0.378 OA
HETATM   37  H   UNL     1      14.173  55.330  53.278  1.00  0.00     0.211 HD
ENDBRANCH  33  36
ENDBRANCH  32  33
ENDBRANCH  28  31
ENDBRANCH  24  25
ENDBRANCH   6  24
TORSDOF 8
ENDMDL
MODEL 6
REMARK VINA RESULT:      -7.9      6.050     10.391
REMARK  8 active torsions:
REMARK  status: ('A' for Active; 'I' for Inactive)
REMARK    1  A    between atoms: C_6  and  C_7 
REMARK       I    between atoms: C_7  and  N_8 
REMARK    2  A    between atoms: N_8  and  C_9 
REMARK    3  A    between atoms: C_9  and  C_10 
REMARK    4  A    between atoms: N_15  and  C_17 
REMARK    5  A    between atoms: C_17  and  C_18 
REMARK    6  A    between atoms: C_21  and  C_22 
REMARK    7  A    between atoms: C_23  and  C_24 
REMARK    8  A    between atoms: C_24  and  O_25 
ROOT
HETATM    1  C   UNL     1      27.329  41.990  51.131  1.00  0.00     0.140 C 
HETATM    2  O   UNL     1      27.203  41.746  49.711  1.00  0.00    -0.373 OA
HETATM    3  C   UNL     1      27.702  40.416  49.444  1.00  0.00     0.064 C 
HETATM    4  C   UNL     1      28.684  40.527  48.274  1.00  0.00     0.066 C 
HETATM    5  C   UNL     1      27.979  40.979  47.002  1.00  0.00     0.238 C 
HETATM    6  N   UNL     1      26.838  40.050  46.660  1.00  0.00    -0.067 N 
HETATM    7  H   UNL     1      26.348  40.509  45.882  1.00  0.00     0.280 HD
HETATM    8  C   UNL     1      25.839  39.979  47.789  1.00  0.00     0.238 C 
HETATM    9  C   UNL     1      26.510  39.524  49.078  1.00  0.00     0.066 C 
HETATM   10  C   UNL     1      28.392  39.941  50.729  1.00  0.00     0.041 C 
HETATM   11  C   UNL     1      28.573  41.215  51.522  1.00  0.00     0.036 C 
ENDROOT
BRANCH   1  12
HETATM   12  C   UNL     1      27.439  43.488  51.436  1.00  0.00     0.155 C 
BRANCH  12  13
HETATM   13  N   UNL     1      28.382  43.810  52.495  1.00  0.00    -0.353 N 
HETATM   14  C   UNL     1      28.012  43.848  53.823  1.00  0.00     0.270 C 
HETATM   15  O   UNL     1      26.836  43.745  54.160  1.00  0.00    -0.266 OA
HETATM   16  H   UNL     1      29.363  43.814  52.264  1.00  0.00     0.162 HD
BRANCH  14  17
HETATM   17  C   UNL     1      29.099  44.028  54.760  1.00  0.00     0.122 A 
HETATM   18  N   UNL     1      29.412  45.227  55.362  1.00  0.00    -0.269 N 
HETATM   19  N   UNL     1      30.478  45.161  56.183  1.00  0.00    -0.177 NA
HETATM   20  C   UNL     1      28.744  46.499  55.199  1.00  0.00     0.180 C 
HETATM   21  C   UNL     1      30.838  43.877  56.158  1.00  0.00     0.053 A 
HETATM   22  C   UNL     1      31.966  43.390  56.989  1.00  0.00     0.072 C 
HETATM   23  C   UNL     1      30.022  43.133  55.278  1.00  0.00     0.065 A 
ENDBRANCH  14  17
ENDBRANCH  12  13
ENDBRANCH   1  12
BRANCH   6  24
HETATM   24  C   UNL     1      27.230  38.691  46.116  1.00  0.00     0.273 C 
BRANCH  24  25
HETATM   25  C   UNL     1      28.246  38.755  45.009  1.00  0.00    -0.033 A 
HETATM   26  C   UNL     1      28.320  39.886  44.181  1.00  0.00     0.010 A 
HETATM   27  C   UNL     1      29.226  39.931  43.119  1.00  0.00     0.021 A 
HETATM   28  C   UNL     1      30.069  38.847  42.873  1.00  0.00     0.017 A 
HETATM   29  C   UNL     1      30.015  37.724  43.700  1.00  0.00     0.021 A 
HETATM   30  C   UNL     1      29.110  37.676  44.763  1.00  0.00     0.010 A 
BRANCH  28  31
HETATM   31  C   UNL     1      30.978  38.886  41.772  1.00  0.00    -0.064 C 
HETATM   32  C   UNL     1      31.736  38.911  40.840  1.00  0.00    -0.064 C 
BRANCH  32  33
HETATM   33  C   UNL     1      32.666  38.930  39.698  1.00  0.00     0.114 C 
HETATM   34  C   UNL     1      33.573  37.701  39.723  1.00  0.00     0.060 C 
HETATM   35  C   UNL     1      31.897  39.006  38.382  1.00  0.00     0.060 C 
BRANCH  33  36
HETATM   36  O   UNL     1      33.480  40.097  39.792  1.00  0.00    -0.378 OA
HETATM   37  H   UNL     1      34.340  39.883  39.395  1.00  0.00     0.211 HD
ENDBRANCH  33  36
ENDBRANCH  32  33
ENDBRANCH  28  31
ENDBRANCH  24  25
ENDBRANCH   6  24
TORSDOF 8
ENDMDL
MODEL 7
REMARK VINA RESULT:      -7.8     11.088     12.037
REMARK  8 active torsions:
REMARK  status: ('A' for Active; 'I' for Inactive)
REMARK    1  A    between atoms: C_6  and  C_7 
REMARK       I    between atoms: C_7  and  N_8 
REMARK    2  A    between atoms: N_8  and  C_9 
REMARK    3  A    between atoms: C_9  and  C_10 
REMARK    4  A    between atoms: N_15  and  C_17 
REMARK    5  A    between atoms: C_17  and  C_18 
REMARK    6  A    between atoms: C_21  and  C_22 
REMARK    7  A    between atoms: C_23  and  C_24 
REMARK    8  A    between atoms: C_24  and  O_25 
ROOT
HETATM    1  C   UNL     1      29.584  47.277  39.148  1.00  0.00     0.140 C 
HETATM    2  O   UNL     1      28.424  48.139  39.216  1.00  0.00    -0.373 OA
HETATM    3  C   UNL     1      27.275  47.369  38.798  1.00  0.00     0.064 C 
HETATM    4  C   UNL     1      26.529  48.199  37.750  1.00  0.00     0.066 C 
HETATM    5  C   UNL     1      25.981  49.486  38.353  1.00  0.00     0.238 C 
HETATM    6  N   UNL     1      25.091  49.189  39.536  1.00  0.00    -0.067 N 
HETATM    7  H   UNL     1      24.888  50.107  39.951  1.00  0.00     0.280 HD
HETATM    8  C   UNL     1      25.837  48.416  40.597  1.00  0.00     0.238 C 
HETATM    9  C   UNL     1      26.396  47.118  40.028  1.00  0.00     0.066 C 
HETATM   10  C   UNL     1      27.816  46.058  38.212  1.00  0.00     0.041 C 
HETATM   11  C   UNL     1      29.281  46.353  37.985  1.00  0.00     0.036 C 
ENDROOT
BRANCH   1  12
HETATM   12  C   UNL     1      30.872  48.083  38.950  1.00  0.00     0.155 C 
BRANCH  12  13
HETATM   13  N   UNL     1      31.186  48.979  40.050  1.00  0.00    -0.353 N 
HETATM   14  C   UNL     1      32.192  48.710  40.954  1.00  0.00     0.270 C 
HETATM   15  O   UNL     1      32.779  47.632  40.952  1.00  0.00    -0.266 OA
HETATM   16  H   UNL     1      30.788  49.904  40.030  1.00  0.00     0.162 HD
BRANCH  14  17
HETATM   17  C   UNL     1      32.481  49.774  41.890  1.00  0.00     0.122 A 
HETATM   18  N   UNL     1      33.416  50.762  41.676  1.00  0.00    -0.269 N 
HETATM   19  N   UNL     1      33.528  51.635  42.695  1.00  0.00    -0.177 NA
HETATM   20  C   UNL     1      34.261  50.942  40.516  1.00  0.00     0.180 C 
HETATM   21  C   UNL     1      32.607  51.240  43.575  1.00  0.00     0.053 A 
HETATM   22  C   UNL     1      32.387  51.994  44.833  1.00  0.00     0.072 C 
HETATM   23  C   UNL     1      31.938  50.079  43.129  1.00  0.00     0.065 A 
ENDBRANCH  14  17
ENDBRANCH  12  13
ENDBRANCH   1  12
BRANCH   6  24
HETATM   24  C   UNL     1      23.730  48.606  39.213  1.00  0.00     0.273 C 
BRANCH  24  25
HETATM   25  C   UNL     1      22.585  49.399  39.782  1.00  0.00    -0.033 A 
HETATM   26  C   UNL     1      21.548  48.749  40.469  1.00  0.00     0.010 A 
HETATM   27  C   UNL     1      20.456  49.472  40.954  1.00  0.00     0.021 A 
HETATM   28  C   UNL     1      20.388  50.851  40.760  1.00  0.00     0.017 A 
HETATM   29  C   UNL     1      21.421  51.510  40.092  1.00  0.00     0.021 A 
HETATM   30  C   UNL     1      22.515  50.790  39.605  1.00  0.00     0.010 A 
BRANCH  28  31
HETATM   31  C   UNL     1      19.259  51.584  41.237  1.00  0.00    -0.064 C 
HETATM   32  C   UNL     1      18.316  52.208  41.646  1.00  0.00    -0.064 C 
BRANCH  32  33
HETATM   33  C   UNL     1      17.165  52.972  42.156  1.00  0.00     0.114 C 
HETATM   34  C   UNL     1      15.892  52.592  41.402  1.00  0.00     0.060 C 
HETATM   35  C   UNL     1      16.993  52.743  43.655  1.00  0.00     0.060 C 
BRANCH  33  36
HETATM   36  O   UNL     1      17.415  54.362  41.956  1.00  0.00    -0.378 OA
HETATM   37  H   UNL     1      17.326  54.799  42.819  1.00  0.00     0.211 HD
ENDBRANCH  33  36
ENDBRANCH  32  33
ENDBRANCH  28  31
ENDBRANCH  24  25
ENDBRANCH   6  24
TORSDOF 8
ENDMDL
MODEL 8
REMARK VINA RESULT:      -7.8     12.146     15.827
REMARK  8 active torsions:
REMARK  status: ('A' for Active; 'I' for Inactive)
REMARK    1  A    between atoms: C_6  and  C_7 
REMARK       I    between atoms: C_7  and  N_8 
REMARK    2  A    between atoms: N_8  and  C_9 
REMARK    3  A    between atoms: C_9  and  C_10 
REMARK    4  A    between atoms: N_15  and  C_17 
REMARK    5  A    between atoms: C_17  and  C_18 
REMARK    6  A    between atoms: C_21  and  C_22 
REMARK    7  A    between atoms: C_23  and  C_24 
REMARK    8  A    between atoms: C_24  and  O_25 
ROOT
HETATM    1  C   UNL     1      27.270  48.352  38.263  1.00  0.00     0.140 C 
HETATM    2  O   UNL     1      28.102  49.220  39.068  1.00  0.00    -0.373 OA
HETATM    3  C   UNL     1      28.634  48.436  40.159  1.00  0.00     0.064 C 
HETATM    4  C   UNL     1      28.381  49.223  41.448  1.00  0.00     0.066 C 
HETATM    5  C   UNL     1      29.151  50.536  41.453  1.00  0.00     0.238 C 
HETATM    6  N   UNL     1      30.629  50.294  41.252  1.00  0.00    -0.067 N 
HETATM    7  H   UNL     1      31.036  51.230  41.133  1.00  0.00     0.280 HD
HETATM    8  C   UNL     1      30.888  49.565  39.956  1.00  0.00     0.238 C 
HETATM    9  C   UNL     1      30.135  48.242  39.919  1.00  0.00     0.066 C 
HETATM   10  C   UNL     1      27.881  47.099  40.146  1.00  0.00     0.041 C 
HETATM   11  C   UNL     1      26.683  47.379  39.267  1.00  0.00     0.036 C 
ENDROOT
BRANCH   1  12
HETATM   12  C   UNL     1      26.200  49.144  37.504  1.00  0.00     0.155 C 
BRANCH  12  13
HETATM   13  N   UNL     1      25.064  49.540  38.320  1.00  0.00    -0.353 N 
HETATM   14  C   UNL     1      23.765  49.243  37.966  1.00  0.00     0.270 C 
HETATM   15  O   UNL     1      23.499  48.749  36.874  1.00  0.00    -0.266 OA
HETATM   16  H   UNL     1      25.250  49.865  39.255  1.00  0.00     0.162 HD
BRANCH  14  17
HETATM   17  C   UNL     1      22.766  49.566  38.960  1.00  0.00     0.122 A 
HETATM   18  N   UNL     1      22.366  48.711  39.964  1.00  0.00    -0.269 N 
HETATM   19  N   UNL     1      21.407  49.220  40.761  1.00  0.00    -0.177 NA
HETATM   20  C   UNL     1      22.847  47.373  40.228  1.00  0.00     0.180 C 
HETATM   21  C   UNL     1      21.213  50.456  40.301  1.00  0.00     0.053 A 
HETATM   22  C   UNL     1      20.248  51.368  40.963  1.00  0.00     0.072 C 
HETATM   23  C   UNL     1      22.023  50.717  39.175  1.00  0.00     0.065 A 
ENDBRANCH  14  17
ENDBRANCH  12  13
ENDBRANCH   1  12
BRANCH   6  24
HETATM   24  C   UNL     1      31.371  49.702  42.434  1.00  0.00     0.273 C 
BRANCH  24  25
HETATM   25  C   UNL     1      32.531  50.540  42.898  1.00  0.00    -0.033 A 
HETATM   26  C   UNL     1      33.749  50.507  42.202  1.00  0.00     0.010 A 
HETATM   27  C   UNL     1      34.847  51.242  42.657  1.00  0.00     0.021 A 
HETATM   28  C   UNL     1      34.739  52.019  43.810  1.00  0.00     0.017 A 
HETATM   29  C   UNL     1      33.527  52.071  44.501  1.00  0.00     0.021 A 
HETATM   30  C   UNL     1      32.427  51.337  44.049  1.00  0.00     0.010 A 
BRANCH  28  31
HETATM   31  C   UNL     1      35.869  52.751  44.285  1.00  0.00    -0.064 C 
HETATM   32  C   UNL     1      36.821  53.373  44.675  1.00  0.00    -0.064 C 
BRANCH  32  33
HETATM   33  C   UNL     1      37.993  54.132  45.143  1.00  0.00     0.114 C 
HETATM   34  C   UNL     1      38.946  53.225  45.918  1.00  0.00     0.060 C 
HETATM   35  C   UNL     1      38.710  54.789  43.967  1.00  0.00     0.060 C 
BRANCH  33  36
HETATM   36  O   UNL     1      37.546  55.170  46.012  1.00  0.00    -0.378 OA
HETATM   37  H   UNL     1      37.086  54.746  46.755  1.00  0.00     0.211 HD
ENDBRANCH  33  36
ENDBRANCH  32  33
ENDBRANCH  28  31
ENDBRANCH  24  25
ENDBRANCH   6  24
TORSDOF 8
ENDMDL
MODEL 9
REMARK VINA RESULT:      -7.5     16.898     18.074
REMARK  8 active torsions:
REMARK  status: ('A' for Active; 'I' for Inactive)
REMARK    1  A    between atoms: C_6  and  C_7 
REMARK       I    between atoms: C_7  and  N_8 
REMARK    2  A    between atoms: N_8  and  C_9 
REMARK    3  A    between atoms: C_9  and  C_10 
REMARK    4  A    between atoms: N_15  and  C_17 
REMARK    5  A    between atoms: C_17  and  C_18 
REMARK    6  A    between atoms: C_21  and  C_22 
REMARK    7  A    between atoms: C_23  and  C_24 
REMARK    8  A    between atoms: C_24  and  O_25 
ROOT
HETATM    1  C   UNL     1      39.541  55.203  46.487  1.00  0.00     0.140 C 
HETATM    2  O   UNL     1      39.335  54.494  45.243  1.00  0.00    -0.373 OA
HETATM    3  C   UNL     1      38.541  53.321  45.527  1.00  0.00     0.064 C 
HETATM    4  C   UNL     1      39.247  52.127  44.876  1.00  0.00     0.066 C 
HETATM    5  C   UNL     1      39.277  52.263  43.360  1.00  0.00     0.238 C 
HETATM    6  N   UNL     1      37.881  52.428  42.807  1.00  0.00    -0.067 N 
HETATM    7  H   UNL     1      38.015  52.648  41.812  1.00  0.00     0.280 HD
HETATM    8  C   UNL     1      37.200  53.635  43.405  1.00  0.00     0.238 C 
HETATM    9  C   UNL     1      37.148  53.530  44.924  1.00  0.00     0.066 C 
HETATM   10  C   UNL     1      38.484  53.190  47.054  1.00  0.00     0.041 C 
HETATM   11  C   UNL     1      39.594  54.100  47.527  1.00  0.00     0.036 C 
ENDROOT
BRANCH   1  12
HETATM   12  C   UNL     1      40.817  56.049  46.448  1.00  0.00     0.155 C 
BRANCH  12  13
HETATM   13  N   UNL     1      40.606  57.421  46.017  1.00  0.00    -0.353 N 
HETATM   14  C   UNL     1      40.644  57.789  44.689  1.00  0.00     0.270 C 
HETATM   15  O   UNL     1      40.995  56.998  43.818  1.00  0.00    -0.266 OA
HETATM   16  H   UNL     1      40.233  58.072  46.690  1.00  0.00     0.162 HD
BRANCH  14  17
HETATM   17  C   UNL     1      40.259  59.156  44.416  1.00  0.00     0.122 A 
HETATM   18  N   UNL     1      38.955  59.598  44.368  1.00  0.00    -0.269 N 
HETATM   19  N   UNL     1      38.835  60.908  44.077  1.00  0.00    -0.177 NA
HETATM   20  C   UNL     1      37.751  58.825  44.580  1.00  0.00     0.180 C 
HETATM   21  C   UNL     1      40.092  61.344  43.986  1.00  0.00     0.053 A 
HETATM   22  C   UNL     1      40.380  62.775  43.719  1.00  0.00     0.072 C 
HETATM   23  C   UNL     1      41.015  60.293  44.174  1.00  0.00     0.065 A 
ENDBRANCH  14  17
ENDBRANCH  12  13
ENDBRANCH   1  12
BRANCH   6  24
HETATM   24  C   UNL     1      37.015  51.185  42.810  1.00  0.00     0.273 C 
BRANCH  24  25
HETATM   25  C   UNL     1      35.753  51.328  42.003  1.00  0.00    -0.033 A 
HETATM   26  C   UNL     1      34.500  51.227  42.627  1.00  0.00     0.010 A 
HETATM   27  C   UNL     1      33.325  51.306  41.876  1.00  0.00     0.021 A 
HETATM   28  C   UNL     1      33.388  51.489  40.495  1.00  0.00     0.017 A 
HETATM   29  C   UNL     1      34.629  51.607  39.867  1.00  0.00     0.021 A 
HETATM   30  C   UNL     1      35.807  51.528  40.615  1.00  0.00     0.010 A 
BRANCH  28  31
HETATM   31  C   UNL     1      32.186  51.547  39.727  1.00  0.00    -0.064 C 
HETATM   32  C   UNL     1      31.177  51.586  39.074  1.00  0.00    -0.064 C 
BRANCH  32  33
HETATM   33  C   UNL     1      29.948  51.634  38.265  1.00  0.00     0.114 C 
HETATM   34  C   UNL     1      29.154  50.338  38.417  1.00  0.00     0.060 C 
HETATM   35  C   UNL     1      29.095  52.838  38.655  1.00  0.00     0.060 C 
BRANCH  33  36
HETATM   36  O   UNL     1      30.310  51.785  36.894  1.00  0.00    -0.378 OA
HETATM   37  H   UNL     1      30.636  52.693  36.780  1.00  0.00     0.211 HD
ENDBRANCH  33  36
ENDBRANCH  32  33
ENDBRANCH  28  31
ENDBRANCH  24  25
ENDBRANCH   6  24
TORSDOF 8
ENDMDL
MODEL 10
REMARK VINA RESULT:      -7.4      4.927     13.180
REMARK  8 active torsions:
REMARK  status: ('A' for Active; 'I' for Inactive)
REMARK    1  A    between atoms: C_6  and  C_7 
REMARK       I    between atoms: C_7  and  N_8 
REMARK    2  A    between atoms: N_8  and  C_9 
REMARK    3  A    between atoms: C_9  and  C_10 
REMARK    4  A    between atoms: N_15  and  C_17 
REMARK    5  A    between atoms: C_17  and  C_18 
REMARK    6  A    between atoms: C_21  and  C_22 
REMARK    7  A    between atoms: C_23  and  C_24 
REMARK    8  A    between atoms: C_24  and  O_25 
ROOT
HETATM    1  C   UNL     1      17.451  51.439  49.215  1.00  0.00     0.140 C 
HETATM    2  O   UNL     1      18.164  50.278  48.728  1.00  0.00    -0.373 OA
HETATM    3  C   UNL     1      19.540  50.661  48.510  1.00  0.00     0.064 C 
HETATM    4  C   UNL     1      19.926  50.186  47.107  1.00  0.00     0.066 C 
HETATM    5  C   UNL     1      19.888  48.667  47.007  1.00  0.00     0.238 C 
HETATM    6  N   UNL     1      20.779  48.037  48.052  1.00  0.00    -0.067 N 
HETATM    7  H   UNL     1      20.581  47.031  47.996  1.00  0.00     0.280 HD
HETATM    8  C   UNL     1      20.369  48.460  49.442  1.00  0.00     0.238 C 
HETATM    9  C   UNL     1      20.401  49.977  49.578  1.00  0.00     0.066 C 
HETATM   10  C   UNL     1      19.593  52.189  48.633  1.00  0.00     0.041 C 
HETATM   11  C   UNL     1      18.143  52.601  48.530  1.00  0.00     0.036 C 
ENDROOT
BRANCH   1  12
HETATM   12  C   UNL     1      15.956  51.358  48.892  1.00  0.00     0.155 C 
BRANCH  12  13
HETATM   13  N   UNL     1      15.566  52.097  47.703  1.00  0.00    -0.353 N 
HETATM   14  C   UNL     1      15.567  51.526  46.448  1.00  0.00     0.270 C 
HETATM   15  O   UNL     1      16.031  50.405  46.259  1.00  0.00    -0.266 OA
HETATM   16  H   UNL     1      15.101  52.982  47.832  1.00  0.00     0.162 HD
BRANCH  14  17
HETATM   17  C   UNL     1      15.003  52.344  45.398  1.00  0.00     0.122 A 
HETATM   18  N   UNL     1      13.934  51.970  44.613  1.00  0.00    -0.269 N 
HETATM   19  N   UNL     1      13.594  52.884  43.685  1.00  0.00    -0.177 NA
HETATM   20  C   UNL     1      13.179  50.738  44.678  1.00  0.00     0.180 C 
HETATM   21  C   UNL     1      14.425  53.904  43.902  1.00  0.00     0.053 A 
HETATM   22  C   UNL     1      14.329  55.145  43.096  1.00  0.00     0.072 C 
HETATM   23  C   UNL     1      15.330  53.614  44.946  1.00  0.00     0.065 A 
ENDBRANCH  14  17
ENDBRANCH  12  13
ENDBRANCH   1  12
BRANCH   6  24
HETATM   24  C   UNL     1      22.270  48.147  47.805  1.00  0.00     0.273 C 
BRANCH  24  25
HETATM   25  C   UNL     1      23.102  47.369  48.787  1.00  0.00    -0.033 A 
HETATM   26  C   UNL     1      22.976  45.974  48.872  1.00  0.00     0.010 A 
HETATM   27  C   UNL     1      23.707  45.251  49.817  1.00  0.00     0.021 A 
HETATM   28  C   UNL     1      24.574  45.912  50.686  1.00  0.00     0.017 A 
HETATM   29  C   UNL     1      24.719  47.298  50.600  1.00  0.00     0.021 A 
HETATM   30  C   UNL     1      23.989  48.025  49.656  1.00  0.00     0.010 A 
BRANCH  28  31
HETATM   31  C   UNL     1      25.303  45.173  51.667  1.00  0.00    -0.064 C 
HETATM   32  C   UNL     1      25.917  44.561  52.499  1.00  0.00    -0.064 C 
BRANCH  32  33
HETATM   33  C   UNL     1      26.679  43.819  53.518  1.00  0.00     0.114 C 
HETATM   34  C   UNL     1      28.045  44.464  53.743  1.00  0.00     0.060 C 
HETATM   35  C   UNL     1      25.895  43.745  54.825  1.00  0.00     0.060 C 
BRANCH  33  36
HETATM   36  O   UNL     1      26.877  42.484  53.056  1.00  0.00    -0.378 OA
HETATM   37  H   UNL     1      27.113  42.536  52.115  1.00  0.00     0.211 HD
ENDBRANCH  33  36
ENDBRANCH  32  33
ENDBRANCH  28  31
ENDBRANCH  24  25
ENDBRANCH   6  24
TORSDOF 8
ENDMDL
