MODEL 1
REMARK VINA RESULT:      -9.5      0.000      0.000
REMARK  5 active torsions:
REMARK  status: ('A' for Active; 'I' for Inactive)
REMARK    1  A    between atoms: O_2  and  C_3 
REMARK    2  A    between atoms: C_4  and  N_5 
REMARK       I    between atoms: N_5  and  C_6 
REMARK    3  A    between atoms: C_6  and  C_7 
REMARK    4  A    between atoms: C_7  and  N_8 
REMARK    5  A    between atoms: N_8  and  C_9 
ROOT
HETATM    1  C   UNL     1      25.633  45.131  52.428  1.00  0.00     0.195 C 
ENDROOT
BRANCH   1   2
HETATM    2  C   UNL     1      25.618  46.587  51.941  1.00  0.00     0.235 C 
HETATM    3  N   UNL     1      25.721  46.693  50.569  1.00  0.00    -0.324 N 
HETATM    4  H   UNL     1      25.777  45.812  50.060  1.00  0.00     0.169 HD
HETATM    5  O   UNL     1      25.475  47.513  52.734  1.00  0.00    -0.272 OA
BRANCH   3   6
HETATM    6  C   UNL     1      25.858  47.857  49.787  1.00  0.00     0.068 A 
HETATM    7  C   UNL     1      24.683  48.430  49.264  1.00  0.00     0.095 A 
HETATM    8  C   UNL     1      24.759  49.538  48.414  1.00  0.00     0.039 A 
HETATM    9  C   UNL     1      25.999  50.099  48.110  1.00  0.00     0.003 A 
HETATM   10  C   UNL     1      27.161  49.554  48.652  1.00  0.00     0.002 A 
HETATM   11  C   UNL     1      27.091  48.437  49.488  1.00  0.00     0.032 A 
BRANCH   7  12
HETATM   12  O   UNL     1      23.491  47.834  49.607  1.00  0.00    -0.354 OA
HETATM   13  C   UNL     1      22.347  48.479  49.051  1.00  0.00     0.210 C 
ENDBRANCH   7  12
ENDBRANCH   3   6
ENDBRANCH   1   2
BRANCH   1  14
HETATM   14  N   UNL     1      26.855  44.400  52.036  1.00  0.00    -0.284 NA
HETATM   15  H   UNL     1      26.625  43.541  51.537  1.00  0.00     0.128 HD
BRANCH  14  16
HETATM   16  C   UNL     1      27.823  44.137  53.023  1.00  0.00     0.009 A 
HETATM   17  C   UNL     1      28.049  44.959  54.136  1.00  0.00     0.035 A 
HETATM   18  C   UNL     1      29.081  44.703  55.059  1.00  0.00    -0.024 A 
HETATM   19  C   UNL     1      29.934  43.599  54.855  1.00  0.00    -0.026 A 
HETATM   20  C   UNL     1      29.282  45.528  56.179  1.00  0.00     0.012 A 
HETATM   21  C   UNL     1      29.742  42.796  53.724  1.00  0.00     0.014 A 
HETATM   22  C   UNL     1      30.960  43.343  55.780  1.00  0.00     0.012 A 
HETATM   23  C   UNL     1      28.713  43.076  52.816  1.00  0.00     0.024 A 
HETATM   24  C   UNL     1      31.144  44.169  56.890  1.00  0.00     0.001 A 
HETATM   25  C   UNL     1      30.307  45.263  57.087  1.00  0.00     0.001 A 
ENDBRANCH  14  16
ENDBRANCH   1  14
TORSDOF 5
ENDMDL
MODEL 2
REMARK VINA RESULT:      -9.2      1.276      1.940
REMARK  5 active torsions:
REMARK  status: ('A' for Active; 'I' for Inactive)
REMARK    1  A    between atoms: O_2  and  C_3 
REMARK    2  A    between atoms: C_4  and  N_5 
REMARK       I    between atoms: N_5  and  C_6 
REMARK    3  A    between atoms: C_6  and  C_7 
REMARK    4  A    between atoms: C_7  and  N_8 
REMARK    5  A    between atoms: N_8  and  C_9 
ROOT
HETATM    1  C   UNL     1      25.920  44.367  51.282  1.00  0.00     0.195 C 
ENDROOT
BRANCH   1   2
HETATM    2  C   UNL     1      26.434  45.464  50.339  1.00  0.00     0.235 C 
HETATM    3  N   UNL     1      25.800  46.675  50.532  1.00  0.00    -0.324 N 
HETATM    4  H   UNL     1      25.096  46.694  51.270  1.00  0.00     0.169 HD
HETATM    5  O   UNL     1      27.351  45.240  49.554  1.00  0.00    -0.272 OA
BRANCH   3   6
HETATM    6  C   UNL     1      25.925  47.861  49.781  1.00  0.00     0.068 A 
HETATM    7  C   UNL     1      24.745  48.429  49.264  1.00  0.00     0.095 A 
HETATM    8  C   UNL     1      24.810  49.560  48.444  1.00  0.00     0.039 A 
HETATM    9  C   UNL     1      26.044  50.149  48.166  1.00  0.00     0.003 A 
HETATM   10  C   UNL     1      27.210  49.608  48.703  1.00  0.00     0.002 A 
HETATM   11  C   UNL     1      27.151  48.469  49.509  1.00  0.00     0.032 A 
BRANCH   7  12
HETATM   12  O   UNL     1      23.560  47.805  49.581  1.00  0.00    -0.354 OA
HETATM   13  C   UNL     1      22.455  48.242  48.794  1.00  0.00     0.210 C 
ENDBRANCH   7  12
ENDBRANCH   3   6
ENDBRANCH   1   2
BRANCH   1  14
HETATM   14  N   UNL     1      25.742  44.834  52.672  1.00  0.00    -0.284 NA
HETATM   15  H   UNL     1      25.181  45.684  52.705  1.00  0.00     0.128 HD
BRANCH  14  16
HETATM   16  C   UNL     1      26.885  44.983  53.481  1.00  0.00     0.009 A 
HETATM   17  C   UNL     1      27.800  43.952  53.738  1.00  0.00     0.035 A 
HETATM   18  C   UNL     1      28.888  44.118  54.616  1.00  0.00    -0.024 A 
HETATM   19  C   UNL     1      29.060  45.351  55.279  1.00  0.00    -0.026 A 
HETATM   20  C   UNL     1      29.805  43.080  54.850  1.00  0.00     0.012 A 
HETATM   21  C   UNL     1      28.128  46.373  55.059  1.00  0.00     0.014 A 
HETATM   22  C   UNL     1      30.149  45.517  56.151  1.00  0.00     0.012 A 
HETATM   23  C   UNL     1      27.049  46.180  54.187  1.00  0.00     0.024 A 
HETATM   24  C   UNL     1      31.055  44.478  56.369  1.00  0.00     0.001 A 
HETATM   25  C   UNL     1      30.881  43.259  55.720  1.00  0.00     0.001 A 
ENDBRANCH  14  16
ENDBRANCH   1  14
TORSDOF 5
ENDMDL
MODEL 3
REMARK VINA RESULT:      -9.0      1.194      2.097
REMARK  5 active torsions:
REMARK  status: ('A' for Active; 'I' for Inactive)
REMARK    1  A    between atoms: O_2  and  C_3 
REMARK    2  A    between atoms: C_4  and  N_5 
REMARK       I    between atoms: N_5  and  C_6 
REMARK    3  A    between atoms: C_6  and  C_7 
REMARK    4  A    between atoms: C_7  and  N_8 
REMARK    5  A    between atoms: N_8  and  C_9 
ROOT
HETATM    1  C   UNL     1      25.247  45.197  51.700  1.00  0.00     0.195 C 
ENDROOT
BRANCH   1   2
HETATM    2  C   UNL     1      25.012  46.679  51.372  1.00  0.00     0.235 C 
HETATM    3  N   UNL     1      24.510  46.872  50.102  1.00  0.00    -0.324 N 
HETATM    4  H   UNL     1      24.348  46.026  49.556  1.00  0.00     0.169 HD
HETATM    5  O   UNL     1      25.219  47.549  52.213  1.00  0.00    -0.272 OA
BRANCH   3   6
HETATM    6  C   UNL     1      24.286  48.085  49.421  1.00  0.00     0.068 A 
HETATM    7  C   UNL     1      25.405  48.736  48.868  1.00  0.00     0.095 A 
HETATM    8  C   UNL     1      25.259  49.983  48.251  1.00  0.00     0.039 A 
HETATM    9  C   UNL     1      23.997  50.568  48.150  1.00  0.00     0.003 A 
HETATM   10  C   UNL     1      22.882  49.910  48.668  1.00  0.00     0.002 A 
HETATM   11  C   UNL     1      23.025  48.672  49.300  1.00  0.00     0.032 A 
BRANCH   7  12
HETATM   12  O   UNL     1      26.621  48.104  48.995  1.00  0.00    -0.354 OA
HETATM   13  C   UNL     1      27.721  49.002  49.125  1.00  0.00     0.210 C 
ENDBRANCH   7  12
ENDBRANCH   3   6
ENDBRANCH   1   2
BRANCH   1  14
HETATM   14  N   UNL     1      25.311  44.928  53.151  1.00  0.00    -0.284 NA
HETATM   15  H   UNL     1      24.917  45.701  53.686  1.00  0.00     0.128 HD
BRANCH  14  16
HETATM   16  C   UNL     1      26.546  44.540  53.706  1.00  0.00     0.009 A 
HETATM   17  C   UNL     1      27.301  45.346  54.570  1.00  0.00     0.035 A 
HETATM   18  C   UNL     1      28.569  44.954  55.042  1.00  0.00    -0.024 A 
HETATM   19  C   UNL     1      29.114  43.724  54.620  1.00  0.00    -0.026 A 
HETATM   20  C   UNL     1      29.305  45.766  55.921  1.00  0.00     0.012 A 
HETATM   21  C   UNL     1      28.385  42.932  53.725  1.00  0.00     0.014 A 
HETATM   22  C   UNL     1      30.378  43.333  55.095  1.00  0.00     0.012 A 
HETATM   23  C   UNL     1      27.129  43.347  53.264  1.00  0.00     0.024 A 
HETATM   24  C   UNL     1      31.095  44.149  55.973  1.00  0.00     0.001 A 
HETATM   25  C   UNL     1      30.559  45.366  56.383  1.00  0.00     0.001 A 
ENDBRANCH  14  16
ENDBRANCH   1  14
TORSDOF 5
ENDMDL
MODEL 4
REMARK VINA RESULT:      -8.9      1.615      2.443
REMARK  5 active torsions:
REMARK  status: ('A' for Active; 'I' for Inactive)
REMARK    1  A    between atoms: O_2  and  C_3 
REMARK    2  A    between atoms: C_4  and  N_5 
REMARK       I    between atoms: N_5  and  C_6 
REMARK    3  A    between atoms: C_6  and  C_7 
REMARK    4  A    between atoms: C_7  and  N_8 
REMARK    5  A    between atoms: N_8  and  C_9 
ROOT
HETATM    1  C   UNL     1      27.390  44.197  51.463  1.00  0.00     0.195 C 
ENDROOT
BRANCH   1   2
HETATM    2  C   UNL     1      26.783  45.040  50.332  1.00  0.00     0.235 C 
HETATM    3  N   UNL     1      25.679  45.762  50.736  1.00  0.00    -0.324 N 
HETATM    4  H   UNL     1      25.418  45.660  51.717  1.00  0.00     0.169 HD
HETATM    5  O   UNL     1      27.303  45.067  49.220  1.00  0.00    -0.272 OA
BRANCH   3   6
HETATM    6  C   UNL     1      24.806  46.542  49.954  1.00  0.00     0.068 A 
HETATM    7  C   UNL     1      25.152  47.891  49.743  1.00  0.00     0.095 A 
HETATM    8  C   UNL     1      24.286  48.738  49.043  1.00  0.00     0.039 A 
HETATM    9  C   UNL     1      23.093  48.239  48.521  1.00  0.00     0.003 A 
HETATM   10  C   UNL     1      22.763  46.897  48.700  1.00  0.00     0.002 A 
HETATM   11  C   UNL     1      23.617  46.050  49.412  1.00  0.00     0.032 A 
BRANCH   7  12
HETATM   12  O   UNL     1      26.345  48.320  50.278  1.00  0.00    -0.354 OA
HETATM   13  C   UNL     1      27.300  48.721  49.298  1.00  0.00     0.210 C 
ENDBRANCH   7  12
ENDBRANCH   3   6
ENDBRANCH   1   2
BRANCH   1  14
HETATM   14  N   UNL     1      27.289  44.844  52.787  1.00  0.00    -0.284 NA
HETATM   15  H   UNL     1      27.238  45.858  52.697  1.00  0.00     0.128 HD
BRANCH  14  16
HETATM   16  C   UNL     1      28.230  44.498  53.775  1.00  0.00     0.009 A 
HETATM   17  C   UNL     1      28.470  45.261  54.927  1.00  0.00     0.035 A 
HETATM   18  C   UNL     1      29.476  44.922  55.853  1.00  0.00    -0.024 A 
HETATM   19  C   UNL     1      30.287  43.794  55.612  1.00  0.00    -0.026 A 
HETATM   20  C   UNL     1      29.692  45.688  57.011  1.00  0.00     0.012 A 
HETATM   21  C   UNL     1      30.082  43.051  54.443  1.00  0.00     0.014 A 
HETATM   22  C   UNL     1      31.287  43.456  56.539  1.00  0.00     0.012 A 
HETATM   23  C   UNL     1      29.080  43.412  53.533  1.00  0.00     0.024 A 
HETATM   24  C   UNL     1      31.486  44.223  57.688  1.00  0.00     0.001 A 
HETATM   25  C   UNL     1      30.690  45.341  57.921  1.00  0.00     0.001 A 
ENDBRANCH  14  16
ENDBRANCH   1  14
TORSDOF 5
ENDMDL
MODEL 5
REMARK VINA RESULT:      -8.5      2.021      2.577
REMARK  5 active torsions:
REMARK  status: ('A' for Active; 'I' for Inactive)
REMARK    1  A    between atoms: O_2  and  C_3 
REMARK    2  A    between atoms: C_4  and  N_5 
REMARK       I    between atoms: N_5  and  C_6 
REMARK    3  A    between atoms: C_6  and  C_7 
REMARK    4  A    between atoms: C_7  and  N_8 
REMARK    5  A    between atoms: N_8  and  C_9 
ROOT
HETATM    1  C   UNL     1      27.499  44.269  51.321  1.00  0.00     0.195 C 
ENDROOT
BRANCH   1   2
HETATM    2  C   UNL     1      26.782  45.175  50.310  1.00  0.00     0.235 C 
HETATM    3  N   UNL     1      25.500  45.502  50.701  1.00  0.00    -0.324 N 
HETATM    4  H   UNL     1      25.200  45.123  51.599  1.00  0.00     0.169 HD
HETATM    5  O   UNL     1      27.361  45.576  49.304  1.00  0.00    -0.272 OA
BRANCH   3   6
HETATM    6  C   UNL     1      24.516  46.208  49.981  1.00  0.00     0.068 A 
HETATM    7  C   UNL     1      23.648  45.460  49.163  1.00  0.00     0.095 A 
HETATM    8  C   UNL     1      22.703  46.109  48.362  1.00  0.00     0.039 A 
HETATM    9  C   UNL     1      22.594  47.499  48.400  1.00  0.00     0.003 A 
HETATM   10  C   UNL     1      23.429  48.240  49.234  1.00  0.00     0.002 A 
HETATM   11  C   UNL     1      24.385  47.597  50.023  1.00  0.00     0.032 A 
BRANCH   7  12
HETATM   12  O   UNL     1      23.802  44.093  49.175  1.00  0.00    -0.354 OA
HETATM   13  C   UNL     1      22.713  43.399  49.780  1.00  0.00     0.210 C 
ENDBRANCH   7  12
ENDBRANCH   3   6
ENDBRANCH   1   2
BRANCH   1  14
HETATM   14  N   UNL     1      27.246  44.652  52.725  1.00  0.00    -0.284 NA
HETATM   15  H   UNL     1      27.002  45.638  52.798  1.00  0.00     0.128 HD
BRANCH  14  16
HETATM   16  C   UNL     1      28.213  44.324  53.694  1.00  0.00     0.009 A 
HETATM   17  C   UNL     1      28.483  45.107  54.824  1.00  0.00     0.035 A 
HETATM   18  C   UNL     1      29.514  44.786  55.729  1.00  0.00    -0.024 A 
HETATM   19  C   UNL     1      30.319  43.654  55.488  1.00  0.00    -0.026 A 
HETATM   20  C   UNL     1      29.760  45.573  56.867  1.00  0.00     0.012 A 
HETATM   21  C   UNL     1      30.082  42.889  54.339  1.00  0.00     0.014 A 
HETATM   22  C   UNL     1      31.343  43.332  56.394  1.00  0.00     0.012 A 
HETATM   23  C   UNL     1      29.056  43.233  53.450  1.00  0.00     0.024 A 
HETATM   24  C   UNL     1      31.572  44.121  57.522  1.00  0.00     0.001 A 
HETATM   25  C   UNL     1      30.782  45.243  57.757  1.00  0.00     0.001 A 
ENDBRANCH  14  16
ENDBRANCH   1  14
TORSDOF 5
ENDMDL
MODEL 6
REMARK VINA RESULT:      -8.2      4.836      7.243
REMARK  5 active torsions:
REMARK  status: ('A' for Active; 'I' for Inactive)
REMARK    1  A    between atoms: O_2  and  C_3 
REMARK    2  A    between atoms: C_4  and  N_5 
REMARK       I    between atoms: N_5  and  C_6 
REMARK    3  A    between atoms: C_6  and  C_7 
REMARK    4  A    between atoms: C_7  and  N_8 
REMARK    5  A    between atoms: N_8  and  C_9 
ROOT
HETATM    1  C   UNL     1      27.514  42.013  52.692  1.00  0.00     0.195 C 
ENDROOT
BRANCH   1   2
HETATM    2  C   UNL     1      27.188  41.294  51.375  1.00  0.00     0.235 C 
HETATM    3  N   UNL     1      28.144  40.364  51.023  1.00  0.00    -0.324 N 
HETATM    4  H   UNL     1      28.923  40.261  51.673  1.00  0.00     0.169 HD
HETATM    5  O   UNL     1      26.144  41.529  50.773  1.00  0.00    -0.272 OA
BRANCH   3   6
HETATM    6  C   UNL     1      28.239  39.608  49.838  1.00  0.00     0.068 A 
HETATM    7  C   UNL     1      29.158  38.542  49.819  1.00  0.00     0.095 A 
HETATM    8  C   UNL     1      29.357  37.805  48.648  1.00  0.00     0.039 A 
HETATM    9  C   UNL     1      28.619  38.104  47.503  1.00  0.00     0.003 A 
HETATM   10  C   UNL     1      27.684  39.137  47.527  1.00  0.00     0.002 A 
HETATM   11  C   UNL     1      27.494  39.887  48.691  1.00  0.00     0.032 A 
BRANCH   7  12
HETATM   12  O   UNL     1      29.851  38.294  50.983  1.00  0.00    -0.354 OA
HETATM   13  C   UNL     1      29.837  36.924  51.376  1.00  0.00     0.210 C 
ENDBRANCH   7  12
ENDBRANCH   3   6
ENDBRANCH   1   2
BRANCH   1  14
HETATM   14  N   UNL     1      28.621  42.983  52.565  1.00  0.00    -0.284 NA
HETATM   15  H   UNL     1      29.422  42.565  52.093  1.00  0.00     0.128 HD
BRANCH  14  16
HETATM   16  C   UNL     1      29.049  43.667  53.719  1.00  0.00     0.009 A 
HETATM   17  C   UNL     1      30.030  43.184  54.595  1.00  0.00     0.035 A 
HETATM   18  C   UNL     1      30.374  43.861  55.781  1.00  0.00    -0.024 A 
HETATM   19  C   UNL     1      29.698  45.053  56.118  1.00  0.00    -0.026 A 
HETATM   20  C   UNL     1      31.372  43.373  56.640  1.00  0.00     0.012 A 
HETATM   21  C   UNL     1      28.687  45.520  55.269  1.00  0.00     0.014 A 
HETATM   22  C   UNL     1      30.045  45.729  57.300  1.00  0.00     0.012 A 
HETATM   23  C   UNL     1      28.359  44.825  54.099  1.00  0.00     0.024 A 
HETATM   24  C   UNL     1      31.044  45.233  58.140  1.00  0.00     0.001 A 
HETATM   25  C   UNL     1      31.705  44.054  57.811  1.00  0.00     0.001 A 
ENDBRANCH  14  16
ENDBRANCH   1  14
TORSDOF 5
ENDMDL
MODEL 7
REMARK VINA RESULT:      -8.2      1.686      2.581
REMARK  5 active torsions:
REMARK  status: ('A' for Active; 'I' for Inactive)
REMARK    1  A    between atoms: O_2  and  C_3 
REMARK    2  A    between atoms: C_4  and  N_5 
REMARK       I    between atoms: N_5  and  C_6 
REMARK    3  A    between atoms: C_6  and  C_7 
REMARK    4  A    between atoms: C_7  and  N_8 
REMARK    5  A    between atoms: N_8  and  C_9 
ROOT
HETATM    1  C   UNL     1      25.080  46.037  51.017  1.00  0.00     0.195 C 
ENDROOT
BRANCH   1   2
HETATM    2  C   UNL     1      24.836  47.391  50.335  1.00  0.00     0.235 C 
HETATM    3  N   UNL     1      23.513  47.589  49.996  1.00  0.00    -0.324 N 
HETATM    4  H   UNL     1      22.874  46.835  50.248  1.00  0.00     0.169 HD
HETATM    5  O   UNL     1      25.754  48.192  50.183  1.00  0.00    -0.272 OA
BRANCH   3   6
HETATM    6  C   UNL     1      22.944  48.648  49.262  1.00  0.00     0.068 A 
HETATM    7  C   UNL     1      21.732  48.395  48.591  1.00  0.00     0.095 A 
HETATM    8  C   UNL     1      21.159  49.380  47.780  1.00  0.00     0.039 A 
HETATM    9  C   UNL     1      21.769  50.628  47.662  1.00  0.00     0.003 A 
HETATM   10  C   UNL     1      22.952  50.892  48.350  1.00  0.00     0.002 A 
HETATM   11  C   UNL     1      23.537  49.906  49.149  1.00  0.00     0.032 A 
BRANCH   7  12
HETATM   12  O   UNL     1      21.177  47.146  48.754  1.00  0.00    -0.354 OA
HETATM   13  C   UNL     1      19.752  47.146  48.729  1.00  0.00     0.210 C 
ENDBRANCH   7  12
ENDBRANCH   3   6
ENDBRANCH   1   2
BRANCH   1  14
HETATM   14  N   UNL     1      25.487  46.165  52.431  1.00  0.00    -0.284 NA
HETATM   15  H   UNL     1      25.628  47.141  52.686  1.00  0.00     0.128 HD
BRANCH  14  16
HETATM   16  C   UNL     1      26.569  45.389  52.889  1.00  0.00     0.009 A 
HETATM   17  C   UNL     1      27.323  45.697  54.030  1.00  0.00     0.035 A 
HETATM   18  C   UNL     1      28.447  44.939  54.411  1.00  0.00    -0.024 A 
HETATM   19  C   UNL     1      28.849  43.848  53.614  1.00  0.00    -0.026 A 
HETATM   20  C   UNL     1      29.182  45.251  55.567  1.00  0.00     0.012 A 
HETATM   21  C   UNL     1      28.127  43.559  52.449  1.00  0.00     0.014 A 
HETATM   22  C   UNL     1      29.969  43.091  53.997  1.00  0.00     0.012 A 
HETATM   23  C   UNL     1      27.016  44.332  52.088  1.00  0.00     0.024 A 
HETATM   24  C   UNL     1      30.685  43.410  55.152  1.00  0.00     0.001 A 
HETATM   25  C   UNL     1      30.293  44.492  55.935  1.00  0.00     0.001 A 
ENDBRANCH  14  16
ENDBRANCH   1  14
TORSDOF 5
ENDMDL
MODEL 8
REMARK VINA RESULT:      -8.2      1.939      2.652
REMARK  5 active torsions:
REMARK  status: ('A' for Active; 'I' for Inactive)
REMARK    1  A    between atoms: O_2  and  C_3 
REMARK    2  A    between atoms: C_4  and  N_5 
REMARK       I    between atoms: N_5  and  C_6 
REMARK    3  A    between atoms: C_6  and  C_7 
REMARK    4  A    between atoms: C_7  and  N_8 
REMARK    5  A    between atoms: N_8  and  C_9 
ROOT
HETATM    1  C   UNL     1      26.075  47.044  51.996  1.00  0.00     0.195 C 
ENDROOT
BRANCH   1   2
HETATM    2  C   UNL     1      24.911  46.557  51.122  1.00  0.00     0.235 C 
HETATM    3  N   UNL     1      24.530  47.483  50.174  1.00  0.00    -0.324 N 
HETATM    4  H   UNL     1      25.066  48.351  50.162  1.00  0.00     0.169 HD
HETATM    5  O   UNL     1      24.446  45.429  51.266  1.00  0.00    -0.272 OA
BRANCH   3   6
HETATM    6  C   UNL     1      23.437  47.433  49.286  1.00  0.00     0.068 A 
HETATM    7  C   UNL     1      22.688  48.611  49.109  1.00  0.00     0.095 A 
HETATM    8  C   UNL     1      21.545  48.605  48.304  1.00  0.00     0.039 A 
HETATM    9  C   UNL     1      21.164  47.436  47.645  1.00  0.00     0.003 A 
HETATM   10  C   UNL     1      21.921  46.276  47.791  1.00  0.00     0.002 A 
HETATM   11  C   UNL     1      23.055  46.274  48.608  1.00  0.00     0.032 A 
BRANCH   7  12
HETATM   12  O   UNL     1      23.120  49.732  49.781  1.00  0.00    -0.354 OA
HETATM   13  C   UNL     1      22.169  50.794  49.794  1.00  0.00     0.210 C 
ENDBRANCH   7  12
ENDBRANCH   3   6
ENDBRANCH   1   2
BRANCH   1  14
HETATM   14  N   UNL     1      26.008  46.543  53.384  1.00  0.00    -0.284 NA
HETATM   15  H   UNL     1      25.869  47.307  54.044  1.00  0.00     0.128 HD
BRANCH  14  16
HETATM   16  C   UNL     1      27.035  45.696  53.841  1.00  0.00     0.009 A 
HETATM   17  C   UNL     1      27.886  46.006  54.911  1.00  0.00     0.035 A 
HETATM   18  C   UNL     1      28.953  45.167  55.287  1.00  0.00    -0.024 A 
HETATM   19  C   UNL     1      29.195  43.985  54.556  1.00  0.00    -0.026 A 
HETATM   20  C   UNL     1      29.786  45.485  56.373  1.00  0.00     0.012 A 
HETATM   21  C   UNL     1      28.375  43.689  53.460  1.00  0.00     0.014 A 
HETATM   22  C   UNL     1      30.257  43.148  54.935  1.00  0.00     0.012 A 
HETATM   23  C   UNL     1      27.325  44.543  53.101  1.00  0.00     0.024 A 
HETATM   24  C   UNL     1      31.072  43.474  56.020  1.00  0.00     0.001 A 
HETATM   25  C   UNL     1      30.838  44.644  56.737  1.00  0.00     0.001 A 
ENDBRANCH  14  16
ENDBRANCH   1  14
TORSDOF 5
ENDMDL
MODEL 9
REMARK VINA RESULT:      -8.0      4.781      7.210
REMARK  5 active torsions:
REMARK  status: ('A' for Active; 'I' for Inactive)
REMARK    1  A    between atoms: O_2  and  C_3 
REMARK    2  A    between atoms: C_4  and  N_5 
REMARK       I    between atoms: N_5  and  C_6 
REMARK    3  A    between atoms: C_6  and  C_7 
REMARK    4  A    between atoms: C_7  and  N_8 
REMARK    5  A    between atoms: N_8  and  C_9 
ROOT
HETATM    1  C   UNL     1      28.825  41.560  51.949  1.00  0.00     0.195 C 
ENDROOT
BRANCH   1   2
HETATM    2  C   UNL     1      27.896  40.670  51.112  1.00  0.00     0.235 C 
HETATM    3  N   UNL     1      28.561  39.624  50.506  1.00  0.00    -0.324 N 
HETATM    4  H   UNL     1      29.561  39.565  50.696  1.00  0.00     0.169 HD
HETATM    5  O   UNL     1      26.688  40.887  51.068  1.00  0.00    -0.272 OA
BRANCH   3   6
HETATM    6  C   UNL     1      28.064  38.686  49.580  1.00  0.00     0.068 A 
HETATM    7  C   UNL     1      28.184  38.996  48.212  1.00  0.00     0.095 A 
HETATM    8  C   UNL     1      27.639  38.143  47.247  1.00  0.00     0.039 A 
HETATM    9  C   UNL     1      27.004  36.964  47.637  1.00  0.00     0.003 A 
HETATM   10  C   UNL     1      26.912  36.638  48.989  1.00  0.00     0.002 A 
HETATM   11  C   UNL     1      27.441  37.495  49.958  1.00  0.00     0.032 A 
BRANCH   7  12
HETATM   12  O   UNL     1      28.827  40.170  47.892  1.00  0.00    -0.354 OA
HETATM   13  C   UNL     1      28.019  41.080  47.149  1.00  0.00     0.210 C 
ENDBRANCH   7  12
ENDBRANCH   3   6
ENDBRANCH   1   2
BRANCH   1  14
HETATM   14  N   UNL     1      28.216  42.857  52.310  1.00  0.00    -0.284 NA
HETATM   15  H   UNL     1      28.190  43.486  51.508  1.00  0.00     0.128 HD
BRANCH  14  16
HETATM   16  C   UNL     1      28.710  43.538  53.438  1.00  0.00     0.009 A 
HETATM   17  C   UNL     1      29.728  43.044  54.266  1.00  0.00     0.035 A 
HETATM   18  C   UNL     1      30.140  43.720  55.431  1.00  0.00    -0.024 A 
HETATM   19  C   UNL     1      29.500  44.922  55.797  1.00  0.00    -0.026 A 
HETATM   20  C   UNL     1      31.174  43.219  56.240  1.00  0.00     0.012 A 
HETATM   21  C   UNL     1      28.454  45.401  54.998  1.00  0.00     0.014 A 
HETATM   22  C   UNL     1      29.915  45.597  56.957  1.00  0.00     0.012 A 
HETATM   23  C   UNL     1      28.058  44.707  53.848  1.00  0.00     0.024 A 
HETATM   24  C   UNL     1      30.948  45.089  57.748  1.00  0.00     0.001 A 
HETATM   25  C   UNL     1      31.574  43.899  57.390  1.00  0.00     0.001 A 
ENDBRANCH  14  16
ENDBRANCH   1  14
TORSDOF 5
ENDMDL
MODEL 10
REMARK VINA RESULT:      -8.0      3.794      5.266
REMARK  5 active torsions:
REMARK  status: ('A' for Active; 'I' for Inactive)
REMARK    1  A    between atoms: O_2  and  C_3 
REMARK    2  A    between atoms: C_4  and  N_5 
REMARK       I    between atoms: N_5  and  C_6 
REMARK    3  A    between atoms: C_6  and  C_7 
REMARK    4  A    between atoms: C_7  and  N_8 
REMARK    5  A    between atoms: N_8  and  C_9 
ROOT
HETATM    1  C   UNL     1      25.905  44.274  53.150  1.00  0.00     0.195 C 
ENDROOT
BRANCH   1   2
HETATM    2  C   UNL     1      25.162  43.725  51.924  1.00  0.00     0.235 C 
HETATM    3  N   UNL     1      25.732  42.571  51.427  1.00  0.00    -0.324 N 
HETATM    4  H   UNL     1      26.548  42.226  51.932  1.00  0.00     0.169 HD
HETATM    5  O   UNL     1      24.143  44.270  51.509  1.00  0.00    -0.272 OA
BRANCH   3   6
HETATM    6  C   UNL     1      25.399  41.860  50.257  1.00  0.00     0.068 A 
HETATM    7  C   UNL     1      26.318  40.898  49.797  1.00  0.00     0.095 A 
HETATM    8  C   UNL     1      26.082  40.216  48.599  1.00  0.00     0.039 A 
HETATM    9  C   UNL     1      24.918  40.465  47.873  1.00  0.00     0.003 A 
HETATM   10  C   UNL     1      23.991  41.393  48.341  1.00  0.00     0.002 A 
HETATM   11  C   UNL     1      24.229  42.088  49.530  1.00  0.00     0.032 A 
BRANCH   7  12
HETATM   12  O   UNL     1      27.444  40.694  50.562  1.00  0.00    -0.354 OA
HETATM   13  C   UNL     1      28.261  39.620  50.103  1.00  0.00     0.210 C 
ENDBRANCH   7  12
ENDBRANCH   3   6
ENDBRANCH   1   2
BRANCH   1  14
HETATM   14  N   UNL     1      27.307  44.637  52.865  1.00  0.00    -0.284 NA
HETATM   15  H   UNL     1      27.609  44.259  51.968  1.00  0.00     0.128 HD
BRANCH  14  16
HETATM   16  C   UNL     1      28.281  44.375  53.847  1.00  0.00     0.009 A 
HETATM   17  C   UNL     1      28.483  45.175  54.980  1.00  0.00     0.035 A 
HETATM   18  C   UNL     1      29.520  44.923  55.900  1.00  0.00    -0.024 A 
HETATM   19  C   UNL     1      30.402  43.847  55.670  1.00  0.00    -0.026 A 
HETATM   20  C   UNL     1      29.698  45.725  57.039  1.00  0.00     0.012 A 
HETATM   21  C   UNL     1      30.232  43.067  54.519  1.00  0.00     0.014 A 
HETATM   22  C   UNL     1      31.433  43.595  56.591  1.00  0.00     0.012 A 
HETATM   23  C   UNL     1      29.198  43.343  53.616  1.00  0.00     0.024 A 
HETATM   24  C   UNL     1      31.594  44.397  57.721  1.00  0.00     0.001 A 
HETATM   25  C   UNL     1      30.728  45.464  57.943  1.00  0.00     0.001 A 
ENDBRANCH  14  16
ENDBRANCH   1  14
TORSDOF 5
ENDMDL
