MODEL 1
REMARK VINA RESULT:     -10.6      0.000      0.000
REMARK  6 active torsions:
REMARK  status: ('A' for Active; 'I' for Inactive)
REMARK    1  A    between atoms: O_2  and  C_3 
REMARK    2  A    between atoms: C_5  and  N_6 
REMARK    3  A    between atoms: C_8  and  C_9 
REMARK    4  A    between atoms: C_9  and  N_10 
REMARK       I    between atoms: N_10  and  C_11 
REMARK       I    between atoms: C_11  and  N_12 
REMARK    5  A    between atoms: N_12  and  C_13 
REMARK    6  A    between atoms: C_13  and  C_14 
ROOT
HETATM    1  N   UNL     1      25.365  42.513  51.459  1.00  0.00    -0.343 N 
HETATM    2  C   UNL     1      26.731  42.617  51.493  1.00  0.00     0.316 C 
HETATM    3  N   UNL     1      27.244  42.112  52.655  1.00  0.00    -0.339 N 
HETATM    4  O   UNL     1      27.401  43.118  50.600  1.00  0.00    -0.248 OA
HETATM    5  H   UNL     1      24.902  42.343  52.339  1.00  0.00     0.164 HD
HETATM    6  H   UNL     1      26.683  41.443  53.157  1.00  0.00     0.164 HD
ENDROOT
BRANCH   1   7
HETATM    7  C   UNL     1      24.578  43.080  50.379  1.00  0.00     0.130 C 
BRANCH   7   8
HETATM    8  C   UNL     1      24.395  44.585  50.535  1.00  0.00     0.023 C 
HETATM    9  C   UNL     1      25.251  45.387  49.547  1.00  0.00     0.129 C 
HETATM   10  N   UNL     1      25.393  46.694  50.189  1.00  0.00    -0.380 N 
HETATM   11  C   UNL     1      24.966  46.644  51.587  1.00  0.00     0.123 C 
HETATM   12  C   UNL     1      24.841  45.151  51.880  1.00  0.00     0.028 C 
BRANCH  10  13
HETATM   13  C   UNL     1      25.680  47.859  49.514  1.00  0.00     0.032 A 
HETATM   14  C   UNL     1      24.703  48.543  48.765  1.00  0.00     0.066 A 
HETATM   15  C   UNL     1      24.985  49.737  48.086  1.00  0.00     0.070 A 
HETATM   16  C   UNL     1      26.268  50.272  48.148  1.00  0.00     0.037 A 
HETATM   17  C   UNL     1      27.262  49.616  48.864  1.00  0.00     0.005 A 
HETATM   18  C   UNL     1      26.967  48.422  49.529  1.00  0.00     0.029 A 
BRANCH  15  19
HETATM   19  O   UNL     1      24.100  50.467  47.339  1.00  0.00    -0.356 OA
HETATM   20  C   UNL     1      22.729  50.388  47.706  1.00  0.00     0.210 C 
ENDBRANCH  15  19
ENDBRANCH  10  13
ENDBRANCH   7   8
ENDBRANCH   1   7
BRANCH   3  21
HETATM   21  C   UNL     1      28.668  42.087  52.907  1.00  0.00     0.162 C 
BRANCH  21  22
HETATM   22  C   UNL     1      29.056  43.074  53.980  1.00  0.00    -0.040 A 
HETATM   23  C   UNL     1      30.047  42.756  54.919  1.00  0.00     0.021 A 
HETATM   24  C   UNL     1      30.404  43.657  55.938  1.00  0.00    -0.025 A 
HETATM   25  C   UNL     1      29.754  44.910  56.013  1.00  0.00    -0.026 A 
HETATM   26  C   UNL     1      31.390  43.339  56.888  1.00  0.00     0.012 A 
HETATM   27  C   UNL     1      28.762  45.224  55.071  1.00  0.00     0.013 A 
HETATM   28  C   UNL     1      30.109  45.809  57.031  1.00  0.00     0.012 A 
HETATM   29  C   UNL     1      28.413  44.315  54.071  1.00  0.00     0.010 A 
HETATM   30  C   UNL     1      31.090  45.476  57.967  1.00  0.00     0.001 A 
HETATM   31  C   UNL     1      31.729  44.243  57.896  1.00  0.00     0.001 A 
ENDBRANCH  21  22
ENDBRANCH   3  21
TORSDOF 6
ENDMDL
MODEL 2
REMARK VINA RESULT:     -10.4      2.345      4.294
REMARK  6 active torsions:
REMARK  status: ('A' for Active; 'I' for Inactive)
REMARK    1  A    between atoms: O_2  and  C_3 
REMARK    2  A    between atoms: C_5  and  N_6 
REMARK    3  A    between atoms: C_8  and  C_9 
REMARK    4  A    between atoms: C_9  and  N_10 
REMARK       I    between atoms: N_10  and  C_11 
REMARK       I    between atoms: C_11  and  N_12 
REMARK    5  A    between atoms: N_12  and  C_13 
REMARK    6  A    between atoms: C_13  and  C_14 
ROOT
HETATM    1  N   UNL     1      26.201  46.931  50.382  1.00  0.00    -0.343 N 
HETATM    2  C   UNL     1      26.709  45.661  50.442  1.00  0.00     0.316 C 
HETATM    3  N   UNL     1      26.277  45.000  51.558  1.00  0.00    -0.339 N 
HETATM    4  O   UNL     1      27.470  45.188  49.609  1.00  0.00    -0.248 OA
HETATM    5  H   UNL     1      25.817  47.307  51.236  1.00  0.00     0.164 HD
HETATM    6  H   UNL     1      25.425  45.324  51.988  1.00  0.00     0.164 HD
ENDROOT
BRANCH   1   7
HETATM    7  C   UNL     1      26.601  47.871  49.350  1.00  0.00     0.130 C 
BRANCH   7   8
HETATM    8  C   UNL     1      25.629  49.040  49.235  1.00  0.00     0.023 C 
HETATM    9  C   UNL     1      24.164  48.591  49.251  1.00  0.00     0.129 C 
HETATM   10  N   UNL     1      23.456  49.683  48.584  1.00  0.00    -0.380 N 
HETATM   11  C   UNL     1      24.391  50.584  47.910  1.00  0.00     0.123 C 
HETATM   12  C   UNL     1      25.713  49.820  47.926  1.00  0.00     0.028 C 
BRANCH  10  13
HETATM   13  C   UNL     1      22.115  49.951  48.749  1.00  0.00     0.032 A 
HETATM   14  C   UNL     1      21.225  48.988  49.262  1.00  0.00     0.066 A 
HETATM   15  C   UNL     1      19.861  49.257  49.446  1.00  0.00     0.070 A 
HETATM   16  C   UNL     1      19.362  50.513  49.115  1.00  0.00     0.037 A 
HETATM   17  C   UNL     1      20.208  51.483  48.590  1.00  0.00     0.005 A 
HETATM   18  C   UNL     1      21.564  51.196  48.406  1.00  0.00     0.029 A 
BRANCH  15  19
HETATM   19  O   UNL     1      18.927  48.386  49.938  1.00  0.00    -0.356 OA
HETATM   20  C   UNL     1      18.526  48.569  51.289  1.00  0.00     0.210 C 
ENDBRANCH  15  19
ENDBRANCH  10  13
ENDBRANCH   7   8
ENDBRANCH   1   7
BRANCH   3  21
HETATM   21  C   UNL     1      26.660  43.630  51.824  1.00  0.00     0.162 C 
BRANCH  21  22
HETATM   22  C   UNL     1      27.777  43.556  52.835  1.00  0.00    -0.040 A 
HETATM   23  C   UNL     1      27.901  44.531  53.835  1.00  0.00     0.021 A 
HETATM   24  C   UNL     1      28.951  44.488  54.771  1.00  0.00    -0.025 A 
HETATM   25  C   UNL     1      29.895  43.439  54.704  1.00  0.00    -0.026 A 
HETATM   26  C   UNL     1      29.084  45.468  55.769  1.00  0.00     0.012 A 
HETATM   27  C   UNL     1      29.768  42.466  53.700  1.00  0.00     0.013 A 
HETATM   28  C   UNL     1      30.943  43.397  55.636  1.00  0.00     0.012 A 
HETATM   29  C   UNL     1      28.725  42.528  52.773  1.00  0.00     0.010 A 
HETATM   30  C   UNL     1      31.062  44.379  56.621  1.00  0.00     0.001 A 
HETATM   31  C   UNL     1      30.134  45.414  56.687  1.00  0.00     0.001 A 
ENDBRANCH  21  22
ENDBRANCH   3  21
TORSDOF 6
ENDMDL
MODEL 3
REMARK VINA RESULT:     -10.2      2.919      4.882
REMARK  6 active torsions:
REMARK  status: ('A' for Active; 'I' for Inactive)
REMARK    1  A    between atoms: O_2  and  C_3 
REMARK    2  A    between atoms: C_5  and  N_6 
REMARK    3  A    between atoms: C_8  and  C_9 
REMARK    4  A    between atoms: C_9  and  N_10 
REMARK       I    between atoms: N_10  and  C_11 
REMARK       I    between atoms: C_11  and  N_12 
REMARK    5  A    between atoms: N_12  and  C_13 
REMARK    6  A    between atoms: C_13  and  C_14 
ROOT
HETATM    1  N   UNL     1      24.350  46.470  50.837  1.00  0.00    -0.343 N 
HETATM    2  C   UNL     1      25.354  47.077  51.542  1.00  0.00     0.316 C 
HETATM    3  N   UNL     1      25.397  46.635  52.836  1.00  0.00    -0.339 N 
HETATM    4  O   UNL     1      26.105  47.922  51.075  1.00  0.00    -0.248 OA
HETATM    5  H   UNL     1      23.634  46.006  51.375  1.00  0.00     0.164 HD
HETATM    6  H   UNL     1      24.987  45.736  53.032  1.00  0.00     0.164 HD
ENDROOT
BRANCH   1   7
HETATM    7  C   UNL     1      24.030  46.851  49.473  1.00  0.00     0.130 C 
BRANCH   7   8
HETATM    8  C   UNL     1      23.494  48.276  49.390  1.00  0.00     0.023 C 
HETATM    9  C   UNL     1      22.089  48.342  48.782  1.00  0.00     0.129 C 
HETATM   10  N   UNL     1      21.993  49.709  48.270  1.00  0.00    -0.380 N 
HETATM   11  C   UNL     1      23.305  50.356  48.244  1.00  0.00     0.123 C 
HETATM   12  C   UNL     1      24.285  49.208  48.475  1.00  0.00     0.028 C 
BRANCH  10  13
HETATM   13  C   UNL     1      20.806  50.371  48.049  1.00  0.00     0.032 A 
HETATM   14  C   UNL     1      19.792  49.825  47.238  1.00  0.00     0.066 A 
HETATM   15  C   UNL     1      18.576  50.487  47.019  1.00  0.00     0.070 A 
HETATM   16  C   UNL     1      18.352  51.722  47.619  1.00  0.00     0.037 A 
HETATM   17  C   UNL     1      19.336  52.299  48.413  1.00  0.00     0.005 A 
HETATM   18  C   UNL     1      20.547  51.630  48.615  1.00  0.00     0.029 A 
BRANCH  15  19
HETATM   19  O   UNL     1      17.539  50.032  46.250  1.00  0.00    -0.356 OA
HETATM   20  C   UNL     1      16.848  50.996  45.466  1.00  0.00     0.210 C 
ENDBRANCH  15  19
ENDBRANCH  10  13
ENDBRANCH   7   8
ENDBRANCH   1   7
BRANCH   3  21
HETATM   21  C   UNL     1      26.394  47.114  53.769  1.00  0.00     0.162 C 
BRANCH  21  22
HETATM   22  C   UNL     1      27.384  46.033  54.121  1.00  0.00    -0.040 A 
HETATM   23  C   UNL     1      28.286  46.209  55.181  1.00  0.00     0.021 A 
HETATM   24  C   UNL     1      29.231  45.219  55.508  1.00  0.00    -0.025 A 
HETATM   25  C   UNL     1      29.268  44.023  54.756  1.00  0.00    -0.026 A 
HETATM   26  C   UNL     1      30.142  45.394  56.562  1.00  0.00     0.012 A 
HETATM   27  C   UNL     1      28.364  43.852  53.695  1.00  0.00     0.013 A 
HETATM   28  C   UNL     1      30.212  43.036  55.080  1.00  0.00     0.012 A 
HETATM   29  C   UNL     1      27.438  44.848  53.378  1.00  0.00     0.010 A 
HETATM   30  C   UNL     1      31.111  43.227  56.131  1.00  0.00     0.001 A 
HETATM   31  C   UNL     1      31.077  44.405  56.871  1.00  0.00     0.001 A 
ENDBRANCH  21  22
ENDBRANCH   3  21
TORSDOF 6
ENDMDL
MODEL 4
REMARK VINA RESULT:     -10.2      2.246      3.549
REMARK  6 active torsions:
REMARK  status: ('A' for Active; 'I' for Inactive)
REMARK    1  A    between atoms: O_2  and  C_3 
REMARK    2  A    between atoms: C_5  and  N_6 
REMARK    3  A    between atoms: C_8  and  C_9 
REMARK    4  A    between atoms: C_9  and  N_10 
REMARK       I    between atoms: N_10  and  C_11 
REMARK       I    between atoms: C_11  and  N_12 
REMARK    5  A    between atoms: N_12  and  C_13 
REMARK    6  A    between atoms: C_13  and  C_14 
ROOT
HETATM    1  N   UNL     1      25.379  45.289  50.715  1.00  0.00    -0.343 N 
HETATM    2  C   UNL     1      26.626  44.727  50.802  1.00  0.00     0.316 C 
HETATM    3  N   UNL     1      26.931  44.381  52.089  1.00  0.00    -0.339 N 
HETATM    4  O   UNL     1      27.376  44.574  49.848  1.00  0.00    -0.248 OA
HETATM    5  H   UNL     1      24.967  45.614  51.576  1.00  0.00     0.164 HD
HETATM    6  H   UNL     1      26.162  44.234  52.724  1.00  0.00     0.164 HD
ENDROOT
BRANCH   1   7
HETATM    7  C   UNL     1      24.870  45.841  49.472  1.00  0.00     0.130 C 
BRANCH   7   8
HETATM    8  C   UNL     1      24.280  47.232  49.665  1.00  0.00     0.023 C 
HETATM    9  C   UNL     1      23.036  47.469  48.801  1.00  0.00     0.129 C 
HETATM   10  N   UNL     1      22.970  48.925  48.676  1.00  0.00    -0.380 N 
HETATM   11  C   UNL     1      24.215  49.551  49.121  1.00  0.00     0.123 C 
HETATM   12  C   UNL     1      25.190  48.382  49.241  1.00  0.00     0.028 C 
BRANCH  10  13
HETATM   13  C   UNL     1      21.819  49.625  48.386  1.00  0.00     0.032 A 
HETATM   14  C   UNL     1      20.773  49.053  47.636  1.00  0.00     0.066 A 
HETATM   15  C   UNL     1      19.594  49.754  47.348  1.00  0.00     0.070 A 
HETATM   16  C   UNL     1      19.442  51.057  47.814  1.00  0.00     0.037 A 
HETATM   17  C   UNL     1      20.460  51.659  48.543  1.00  0.00     0.005 A 
HETATM   18  C   UNL     1      21.633  50.949  48.816  1.00  0.00     0.029 A 
BRANCH  15  19
HETATM   19  O   UNL     1      18.529  49.280  46.631  1.00  0.00    -0.356 OA
HETATM   20  C   UNL     1      17.295  49.970  46.777  1.00  0.00     0.210 C 
ENDBRANCH  15  19
ENDBRANCH  10  13
ENDBRANCH   7   8
ENDBRANCH   1   7
BRANCH   3  21
HETATM   21  C   UNL     1      28.186  43.744  52.426  1.00  0.00     0.162 C 
BRANCH  21  22
HETATM   22  C   UNL     1      28.719  44.239  53.747  1.00  0.00    -0.040 A 
HETATM   23  C   UNL     1      29.745  43.549  54.407  1.00  0.00     0.021 A 
HETATM   24  C   UNL     1      30.237  43.986  55.650  1.00  0.00    -0.025 A 
HETATM   25  C   UNL     1      29.690  45.146  56.242  1.00  0.00    -0.026 A 
HETATM   26  C   UNL     1      31.259  43.291  56.320  1.00  0.00     0.012 A 
HETATM   27  C   UNL     1      28.661  45.833  55.579  1.00  0.00     0.013 A 
HETATM   28  C   UNL     1      30.179  45.581  57.484  1.00  0.00     0.012 A 
HETATM   29  C   UNL     1      28.178  45.382  54.349  1.00  0.00     0.010 A 
HETATM   30  C   UNL     1      31.194  44.879  58.136  1.00  0.00     0.001 A 
HETATM   31  C   UNL     1      31.733  43.735  57.555  1.00  0.00     0.001 A 
ENDBRANCH  21  22
ENDBRANCH   3  21
TORSDOF 6
ENDMDL
MODEL 5
REMARK VINA RESULT:     -10.1      2.530      4.141
REMARK  6 active torsions:
REMARK  status: ('A' for Active; 'I' for Inactive)
REMARK    1  A    between atoms: O_2  and  C_3 
REMARK    2  A    between atoms: C_5  and  N_6 
REMARK    3  A    between atoms: C_8  and  C_9 
REMARK    4  A    between atoms: C_9  and  N_10 
REMARK       I    between atoms: N_10  and  C_11 
REMARK       I    between atoms: C_11  and  N_12 
REMARK    5  A    between atoms: N_12  and  C_13 
REMARK    6  A    between atoms: C_13  and  C_14 
ROOT
HETATM    1  N   UNL     1      25.108  46.394  50.870  1.00  0.00    -0.343 N 
HETATM    2  C   UNL     1      26.047  45.400  50.957  1.00  0.00     0.316 C 
HETATM    3  N   UNL     1      26.517  45.264  52.234  1.00  0.00    -0.339 N 
HETATM    4  O   UNL     1      26.428  44.733  50.004  1.00  0.00    -0.248 OA
HETATM    5  H   UNL     1      25.069  47.049  51.635  1.00  0.00     0.164 HD
HETATM    6  H   UNL     1      25.932  45.601  52.981  1.00  0.00     0.164 HD
ENDROOT
BRANCH   1   7
HETATM    7  C   UNL     1      24.540  46.806  49.598  1.00  0.00     0.130 C 
BRANCH   7   8
HETATM    8  C   UNL     1      23.980  48.222  49.656  1.00  0.00     0.023 C 
HETATM    9  C   UNL     1      22.548  48.311  49.116  1.00  0.00     0.129 C 
HETATM   10  N   UNL     1      22.410  49.713  48.723  1.00  0.00    -0.380 N 
HETATM   11  C   UNL     1      23.709  50.385  48.695  1.00  0.00     0.123 C 
HETATM   12  C   UNL     1      24.715  49.240  48.789  1.00  0.00     0.028 C 
BRANCH  10  13
HETATM   13  C   UNL     1      21.203  50.368  48.609  1.00  0.00     0.032 A 
HETATM   14  C   UNL     1      20.447  50.327  47.421  1.00  0.00     0.066 A 
HETATM   15  C   UNL     1      19.213  50.981  47.301  1.00  0.00     0.070 A 
HETATM   16  C   UNL     1      18.709  51.694  48.385  1.00  0.00     0.037 A 
HETATM   17  C   UNL     1      19.436  51.770  49.567  1.00  0.00     0.005 A 
HETATM   18  C   UNL     1      20.669  51.120  49.668  1.00  0.00     0.029 A 
BRANCH  15  19
HETATM   19  O   UNL     1      18.413  50.993  46.191  1.00  0.00    -0.356 OA
HETATM   20  C   UNL     1      17.503  52.078  46.065  1.00  0.00     0.210 C 
ENDBRANCH  15  19
ENDBRANCH  10  13
ENDBRANCH   7   8
ENDBRANCH   1   7
BRANCH   3  21
HETATM   21  C   UNL     1      27.499  44.259  52.577  1.00  0.00     0.162 C 
BRANCH  21  22
HETATM   22  C   UNL     1      28.234  44.616  53.845  1.00  0.00    -0.040 A 
HETATM   23  C   UNL     1      29.265  43.797  54.328  1.00  0.00     0.021 A 
HETATM   24  C   UNL     1      29.945  44.105  55.520  1.00  0.00    -0.025 A 
HETATM   25  C   UNL     1      29.585  45.265  56.242  1.00  0.00    -0.026 A 
HETATM   26  C   UNL     1      30.972  43.282  56.012  1.00  0.00     0.012 A 
HETATM   27  C   UNL     1      28.551  46.081  55.756  1.00  0.00     0.013 A 
HETATM   28  C   UNL     1      30.262  45.571  57.433  1.00  0.00     0.012 A 
HETATM   29  C   UNL     1      27.881  45.757  54.575  1.00  0.00     0.010 A 
HETATM   30  C   UNL     1      31.280  44.743  57.908  1.00  0.00     0.001 A 
HETATM   31  C   UNL     1      31.634  43.599  57.199  1.00  0.00     0.001 A 
ENDBRANCH  21  22
ENDBRANCH   3  21
TORSDOF 6
ENDMDL
MODEL 6
REMARK VINA RESULT:     -10.0      1.808      2.400
REMARK  6 active torsions:
REMARK  status: ('A' for Active; 'I' for Inactive)
REMARK    1  A    between atoms: O_2  and  C_3 
REMARK    2  A    between atoms: C_5  and  N_6 
REMARK    3  A    between atoms: C_8  and  C_9 
REMARK    4  A    between atoms: C_9  and  N_10 
REMARK       I    between atoms: N_10  and  C_11 
REMARK       I    between atoms: C_11  and  N_12 
REMARK    5  A    between atoms: N_12  and  C_13 
REMARK    6  A    between atoms: C_13  and  C_14 
ROOT
HETATM    1  N   UNL     1      25.755  44.297  50.592  1.00  0.00    -0.343 N 
HETATM    2  C   UNL     1      26.569  43.387  51.213  1.00  0.00     0.316 C 
HETATM    3  N   UNL     1      27.729  43.967  51.647  1.00  0.00    -0.339 N 
HETATM    4  O   UNL     1      26.297  42.202  51.344  1.00  0.00    -0.248 OA
HETATM    5  H   UNL     1      26.182  45.162  50.300  1.00  0.00     0.164 HD
HETATM    6  H   UNL     1      27.722  44.963  51.797  1.00  0.00     0.164 HD
ENDROOT
BRANCH   1   7
HETATM    7  C   UNL     1      24.515  43.903  49.946  1.00  0.00     0.130 C 
BRANCH   7   8
HETATM    8  C   UNL     1      24.003  44.976  48.993  1.00  0.00     0.023 C 
HETATM    9  C   UNL     1      23.936  46.361  49.647  1.00  0.00     0.129 C 
HETATM   10  N   UNL     1      22.944  47.079  48.847  1.00  0.00    -0.380 N 
HETATM   11  C   UNL     1      22.201  46.162  47.982  1.00  0.00     0.123 C 
HETATM   12  C   UNL     1      22.568  44.779  48.513  1.00  0.00     0.028 C 
BRANCH  10  13
HETATM   13  C   UNL     1      22.868  48.451  48.758  1.00  0.00     0.032 A 
HETATM   14  C   UNL     1      21.732  49.160  49.192  1.00  0.00     0.066 A 
HETATM   15  C   UNL     1      21.652  50.558  49.117  1.00  0.00     0.070 A 
HETATM   16  C   UNL     1      22.725  51.277  48.599  1.00  0.00     0.037 A 
HETATM   17  C   UNL     1      23.856  50.609  48.146  1.00  0.00     0.005 A 
HETATM   18  C   UNL     1      23.917  49.215  48.220  1.00  0.00     0.029 A 
BRANCH  15  19
HETATM   19  O   UNL     1      20.592  51.327  49.515  1.00  0.00    -0.356 OA
HETATM   20  C   UNL     1      19.701  51.771  48.501  1.00  0.00     0.210 C 
ENDBRANCH  15  19
ENDBRANCH  10  13
ENDBRANCH   7   8
ENDBRANCH   1   7
BRANCH   3  21
HETATM   21  C   UNL     1      28.735  43.209  52.358  1.00  0.00     0.162 C 
BRANCH  21  22
HETATM   22  C   UNL     1      29.083  43.853  53.677  1.00  0.00    -0.040 A 
HETATM   23  C   UNL     1      30.101  43.325  54.484  1.00  0.00     0.021 A 
HETATM   24  C   UNL     1      30.421  43.902  55.726  1.00  0.00    -0.025 A 
HETATM   25  C   UNL     1      29.706  45.038  56.166  1.00  0.00    -0.026 A 
HETATM   26  C   UNL     1      31.433  43.370  56.543  1.00  0.00     0.012 A 
HETATM   27  C   UNL     1      28.687  45.563  55.356  1.00  0.00     0.013 A 
HETATM   28  C   UNL     1      30.024  45.613  57.407  1.00  0.00     0.012 A 
HETATM   29  C   UNL     1      28.375  44.974  54.129  1.00  0.00     0.010 A 
HETATM   30  C   UNL     1      31.033  45.072  58.206  1.00  0.00     0.001 A 
HETATM   31  C   UNL     1      31.736  43.952  57.775  1.00  0.00     0.001 A 
ENDBRANCH  21  22
ENDBRANCH   3  21
TORSDOF 6
ENDMDL
MODEL 7
REMARK VINA RESULT:      -9.9      2.791      4.725
REMARK  6 active torsions:
REMARK  status: ('A' for Active; 'I' for Inactive)
REMARK    1  A    between atoms: O_2  and  C_3 
REMARK    2  A    between atoms: C_5  and  N_6 
REMARK    3  A    between atoms: C_8  and  C_9 
REMARK    4  A    between atoms: C_9  and  N_10 
REMARK       I    between atoms: N_10  and  C_11 
REMARK       I    between atoms: C_11  and  N_12 
REMARK    5  A    between atoms: N_12  and  C_13 
REMARK    6  A    between atoms: C_13  and  C_14 
ROOT
HETATM    1  N   UNL     1      26.132  47.629  50.477  1.00  0.00    -0.343 N 
HETATM    2  C   UNL     1      25.963  46.299  50.761  1.00  0.00     0.316 C 
HETATM    3  N   UNL     1      26.457  45.982  51.996  1.00  0.00    -0.339 N 
HETATM    4  O   UNL     1      25.449  45.496  49.994  1.00  0.00    -0.248 OA
HETATM    5  H   UNL     1      26.796  48.132  51.045  1.00  0.00     0.164 HD
HETATM    6  H   UNL     1      26.545  46.730  52.665  1.00  0.00     0.164 HD
ENDROOT
BRANCH   1   7
HETATM    7  C   UNL     1      25.791  48.188  49.182  1.00  0.00     0.130 C 
BRANCH   7   8
HETATM    8  C   UNL     1      24.709  49.255  49.289  1.00  0.00     0.023 C 
HETATM    9  C   UNL     1      23.303  48.658  49.421  1.00  0.00     0.129 C 
HETATM   10  N   UNL     1      22.423  49.725  48.945  1.00  0.00    -0.380 N 
HETATM   11  C   UNL     1      23.184  50.772  48.264  1.00  0.00     0.123 C 
HETATM   12  C   UNL     1      24.563  50.150  48.060  1.00  0.00     0.028 C 
BRANCH  10  13
HETATM   13  C   UNL     1      21.093  49.838  49.282  1.00  0.00     0.032 A 
HETATM   14  C   UNL     1      20.471  51.091  49.439  1.00  0.00     0.066 A 
HETATM   15  C   UNL     1      19.114  51.214  49.769  1.00  0.00     0.070 A 
HETATM   16  C   UNL     1      18.348  50.066  49.949  1.00  0.00     0.037 A 
HETATM   17  C   UNL     1      18.932  48.812  49.819  1.00  0.00     0.005 A 
HETATM   18  C   UNL     1      20.288  48.706  49.497  1.00  0.00     0.029 A 
BRANCH  15  19
HETATM   19  O   UNL     1      18.429  52.387  49.939  1.00  0.00    -0.356 OA
HETATM   20  C   UNL     1      17.010  52.317  49.886  1.00  0.00     0.210 C 
ENDBRANCH  15  19
ENDBRANCH  10  13
ENDBRANCH   7   8
ENDBRANCH   1   7
BRANCH   3  21
HETATM   21  C   UNL     1      26.366  44.640  52.527  1.00  0.00     0.162 C 
BRANCH  21  22
HETATM   22  C   UNL     1      27.572  44.296  53.366  1.00  0.00    -0.040 A 
HETATM   23  C   UNL     1      27.966  45.126  54.424  1.00  0.00     0.021 A 
HETATM   24  C   UNL     1      29.101  44.831  55.201  1.00  0.00    -0.025 A 
HETATM   25  C   UNL     1      29.854  43.671  54.911  1.00  0.00    -0.026 A 
HETATM   26  C   UNL     1      29.505  45.665  56.257  1.00  0.00     0.012 A 
HETATM   27  C   UNL     1      29.457  42.843  53.850  1.00  0.00     0.013 A 
HETATM   28  C   UNL     1      30.988  43.376  55.685  1.00  0.00     0.012 A 
HETATM   29  C   UNL     1      28.333  43.155  53.083  1.00  0.00     0.010 A 
HETATM   30  C   UNL     1      31.376  44.216  56.730  1.00  0.00     0.001 A 
HETATM   31  C   UNL     1      30.636  45.360  57.015  1.00  0.00     0.001 A 
ENDBRANCH  21  22
ENDBRANCH   3  21
TORSDOF 6
ENDMDL
MODEL 8
REMARK VINA RESULT:      -9.9      3.337     11.205
REMARK  6 active torsions:
REMARK  status: ('A' for Active; 'I' for Inactive)
REMARK    1  A    between atoms: O_2  and  C_3 
REMARK    2  A    between atoms: C_5  and  N_6 
REMARK    3  A    between atoms: C_8  and  C_9 
REMARK    4  A    between atoms: C_9  and  N_10 
REMARK       I    between atoms: N_10  and  C_11 
REMARK       I    between atoms: C_11  and  N_12 
REMARK    5  A    between atoms: N_12  and  C_13 
REMARK    6  A    between atoms: C_13  and  C_14 
ROOT
HETATM    1  N   UNL     1      23.859  47.476  50.287  1.00  0.00    -0.343 N 
HETATM    2  C   UNL     1      23.882  48.647  49.577  1.00  0.00     0.316 C 
HETATM    3  N   UNL     1      22.747  49.381  49.785  1.00  0.00    -0.339 N 
HETATM    4  O   UNL     1      24.796  48.981  48.836  1.00  0.00    -0.248 OA
HETATM    5  H   UNL     1      22.963  47.176  50.640  1.00  0.00     0.164 HD
HETATM    6  H   UNL     1      22.229  49.205  50.631  1.00  0.00     0.164 HD
ENDROOT
BRANCH   1   7
HETATM    7  C   UNL     1      24.900  46.472  50.148  1.00  0.00     0.130 C 
BRANCH   7   8
HETATM    8  C   UNL     1      25.933  46.563  51.264  1.00  0.00     0.023 C 
HETATM    9  C   UNL     1      26.520  45.197  51.636  1.00  0.00     0.129 C 
HETATM   10  N   UNL     1      26.999  45.383  53.006  1.00  0.00    -0.380 N 
HETATM   11  C   UNL     1      26.481  46.623  53.582  1.00  0.00     0.123 C 
HETATM   12  C   UNL     1      25.391  47.055  52.604  1.00  0.00     0.028 C 
BRANCH  10  13
HETATM   13  C   UNL     1      27.975  44.610  53.595  1.00  0.00     0.032 A 
HETATM   14  C   UNL     1      28.737  45.081  54.681  1.00  0.00     0.066 A 
HETATM   15  C   UNL     1      29.724  44.296  55.294  1.00  0.00     0.070 A 
HETATM   16  C   UNL     1      29.965  43.009  54.822  1.00  0.00     0.037 A 
HETATM   17  C   UNL     1      29.243  42.518  53.741  1.00  0.00     0.005 A 
HETATM   18  C   UNL     1      28.268  43.316  53.136  1.00  0.00     0.029 A 
BRANCH  15  19
HETATM   19  O   UNL     1      30.508  44.669  56.352  1.00  0.00    -0.356 OA
HETATM   20  C   UNL     1      31.398  43.690  56.872  1.00  0.00     0.210 C 
ENDBRANCH  15  19
ENDBRANCH  10  13
ENDBRANCH   7   8
ENDBRANCH   1   7
BRANCH   3  21
HETATM   21  C   UNL     1      22.555  50.673  49.161  1.00  0.00     0.162 C 
BRANCH  21  22
HETATM   22  C   UNL     1      21.127  50.863  48.715  1.00  0.00    -0.040 A 
HETATM   23  C   UNL     1      20.210  51.545  49.527  1.00  0.00     0.021 A 
HETATM   24  C   UNL     1      18.869  51.711  49.134  1.00  0.00    -0.025 A 
HETATM   25  C   UNL     1      18.441  51.185  47.895  1.00  0.00    -0.026 A 
HETATM   26  C   UNL     1      17.944  52.385  49.949  1.00  0.00     0.012 A 
HETATM   27  C   UNL     1      19.362  50.501  47.086  1.00  0.00     0.013 A 
HETATM   28  C   UNL     1      17.103  51.348  47.504  1.00  0.00     0.012 A 
HETATM   29  C   UNL     1      20.687  50.337  47.493  1.00  0.00     0.010 A 
HETATM   30  C   UNL     1      16.197  52.021  48.326  1.00  0.00     0.001 A 
HETATM   31  C   UNL     1      16.617  52.538  49.547  1.00  0.00     0.001 A 
ENDBRANCH  21  22
ENDBRANCH   3  21
TORSDOF 6
ENDMDL
MODEL 9
REMARK VINA RESULT:      -9.7      2.372      9.856
REMARK  6 active torsions:
REMARK  status: ('A' for Active; 'I' for Inactive)
REMARK    1  A    between atoms: O_2  and  C_3 
REMARK    2  A    between atoms: C_5  and  N_6 
REMARK    3  A    between atoms: C_8  and  C_9 
REMARK    4  A    between atoms: C_9  and  N_10 
REMARK       I    between atoms: N_10  and  C_11 
REMARK       I    between atoms: C_11  and  N_12 
REMARK    5  A    between atoms: N_12  and  C_13 
REMARK    6  A    between atoms: C_13  and  C_14 
ROOT
HETATM    1  N   UNL     1      24.174  45.098  51.136  1.00  0.00    -0.343 N 
HETATM    2  C   UNL     1      24.536  45.875  50.068  1.00  0.00     0.316 C 
HETATM    3  N   UNL     1      24.181  47.182  50.256  1.00  0.00    -0.339 N 
HETATM    4  O   UNL     1      25.090  45.446  49.066  1.00  0.00    -0.248 OA
HETATM    5  H   UNL     1      23.495  45.488  51.772  1.00  0.00     0.164 HD
HETATM    6  H   UNL     1      24.047  47.494  51.205  1.00  0.00     0.164 HD
ENDROOT
BRANCH   1   7
HETATM    7  C   UNL     1      24.342  43.655  51.129  1.00  0.00     0.130 C 
BRANCH   7   8
HETATM    8  C   UNL     1      25.636  43.228  51.810  1.00  0.00     0.023 C 
HETATM    9  C   UNL     1      26.162  44.283  52.791  1.00  0.00     0.129 C 
HETATM   10  N   UNL     1      27.592  43.991  52.886  1.00  0.00    -0.380 N 
HETATM   11  C   UNL     1      28.013  43.068  51.832  1.00  0.00     0.123 C 
HETATM   12  C   UNL     1      26.826  43.040  50.873  1.00  0.00     0.028 C 
BRANCH  10  13
HETATM   13  C   UNL     1      28.387  44.359  53.948  1.00  0.00     0.032 A 
HETATM   14  C   UNL     1      29.431  43.536  54.414  1.00  0.00     0.066 A 
HETATM   15  C   UNL     1      30.253  43.909  55.486  1.00  0.00     0.070 A 
HETATM   16  C   UNL     1      30.040  45.131  56.117  1.00  0.00     0.037 A 
HETATM   17  C   UNL     1      29.009  45.962  55.696  1.00  0.00     0.005 A 
HETATM   18  C   UNL     1      28.193  45.572  54.630  1.00  0.00     0.029 A 
BRANCH  15  19
HETATM   19  O   UNL     1      31.287  43.176  56.002  1.00  0.00    -0.356 OA
HETATM   20  C   UNL     1      31.762  43.548  57.289  1.00  0.00     0.210 C 
ENDBRANCH  15  19
ENDBRANCH  10  13
ENDBRANCH   7   8
ENDBRANCH   1   7
BRANCH   3  21
HETATM   21  C   UNL     1      24.485  48.199  49.273  1.00  0.00     0.162 C 
BRANCH  21  22
HETATM   22  C   UNL     1      23.334  49.158  49.097  1.00  0.00    -0.040 A 
HETATM   23  C   UNL     1      22.017  48.748  49.351  1.00  0.00     0.021 A 
HETATM   24  C   UNL     1      20.931  49.623  49.170  1.00  0.00    -0.025 A 
HETATM   25  C   UNL     1      21.174  50.943  48.728  1.00  0.00    -0.026 A 
HETATM   26  C   UNL     1      19.610  49.214  49.415  1.00  0.00     0.012 A 
HETATM   27  C   UNL     1      22.493  51.349  48.473  1.00  0.00     0.013 A 
HETATM   28  C   UNL     1      20.090  51.817  48.545  1.00  0.00     0.012 A 
HETATM   29  C   UNL     1      23.559  50.466  48.649  1.00  0.00     0.010 A 
HETATM   30  C   UNL     1      18.783  51.394  48.792  1.00  0.00     0.001 A 
HETATM   31  C   UNL     1      18.543  50.094  49.226  1.00  0.00     0.001 A 
ENDBRANCH  21  22
ENDBRANCH   3  21
TORSDOF 6
ENDMDL
MODEL 10
REMARK VINA RESULT:      -9.6      1.928      2.882
REMARK  6 active torsions:
REMARK  status: ('A' for Active; 'I' for Inactive)
REMARK    1  A    between atoms: O_2  and  C_3 
REMARK    2  A    between atoms: C_5  and  N_6 
REMARK    3  A    between atoms: C_8  and  C_9 
REMARK    4  A    between atoms: C_9  and  N_10 
REMARK       I    between atoms: N_10  and  C_11 
REMARK       I    between atoms: C_11  and  N_12 
REMARK    5  A    between atoms: N_12  and  C_13 
REMARK    6  A    between atoms: C_13  and  C_14 
ROOT
HETATM    1  N   UNL     1      26.758  42.259  50.427  1.00  0.00    -0.343 N 
HETATM    2  C   UNL     1      27.819  41.753  51.131  1.00  0.00     0.316 C 
HETATM    3  N   UNL     1      28.407  42.712  51.909  1.00  0.00    -0.339 N 
HETATM    4  O   UNL     1      28.199  40.593  51.056  1.00  0.00    -0.248 OA
HETATM    5  H   UNL     1      26.701  43.263  50.352  1.00  0.00     0.164 HD
HETATM    6  H   UNL     1      27.849  43.512  52.161  1.00  0.00     0.164 HD
ENDROOT
BRANCH   1   7
HETATM    7  C   UNL     1      26.038  41.466  49.447  1.00  0.00     0.130 C 
BRANCH   7   8
HETATM    8  C   UNL     1      24.991  42.289  48.706  1.00  0.00     0.023 C 
HETATM    9  C   UNL     1      24.797  43.682  49.315  1.00  0.00     0.129 C 
HETATM   10  N   UNL     1      23.451  44.066  48.889  1.00  0.00    -0.380 N 
HETATM   11  C   UNL     1      22.722  42.919  48.348  1.00  0.00     0.123 C 
HETATM   12  C   UNL     1      23.576  41.719  48.749  1.00  0.00     0.028 C 
BRANCH  10  13
HETATM   13  C   UNL     1      23.009  45.368  48.804  1.00  0.00     0.032 A 
HETATM   14  C   UNL     1      23.769  46.443  49.305  1.00  0.00     0.066 A 
HETATM   15  C   UNL     1      23.331  47.772  49.211  1.00  0.00     0.070 A 
HETATM   16  C   UNL     1      22.110  48.047  48.604  1.00  0.00     0.037 A 
HETATM   17  C   UNL     1      21.326  47.010  48.113  1.00  0.00     0.005 A 
HETATM   18  C   UNL     1      21.772  45.690  48.222  1.00  0.00     0.029 A 
BRANCH  15  19
HETATM   19  O   UNL     1      24.002  48.874  49.666  1.00  0.00    -0.356 OA
HETATM   20  C   UNL     1      24.392  49.837  48.696  1.00  0.00     0.210 C 
ENDBRANCH  15  19
ENDBRANCH  10  13
ENDBRANCH   7   8
ENDBRANCH   1   7
BRANCH   3  21
HETATM   21  C   UNL     1      29.533  42.408  52.765  1.00  0.00     0.162 C 
BRANCH  21  22
HETATM   22  C   UNL     1      29.600  43.346  53.943  1.00  0.00    -0.040 A 
HETATM   23  C   UNL     1      30.529  43.135  54.973  1.00  0.00     0.021 A 
HETATM   24  C   UNL     1      30.588  43.989  56.089  1.00  0.00    -0.025 A 
HETATM   25  C   UNL     1      29.698  45.083  56.172  1.00  0.00    -0.026 A 
HETATM   26  C   UNL     1      31.510  43.776  57.127  1.00  0.00     0.012 A 
HETATM   27  C   UNL     1      28.769  45.290  55.140  1.00  0.00     0.013 A 
HETATM   28  C   UNL     1      29.755  45.934  57.287  1.00  0.00     0.012 A 
HETATM   29  C   UNL     1      28.717  44.428  54.042  1.00  0.00     0.010 A 
HETATM   30  C   UNL     1      30.677  45.707  58.310  1.00  0.00     0.001 A 
HETATM   31  C   UNL     1      31.554  44.629  58.231  1.00  0.00     0.001 A 
ENDBRANCH  21  22
ENDBRANCH   3  21
TORSDOF 6
ENDMDL
