MODEL 1
REMARK VINA RESULT:      -9.7      0.000      0.000
REMARK  13 active torsions:
REMARK  status: ('A' for Active; 'I' for Inactive)
REMARK    1  A    between atoms: O_2  and  C_3 
REMARK    2  A    between atoms: C_6  and  C_7 
REMARK    3  A    between atoms: C_7  and  C_8 
REMARK    4  A    between atoms: C_9  and  C_10 
REMARK    5  A    between atoms: N_17  and  C_18 
REMARK    6  A    between atoms: C_18  and  C_19 
REMARK    7  A    between atoms: C_19  and  O_20 
REMARK    8  A    between atoms: C_19  and  C_21 
REMARK    9  A    between atoms: C_21  and  N_22 
REMARK   10  A    between atoms: N_22  and  C_25 
REMARK   11  A    between atoms: C_25  and  C_26 
REMARK   12  A    between atoms: C_26  and  C_27 
REMARK   13  A    between atoms: C_32  and  O_33 
ROOT
HETATM    1  C   UNL     1      26.376  45.632  50.732  1.00  0.00     0.162 C 
ENDROOT
BRANCH   1   2
HETATM    2  N   UNL     1      25.575  46.685  50.126  1.00  0.00    -0.353 N 
HETATM    3  C   UNL     1      26.068  47.860  49.599  1.00  0.00     0.045 A 
HETATM    4  C   UNL     1      24.980  48.546  49.039  1.00  0.00     0.002 A 
HETATM    5  C   UNL     1      27.380  48.367  49.545  1.00  0.00     0.030 A 
HETATM    6  C   UNL     1      23.811  47.759  49.297  1.00  0.00    -0.008 A 
HETATM    7  C   UNL     1      25.241  49.766  48.374  1.00  0.00     0.014 A 
HETATM    8  C   UNL     1      24.219  46.618  49.959  1.00  0.00     0.103 A 
HETATM    9  C   UNL     1      26.542  50.277  48.319  1.00  0.00     0.001 A 
HETATM   10  C   UNL     1      27.596  49.587  48.904  1.00  0.00     0.002 A 
BRANCH   6  11
HETATM   11  C   UNL     1      22.439  47.986  48.964  1.00  0.00     0.018 C 
HETATM   12  C   UNL     1      21.943  48.214  47.738  1.00  0.00     0.056 C 
BRANCH  12  13
HETATM   13  C   UNL     1      20.475  48.401  47.559  1.00  0.00     0.182 C 
HETATM   14  O   UNL     1      19.821  47.652  46.838  1.00  0.00    -0.288 OA
BRANCH  13  15
HETATM   15  C   UNL     1      19.818  49.565  48.220  1.00  0.00     0.014 A 
HETATM   16  C   UNL     1      20.263  50.884  48.076  1.00  0.00     0.018 A 
HETATM   17  C   UNL     1      19.566  51.928  48.694  1.00  0.00     0.037 A 
HETATM   18  C   UNL     1      18.429  51.676  49.466  1.00  0.00     0.068 A 
HETATM   19  C   UNL     1      18.004  50.360  49.640  1.00  0.00     0.037 A 
HETATM   20  C   UNL     1      18.696  49.311  49.022  1.00  0.00     0.018 A 
BRANCH  18  21
HETATM   21  O   UNL     1      17.840  52.790  49.994  1.00  0.00    -0.356 OA
HETATM   22  C   UNL     1      16.417  52.825  49.998  1.00  0.00     0.210 C 
ENDBRANCH  18  21
ENDBRANCH  13  15
ENDBRANCH  12  13
ENDBRANCH   6  11
ENDBRANCH   1   2
BRANCH   1  23
HETATM   23  C   UNL     1      25.960  44.237  50.241  1.00  0.00     0.162 C 
BRANCH  23  24
HETATM   24  O   UNL     1      26.608  43.916  49.008  1.00  0.00    -0.392 OA
HETATM   25  H   UNL     1      27.424  43.405  49.198  1.00  0.00     0.210 HD
ENDBRANCH  23  24
BRANCH  23  26
HETATM   26  C   UNL     1      26.380  43.133  51.232  1.00  0.00     0.265 C 
BRANCH  26  27
HETATM   27  N   UNL     1      27.790  42.662  51.034  1.00  0.00    -0.072 N 
HETATM   28  H   UNL     1      27.941  42.282  50.091  1.00  0.00     0.277 HD
HETATM   29  H   UNL     1      28.422  43.471  51.123  1.00  0.00     0.277 HD
BRANCH  27  30
HETATM   30  C   UNL     1      28.254  41.639  52.044  1.00  0.00     0.237 C 
BRANCH  30  31
HETATM   31  C   UNL     1      27.730  41.951  53.447  1.00  0.00     0.068 C 
BRANCH  31  32
HETATM   32  C   UNL     1      28.624  42.897  54.174  1.00  0.00    -0.029 A 
HETATM   33  C   UNL     1      28.291  44.221  54.608  1.00  0.00     0.001 A 
HETATM   34  C   UNL     1      29.413  44.744  55.245  1.00  0.00     0.043 A 
HETATM   35  C   UNL     1      27.136  45.025  54.520  1.00  0.00     0.051 A 
HETATM   36  C   UNL     1      29.438  46.032  55.794  1.00  0.00     0.033 A 
HETATM   37  N   UNL     1      30.389  43.777  55.217  1.00  0.00    -0.365 N 
HETATM   38  C   UNL     1      28.278  46.812  55.686  1.00  0.00     0.039 A 
HETATM   39  C   UNL     1      27.136  46.320  55.058  1.00  0.00     0.069 A 
HETATM   40  H   UNL     1      31.309  43.880  55.627  1.00  0.00     0.165 HD
HETATM   41  C   UNL     1      29.927  42.662  54.566  1.00  0.00     0.096 A 
BRANCH  39  42
HETATM   42  O   UNL     1      25.954  46.993  54.896  1.00  0.00    -0.356 OA
HETATM   43  C   UNL     1      25.668  47.485  53.592  1.00  0.00     0.210 C 
ENDBRANCH  39  42
ENDBRANCH  31  32
ENDBRANCH  30  31
ENDBRANCH  27  30
ENDBRANCH  26  27
ENDBRANCH  23  26
ENDBRANCH   1  23
TORSDOF 13
ENDMDL
MODEL 2
REMARK VINA RESULT:      -9.4      2.622     10.925
REMARK  13 active torsions:
REMARK  status: ('A' for Active; 'I' for Inactive)
REMARK    1  A    between atoms: O_2  and  C_3 
REMARK    2  A    between atoms: C_6  and  C_7 
REMARK    3  A    between atoms: C_7  and  C_8 
REMARK    4  A    between atoms: C_9  and  C_10 
REMARK    5  A    between atoms: N_17  and  C_18 
REMARK    6  A    between atoms: C_18  and  C_19 
REMARK    7  A    between atoms: C_19  and  O_20 
REMARK    8  A    between atoms: C_19  and  C_21 
REMARK    9  A    between atoms: C_21  and  N_22 
REMARK   10  A    between atoms: N_22  and  C_25 
REMARK   11  A    between atoms: C_25  and  C_26 
REMARK   12  A    between atoms: C_26  and  C_27 
REMARK   13  A    between atoms: C_32  and  O_33 
ROOT
HETATM    1  C   UNL     1      22.434  48.548  49.307  1.00  0.00     0.162 C 
ENDROOT
BRANCH   1   2
HETATM    2  N   UNL     1      23.768  48.011  49.530  1.00  0.00    -0.353 N 
HETATM    3  C   UNL     1      24.948  48.635  49.186  1.00  0.00     0.045 A 
HETATM    4  C   UNL     1      25.992  47.825  49.655  1.00  0.00     0.002 A 
HETATM    5  C   UNL     1      25.187  49.854  48.524  1.00  0.00     0.030 A 
HETATM    6  C   UNL     1      25.391  46.668  50.248  1.00  0.00    -0.008 A 
HETATM    7  C   UNL     1      27.317  48.287  49.476  1.00  0.00     0.014 A 
HETATM    8  C   UNL     1      24.022  46.823  50.160  1.00  0.00     0.103 A 
HETATM    9  C   UNL     1      27.561  49.496  48.817  1.00  0.00     0.001 A 
HETATM   10  C   UNL     1      26.507  50.265  48.342  1.00  0.00     0.002 A 
BRANCH   6  11
HETATM   11  C   UNL     1      25.980  45.522  50.867  1.00  0.00     0.018 C 
HETATM   12  C   UNL     1      26.573  45.480  52.070  1.00  0.00     0.056 C 
BRANCH  12  13
HETATM   13  C   UNL     1      27.112  44.189  52.584  1.00  0.00     0.182 C 
HETATM   14  O   UNL     1      26.670  43.113  52.190  1.00  0.00    -0.288 OA
BRANCH  13  15
HETATM   15  C   UNL     1      28.160  44.224  53.644  1.00  0.00     0.014 A 
HETATM   16  C   UNL     1      29.144  43.239  53.786  1.00  0.00     0.018 A 
HETATM   17  C   UNL     1      30.121  43.365  54.780  1.00  0.00     0.037 A 
HETATM   18  C   UNL     1      30.127  44.459  55.647  1.00  0.00     0.068 A 
HETATM   19  C   UNL     1      29.127  45.424  55.533  1.00  0.00     0.037 A 
HETATM   20  C   UNL     1      28.148  45.305  54.538  1.00  0.00     0.018 A 
BRANCH  18  21
HETATM   21  O   UNL     1      31.148  44.462  56.556  1.00  0.00    -0.356 OA
HETATM   22  C   UNL     1      31.500  43.210  57.133  1.00  0.00     0.210 C 
ENDBRANCH  18  21
ENDBRANCH  13  15
ENDBRANCH  12  13
ENDBRANCH   6  11
ENDBRANCH   1   2
BRANCH   1  23
HETATM   23  C   UNL     1      22.096  48.646  47.811  1.00  0.00     0.162 C 
BRANCH  23  24
HETATM   24  O   UNL     1      21.199  47.604  47.421  1.00  0.00    -0.392 OA
HETATM   25  H   UNL     1      21.653  47.012  46.784  1.00  0.00     0.210 HD
ENDBRANCH  23  24
BRANCH  23  26
HETATM   26  C   UNL     1      21.375  49.966  47.474  1.00  0.00     0.265 C 
BRANCH  26  27
HETATM   27  N   UNL     1      21.330  50.929  48.623  1.00  0.00    -0.072 N 
HETATM   28  H   UNL     1      21.434  50.454  49.529  1.00  0.00     0.277 HD
HETATM   29  H   UNL     1      22.130  51.573  48.543  1.00  0.00     0.277 HD
BRANCH  27  30
HETATM   30  C   UNL     1      20.087  51.787  48.671  1.00  0.00     0.237 C 
BRANCH  30  31
HETATM   31  C   UNL     1      19.261  51.513  49.930  1.00  0.00     0.068 C 
BRANCH  31  32
HETATM   32  C   UNL     1      18.822  50.091  50.005  1.00  0.00    -0.029 A 
HETATM   33  C   UNL     1      18.003  49.401  49.053  1.00  0.00     0.001 A 
HETATM   34  C   UNL     1      17.843  48.095  49.511  1.00  0.00     0.043 A 
HETATM   35  C   UNL     1      17.382  49.764  47.841  1.00  0.00     0.051 A 
HETATM   36  C   UNL     1      17.091  47.139  48.819  1.00  0.00     0.033 A 
HETATM   37  N   UNL     1      18.547  47.984  50.686  1.00  0.00    -0.365 N 
HETATM   38  C   UNL     1      16.479  47.531  47.620  1.00  0.00     0.039 A 
HETATM   39  C   UNL     1      16.619  48.826  47.130  1.00  0.00     0.069 A 
HETATM   40  H   UNL     1      18.622  47.134  51.231  1.00  0.00     0.165 HD
HETATM   41  C   UNL     1      19.134  49.184  50.998  1.00  0.00     0.096 A 
BRANCH  39  42
HETATM   42  O   UNL     1      16.067  49.315  45.976  1.00  0.00    -0.356 OA
HETATM   43  C   UNL     1      14.654  49.477  45.957  1.00  0.00     0.210 C 
ENDBRANCH  39  42
ENDBRANCH  31  32
ENDBRANCH  30  31
ENDBRANCH  27  30
ENDBRANCH  26  27
ENDBRANCH  23  26
ENDBRANCH   1  23
TORSDOF 13
ENDMDL
MODEL 3
REMARK VINA RESULT:      -9.3      1.770      2.567
REMARK  13 active torsions:
REMARK  status: ('A' for Active; 'I' for Inactive)
REMARK    1  A    between atoms: O_2  and  C_3 
REMARK    2  A    between atoms: C_6  and  C_7 
REMARK    3  A    between atoms: C_7  and  C_8 
REMARK    4  A    between atoms: C_9  and  C_10 
REMARK    5  A    between atoms: N_17  and  C_18 
REMARK    6  A    between atoms: C_18  and  C_19 
REMARK    7  A    between atoms: C_19  and  O_20 
REMARK    8  A    between atoms: C_19  and  C_21 
REMARK    9  A    between atoms: C_21  and  N_22 
REMARK   10  A    between atoms: N_22  and  C_25 
REMARK   11  A    between atoms: C_25  and  C_26 
REMARK   12  A    between atoms: C_26  and  C_27 
REMARK   13  A    between atoms: C_32  and  O_33 
ROOT
HETATM    1  C   UNL     1      25.274  45.579  50.231  1.00  0.00     0.162 C 
ENDROOT
BRANCH   1   2
HETATM    2  N   UNL     1      24.859  46.879  49.726  1.00  0.00    -0.353 N 
HETATM    3  C   UNL     1      25.708  47.912  49.390  1.00  0.00     0.045 A 
HETATM    4  C   UNL     1      24.912  48.942  48.866  1.00  0.00     0.002 A 
HETATM    5  C   UNL     1      27.108  48.022  49.481  1.00  0.00     0.030 A 
HETATM    6  C   UNL     1      23.551  48.502  48.948  1.00  0.00    -0.008 A 
HETATM    7  C   UNL     1      25.565  50.101  48.386  1.00  0.00     0.014 A 
HETATM    8  C   UNL     1      23.560  47.226  49.473  1.00  0.00     0.103 A 
HETATM    9  C   UNL     1      26.956  50.217  48.476  1.00  0.00     0.001 A 
HETATM   10  C   UNL     1      27.715  49.191  49.023  1.00  0.00     0.002 A 
BRANCH   6  11
HETATM   11  C   UNL     1      22.335  49.151  48.569  1.00  0.00     0.018 C 
HETATM   12  C   UNL     1      21.817  50.261  49.118  1.00  0.00     0.056 C 
BRANCH  12  13
HETATM   13  C   UNL     1      20.549  50.829  48.580  1.00  0.00     0.182 C 
HETATM   14  O   UNL     1      20.345  52.039  48.574  1.00  0.00    -0.288 OA
BRANCH  13  15
HETATM   15  C   UNL     1      19.491  49.890  48.107  1.00  0.00     0.014 A 
HETATM   16  C   UNL     1      19.341  49.511  46.768  1.00  0.00     0.018 A 
HETATM   17  C   UNL     1      18.350  48.590  46.409  1.00  0.00     0.037 A 
HETATM   18  C   UNL     1      17.495  48.044  47.368  1.00  0.00     0.068 A 
HETATM   19  C   UNL     1      17.617  48.447  48.697  1.00  0.00     0.037 A 
HETATM   20  C   UNL     1      18.608  49.366  49.063  1.00  0.00     0.018 A 
BRANCH  18  21
HETATM   21  O   UNL     1      16.588  47.146  46.879  1.00  0.00    -0.356 OA
HETATM   22  C   UNL     1      16.797  46.678  45.552  1.00  0.00     0.210 C 
ENDBRANCH  18  21
ENDBRANCH  13  15
ENDBRANCH  12  13
ENDBRANCH   6  11
ENDBRANCH   1   2
BRANCH   1  23
HETATM   23  C   UNL     1      24.548  45.209  51.534  1.00  0.00     0.162 C 
BRANCH  23  24
HETATM   24  O   UNL     1      23.757  44.030  51.361  1.00  0.00    -0.392 OA
HETATM   25  H   UNL     1      23.165  43.925  52.136  1.00  0.00     0.210 HD
ENDBRANCH  23  24
BRANCH  23  26
HETATM   26  C   UNL     1      25.539  44.883  52.669  1.00  0.00     0.265 C 
BRANCH  26  27
HETATM   27  N   UNL     1      25.710  43.411  52.904  1.00  0.00    -0.072 N 
HETATM   28  H   UNL     1      25.754  43.184  53.905  1.00  0.00     0.277 HD
HETATM   29  H   UNL     1      24.883  42.922  52.533  1.00  0.00     0.277 HD
BRANCH  27  30
HETATM   30  C   UNL     1      26.914  42.806  52.221  1.00  0.00     0.237 C 
BRANCH  30  31
HETATM   31  C   UNL     1      28.051  43.819  52.078  1.00  0.00     0.068 C 
BRANCH  31  32
HETATM   32  C   UNL     1      29.012  43.737  53.215  1.00  0.00    -0.029 A 
HETATM   33  C   UNL     1      29.020  44.562  54.385  1.00  0.00     0.001 A 
HETATM   34  C   UNL     1      30.080  44.141  55.185  1.00  0.00     0.043 A 
HETATM   35  C   UNL     1      28.222  45.630  54.842  1.00  0.00     0.051 A 
HETATM   36  C   UNL     1      30.382  44.739  56.414  1.00  0.00     0.033 A 
HETATM   37  N   UNL     1      30.688  43.092  54.539  1.00  0.00    -0.365 N 
HETATM   38  C   UNL     1      29.576  45.803  56.840  1.00  0.00     0.039 A 
HETATM   39  C   UNL     1      28.505  46.249  56.069  1.00  0.00     0.069 A 
HETATM   40  H   UNL     1      31.480  42.577  54.903  1.00  0.00     0.165 HD
HETATM   41  C   UNL     1      30.058  42.844  53.347  1.00  0.00     0.096 A 
BRANCH  39  42
HETATM   42  O   UNL     1      27.657  47.276  56.387  1.00  0.00    -0.356 OA
HETATM   43  C   UNL     1      26.835  47.779  55.339  1.00  0.00     0.210 C 
ENDBRANCH  39  42
ENDBRANCH  31  32
ENDBRANCH  30  31
ENDBRANCH  27  30
ENDBRANCH  26  27
ENDBRANCH  23  26
ENDBRANCH   1  23
TORSDOF 13
ENDMDL
MODEL 4
REMARK VINA RESULT:      -9.2      1.755      2.493
REMARK  13 active torsions:
REMARK  status: ('A' for Active; 'I' for Inactive)
REMARK    1  A    between atoms: O_2  and  C_3 
REMARK    2  A    between atoms: C_6  and  C_7 
REMARK    3  A    between atoms: C_7  and  C_8 
REMARK    4  A    between atoms: C_9  and  C_10 
REMARK    5  A    between atoms: N_17  and  C_18 
REMARK    6  A    between atoms: C_18  and  C_19 
REMARK    7  A    between atoms: C_19  and  O_20 
REMARK    8  A    between atoms: C_19  and  C_21 
REMARK    9  A    between atoms: C_21  and  N_22 
REMARK   10  A    between atoms: N_22  and  C_25 
REMARK   11  A    between atoms: C_25  and  C_26 
REMARK   12  A    between atoms: C_26  and  C_27 
REMARK   13  A    between atoms: C_32  and  O_33 
ROOT
HETATM    1  C   UNL     1      25.450  45.738  50.845  1.00  0.00     0.162 C 
ENDROOT
BRANCH   1   2
HETATM    2  N   UNL     1      24.955  46.832  50.023  1.00  0.00    -0.353 N 
HETATM    3  C   UNL     1      25.705  47.900  49.579  1.00  0.00     0.045 A 
HETATM    4  C   UNL     1      24.874  48.669  48.751  1.00  0.00     0.002 A 
HETATM    5  C   UNL     1      27.050  48.244  49.814  1.00  0.00     0.030 A 
HETATM    6  C   UNL     1      23.584  48.046  48.759  1.00  0.00    -0.008 A 
HETATM    7  C   UNL     1      25.438  49.799  48.115  1.00  0.00     0.014 A 
HETATM    8  C   UNL     1      23.676  46.915  49.545  1.00  0.00     0.103 A 
HETATM    9  C   UNL     1      26.773  50.147  48.347  1.00  0.00     0.001 A 
HETATM   10  C   UNL     1      27.565  49.380  49.192  1.00  0.00     0.002 A 
BRANCH   6  11
HETATM   11  C   UNL     1      22.366  48.409  48.103  1.00  0.00     0.018 C 
HETATM   12  C   UNL     1      21.155  48.518  48.670  1.00  0.00     0.056 C 
BRANCH  12  13
HETATM   13  C   UNL     1      19.989  48.941  47.844  1.00  0.00     0.182 C 
HETATM   14  O   UNL     1      19.688  48.343  46.815  1.00  0.00    -0.288 OA
BRANCH  13  15
HETATM   15  C   UNL     1      19.225  50.154  48.254  1.00  0.00     0.014 A 
HETATM   16  C   UNL     1      18.292  50.791  47.429  1.00  0.00     0.018 A 
HETATM   17  C   UNL     1      17.582  51.901  47.902  1.00  0.00     0.037 A 
HETATM   18  C   UNL     1      17.797  52.395  49.191  1.00  0.00     0.068 A 
HETATM   19  C   UNL     1      18.752  51.785  50.003  1.00  0.00     0.037 A 
HETATM   20  C   UNL     1      19.463  50.672  49.535  1.00  0.00     0.018 A 
BRANCH  18  21
HETATM   21  O   UNL     1      17.023  53.471  49.526  1.00  0.00    -0.356 OA
HETATM   22  C   UNL     1      15.809  53.201  50.217  1.00  0.00     0.210 C 
ENDBRANCH  18  21
ENDBRANCH  13  15
ENDBRANCH  12  13
ENDBRANCH   6  11
ENDBRANCH   1   2
BRANCH   1  23
HETATM   23  C   UNL     1      25.730  44.476  50.015  1.00  0.00     0.162 C 
BRANCH  23  24
HETATM   24  O   UNL     1      26.886  44.651  49.192  1.00  0.00    -0.392 OA
HETATM   25  H   UNL     1      27.517  43.920  49.366  1.00  0.00     0.210 HD
ENDBRANCH  23  24
BRANCH  23  26
HETATM   26  C   UNL     1      26.036  43.259  50.910  1.00  0.00     0.265 C 
BRANCH  26  27
HETATM   27  N   UNL     1      27.496  43.099  51.216  1.00  0.00    -0.072 N 
HETATM   28  H   UNL     1      27.928  42.355  50.653  1.00  0.00     0.277 HD
HETATM   29  H   UNL     1      27.982  43.971  50.963  1.00  0.00     0.277 HD
BRANCH  27  30
HETATM   30  C   UNL     1      27.804  42.838  52.672  1.00  0.00     0.237 C 
BRANCH  30  31
HETATM   31  C   UNL     1      28.980  43.686  53.161  1.00  0.00     0.068 C 
BRANCH  31  32
HETATM   32  C   UNL     1      28.557  44.675  54.193  1.00  0.00    -0.029 A 
HETATM   33  C   UNL     1      29.181  44.901  55.462  1.00  0.00     0.001 A 
HETATM   34  C   UNL     1      28.468  45.912  56.102  1.00  0.00     0.043 A 
HETATM   35  C   UNL     1      30.289  44.340  56.129  1.00  0.00     0.051 A 
HETATM   36  C   UNL     1      28.806  46.385  57.375  1.00  0.00     0.033 A 
HETATM   37  N   UNL     1      27.458  46.300  55.255  1.00  0.00    -0.365 N 
HETATM   38  C   UNL     1      29.909  45.804  58.017  1.00  0.00     0.039 A 
HETATM   39  C   UNL     1      30.648  44.794  57.407  1.00  0.00     0.069 A 
HETATM   40  H   UNL     1      26.792  47.036  55.457  1.00  0.00     0.165 HD
HETATM   41  C   UNL     1      27.497  45.556  54.104  1.00  0.00     0.096 A 
BRANCH  39  42
HETATM   42  O   UNL     1      31.737  44.158  57.940  1.00  0.00    -0.356 OA
HETATM   43  C   UNL     1      32.252  43.047  57.216  1.00  0.00     0.210 C 
ENDBRANCH  39  42
ENDBRANCH  31  32
ENDBRANCH  30  31
ENDBRANCH  27  30
ENDBRANCH  26  27
ENDBRANCH  23  26
ENDBRANCH   1  23
TORSDOF 13
ENDMDL
MODEL 5
REMARK VINA RESULT:      -9.2      2.955     10.154
REMARK  13 active torsions:
REMARK  status: ('A' for Active; 'I' for Inactive)
REMARK    1  A    between atoms: O_2  and  C_3 
REMARK    2  A    between atoms: C_6  and  C_7 
REMARK    3  A    between atoms: C_7  and  C_8 
REMARK    4  A    between atoms: C_9  and  C_10 
REMARK    5  A    between atoms: N_17  and  C_18 
REMARK    6  A    between atoms: C_18  and  C_19 
REMARK    7  A    between atoms: C_19  and  O_20 
REMARK    8  A    between atoms: C_19  and  C_21 
REMARK    9  A    between atoms: C_21  and  N_22 
REMARK   10  A    between atoms: N_22  and  C_25 
REMARK   11  A    between atoms: C_25  and  C_26 
REMARK   12  A    between atoms: C_26  and  C_27 
REMARK   13  A    between atoms: C_32  and  O_33 
ROOT
HETATM    1  C   UNL     1      20.610  46.555  47.678  1.00  0.00     0.162 C 
ENDROOT
BRANCH   1   2
HETATM    2  N   UNL     1      21.939  46.799  48.218  1.00  0.00    -0.353 N 
HETATM    3  C   UNL     1      22.574  48.023  48.251  1.00  0.00     0.045 A 
HETATM    4  C   UNL     1      23.788  47.836  48.929  1.00  0.00     0.002 A 
HETATM    5  C   UNL     1      22.177  49.282  47.763  1.00  0.00     0.030 A 
HETATM    6  C   UNL     1      23.874  46.444  49.256  1.00  0.00    -0.008 A 
HETATM    7  C   UNL     1      24.602  48.971  49.150  1.00  0.00     0.014 A 
HETATM    8  C   UNL     1      22.715  45.842  48.811  1.00  0.00     0.103 A 
HETATM    9  C   UNL     1      24.213  50.224  48.665  1.00  0.00     0.001 A 
HETATM   10  C   UNL     1      23.018  50.373  47.974  1.00  0.00     0.002 A 
BRANCH   6  11
HETATM   11  C   UNL     1      24.895  45.705  49.933  1.00  0.00     0.018 C 
HETATM   12  C   UNL     1      24.817  45.182  51.167  1.00  0.00     0.056 C 
BRANCH  12  13
HETATM   13  C   UNL     1      25.967  44.408  51.714  1.00  0.00     0.182 C 
HETATM   14  O   UNL     1      26.245  43.292  51.285  1.00  0.00    -0.288 OA
BRANCH  13  15
HETATM   15  C   UNL     1      26.741  44.987  52.850  1.00  0.00     0.014 A 
HETATM   16  C   UNL     1      26.405  46.194  53.473  1.00  0.00     0.018 A 
HETATM   17  C   UNL     1      27.156  46.650  54.563  1.00  0.00     0.037 A 
HETATM   18  C   UNL     1      28.248  45.922  55.039  1.00  0.00     0.068 A 
HETATM   19  C   UNL     1      28.607  44.737  54.398  1.00  0.00     0.037 A 
HETATM   20  C   UNL     1      27.858  44.274  53.308  1.00  0.00     0.018 A 
BRANCH  18  21
HETATM   21  O   UNL     1      28.877  46.476  56.118  1.00  0.00    -0.356 OA
HETATM   22  C   UNL     1      29.972  45.752  56.667  1.00  0.00     0.210 C 
ENDBRANCH  18  21
ENDBRANCH  13  15
ENDBRANCH  12  13
ENDBRANCH   6  11
ENDBRANCH   1   2
BRANCH   1  23
HETATM   23  C   UNL     1      20.071  45.173  48.079  1.00  0.00     0.162 C 
BRANCH  23  24
HETATM   24  O   UNL     1      19.787  45.122  49.479  1.00  0.00    -0.392 OA
HETATM   25  H   UNL     1      20.105  44.268  49.840  1.00  0.00     0.210 HD
ENDBRANCH  23  24
BRANCH  23  26
HETATM   26  C   UNL     1      18.740  44.851  47.371  1.00  0.00     0.265 C 
BRANCH  26  27
HETATM   27  N   UNL     1      17.535  45.326  48.128  1.00  0.00    -0.072 N 
HETATM   28  H   UNL     1      16.720  44.718  47.976  1.00  0.00     0.277 HD
HETATM   29  H   UNL     1      17.743  45.284  49.136  1.00  0.00     0.277 HD
BRANCH  27  30
HETATM   30  C   UNL     1      17.132  46.751  47.828  1.00  0.00     0.237 C 
BRANCH  30  31
HETATM   31  C   UNL     1      16.722  47.501  49.098  1.00  0.00     0.068 C 
BRANCH  31  32
HETATM   32  C   UNL     1      17.784  48.444  49.550  1.00  0.00    -0.029 A 
HETATM   33  C   UNL     1      18.109  49.707  48.958  1.00  0.00     0.001 A 
HETATM   34  C   UNL     1      19.156  50.255  49.697  1.00  0.00     0.043 A 
HETATM   35  C   UNL     1      17.610  50.440  47.862  1.00  0.00     0.051 A 
HETATM   36  C   UNL     1      19.728  51.495  49.389  1.00  0.00     0.033 A 
HETATM   37  N   UNL     1      19.450  49.373  50.708  1.00  0.00    -0.365 N 
HETATM   38  C   UNL     1      19.216  52.198  48.290  1.00  0.00     0.039 A 
HETATM   39  C   UNL     1      18.168  51.683  47.531  1.00  0.00     0.069 A 
HETATM   40  H   UNL     1      20.161  49.525  51.412  1.00  0.00     0.165 HD
HETATM   41  C   UNL     1      18.635  48.273  50.624  1.00  0.00     0.096 A 
BRANCH  39  42
HETATM   42  O   UNL     1      17.594  52.281  46.441  1.00  0.00    -0.356 OA
HETATM   43  C   UNL     1      16.667  51.502  45.694  1.00  0.00     0.210 C 
ENDBRANCH  39  42
ENDBRANCH  31  32
ENDBRANCH  30  31
ENDBRANCH  27  30
ENDBRANCH  26  27
ENDBRANCH  23  26
ENDBRANCH   1  23
TORSDOF 13
ENDMDL
MODEL 6
REMARK VINA RESULT:      -9.2      2.481      3.819
REMARK  13 active torsions:
REMARK  status: ('A' for Active; 'I' for Inactive)
REMARK    1  A    between atoms: O_2  and  C_3 
REMARK    2  A    between atoms: C_6  and  C_7 
REMARK    3  A    between atoms: C_7  and  C_8 
REMARK    4  A    between atoms: C_9  and  C_10 
REMARK    5  A    between atoms: N_17  and  C_18 
REMARK    6  A    between atoms: C_18  and  C_19 
REMARK    7  A    between atoms: C_19  and  O_20 
REMARK    8  A    between atoms: C_19  and  C_21 
REMARK    9  A    between atoms: C_21  and  N_22 
REMARK   10  A    between atoms: N_22  and  C_25 
REMARK   11  A    between atoms: C_25  and  C_26 
REMARK   12  A    between atoms: C_26  and  C_27 
REMARK   13  A    between atoms: C_32  and  O_33 
ROOT
HETATM    1  C   UNL     1      25.841  43.895  49.794  1.00  0.00     0.162 C 
ENDROOT
BRANCH   1   2
HETATM    2  N   UNL     1      24.809  44.835  49.381  1.00  0.00    -0.353 N 
HETATM    3  C   UNL     1      23.730  44.532  48.578  1.00  0.00     0.045 A 
HETATM    4  C   UNL     1      22.941  45.689  48.500  1.00  0.00     0.002 A 
HETATM    5  C   UNL     1      23.367  43.335  47.933  1.00  0.00     0.030 A 
HETATM    6  C   UNL     1      23.617  46.707  49.246  1.00  0.00    -0.008 A 
HETATM    7  C   UNL     1      21.729  45.613  47.775  1.00  0.00     0.014 A 
HETATM    8  C   UNL     1      24.756  46.142  49.780  1.00  0.00     0.103 A 
HETATM    9  C   UNL     1      21.364  44.427  47.129  1.00  0.00     0.001 A 
HETATM   10  C   UNL     1      22.179  43.305  47.204  1.00  0.00     0.002 A 
BRANCH   6  11
HETATM   11  C   UNL     1      23.269  48.074  49.489  1.00  0.00     0.018 C 
HETATM   12  C   UNL     1      22.123  48.680  49.144  1.00  0.00     0.056 C 
BRANCH  12  13
HETATM   13  C   UNL     1      21.907  50.110  49.502  1.00  0.00     0.182 C 
HETATM   14  O   UNL     1      22.820  50.799  49.950  1.00  0.00    -0.288 OA
BRANCH  13  15
HETATM   15  C   UNL     1      20.535  50.680  49.371  1.00  0.00     0.014 A 
HETATM   16  C   UNL     1      19.422  50.168  50.048  1.00  0.00     0.018 A 
HETATM   17  C   UNL     1      18.174  50.786  49.908  1.00  0.00     0.037 A 
HETATM   18  C   UNL     1      18.014  51.907  49.091  1.00  0.00     0.068 A 
HETATM   19  C   UNL     1      19.113  52.398  48.388  1.00  0.00     0.037 A 
HETATM   20  C   UNL     1      20.366  51.785  48.526  1.00  0.00     0.018 A 
BRANCH  18  21
HETATM   21  O   UNL     1      16.747  52.416  49.062  1.00  0.00    -0.356 OA
HETATM   22  C   UNL     1      16.375  53.281  50.129  1.00  0.00     0.210 C 
ENDBRANCH  18  21
ENDBRANCH  13  15
ENDBRANCH  12  13
ENDBRANCH   6  11
ENDBRANCH   1   2
BRANCH   1  23
HETATM   23  C   UNL     1      25.667  43.457  51.257  1.00  0.00     0.162 C 
BRANCH  23  24
HETATM   24  O   UNL     1      24.390  42.849  51.460  1.00  0.00    -0.392 OA
HETATM   25  H   UNL     1      24.090  42.445  50.618  1.00  0.00     0.210 HD
ENDBRANCH  23  24
BRANCH  23  26
HETATM   26  C   UNL     1      26.705  42.392  51.662  1.00  0.00     0.265 C 
BRANCH  26  27
HETATM   27  N   UNL     1      26.962  42.344  53.139  1.00  0.00    -0.072 N 
HETATM   28  H   UNL     1      26.416  43.051  53.648  1.00  0.00     0.277 HD
HETATM   29  H   UNL     1      26.652  41.428  53.496  1.00  0.00     0.277 HD
BRANCH  27  30
HETATM   30  C   UNL     1      28.415  42.490  53.526  1.00  0.00     0.237 C 
BRANCH  30  31
HETATM   31  C   UNL     1      28.935  43.901  53.246  1.00  0.00     0.068 C 
BRANCH  31  32
HETATM   32  C   UNL     1      28.575  44.850  54.337  1.00  0.00    -0.029 A 
HETATM   33  C   UNL     1      29.243  44.993  55.596  1.00  0.00     0.001 A 
HETATM   34  C   UNL     1      28.581  45.992  56.307  1.00  0.00     0.043 A 
HETATM   35  C   UNL     1      30.353  44.368  56.199  1.00  0.00     0.051 A 
HETATM   36  C   UNL     1      28.973  46.390  57.590  1.00  0.00     0.033 A 
HETATM   37  N   UNL     1      27.559  46.452  55.513  1.00  0.00    -0.365 N 
HETATM   38  C   UNL     1      30.076  45.746  58.168  1.00  0.00     0.039 A 
HETATM   39  C   UNL     1      30.764  44.746  57.486  1.00  0.00     0.069 A 
HETATM   40  H   UNL     1      26.923  47.196  55.771  1.00  0.00     0.165 HD
HETATM   41  C   UNL     1      27.540  45.765  54.326  1.00  0.00     0.096 A 
BRANCH  39  42
HETATM   42  O   UNL     1      31.849  44.053  57.952  1.00  0.00    -0.356 OA
HETATM   43  C   UNL     1      32.225  42.886  57.231  1.00  0.00     0.210 C 
ENDBRANCH  39  42
ENDBRANCH  31  32
ENDBRANCH  30  31
ENDBRANCH  27  30
ENDBRANCH  26  27
ENDBRANCH  23  26
ENDBRANCH   1  23
TORSDOF 13
ENDMDL
MODEL 7
REMARK VINA RESULT:      -9.0      3.070     12.012
REMARK  13 active torsions:
REMARK  status: ('A' for Active; 'I' for Inactive)
REMARK    1  A    between atoms: O_2  and  C_3 
REMARK    2  A    between atoms: C_6  and  C_7 
REMARK    3  A    between atoms: C_7  and  C_8 
REMARK    4  A    between atoms: C_9  and  C_10 
REMARK    5  A    between atoms: N_17  and  C_18 
REMARK    6  A    between atoms: C_18  and  C_19 
REMARK    7  A    between atoms: C_19  and  O_20 
REMARK    8  A    between atoms: C_19  and  C_21 
REMARK    9  A    between atoms: C_21  and  N_22 
REMARK   10  A    between atoms: N_22  and  C_25 
REMARK   11  A    between atoms: C_25  and  C_26 
REMARK   12  A    between atoms: C_26  and  C_27 
REMARK   13  A    between atoms: C_32  and  O_33 
ROOT
HETATM    1  C   UNL     1      22.667  49.141  48.387  1.00  0.00     0.162 C 
ENDROOT
BRANCH   1   2
HETATM    2  N   UNL     1      23.828  48.451  48.930  1.00  0.00    -0.353 N 
HETATM    3  C   UNL     1      25.128  48.905  48.867  1.00  0.00     0.045 A 
HETATM    4  C   UNL     1      25.916  47.992  49.584  1.00  0.00     0.002 A 
HETATM    5  C   UNL     1      25.676  50.051  48.262  1.00  0.00     0.030 A 
HETATM    6  C   UNL     1      25.043  46.950  50.034  1.00  0.00    -0.008 A 
HETATM    7  C   UNL     1      27.295  48.275  49.719  1.00  0.00     0.014 A 
HETATM    8  C   UNL     1      23.766  47.272  49.621  1.00  0.00     0.103 A 
HETATM    9  C   UNL     1      27.846  49.411  49.117  1.00  0.00     0.001 A 
HETATM   10  C   UNL     1      27.045  50.283  48.393  1.00  0.00     0.002 A 
BRANCH   6  11
HETATM   11  C   UNL     1      25.313  45.768  50.794  1.00  0.00     0.018 C 
HETATM   12  C   UNL     1      26.514  45.351  51.223  1.00  0.00     0.056 C 
BRANCH  12  13
HETATM   13  C   UNL     1      26.617  44.106  52.035  1.00  0.00     0.182 C 
HETATM   14  O   UNL     1      25.714  43.274  52.041  1.00  0.00    -0.288 OA
BRANCH  13  15
HETATM   15  C   UNL     1      27.815  43.917  52.903  1.00  0.00     0.014 A 
HETATM   16  C   UNL     1      28.007  44.601  54.109  1.00  0.00     0.018 A 
HETATM   17  C   UNL     1      29.137  44.336  54.890  1.00  0.00     0.037 A 
HETATM   18  C   UNL     1      30.090  43.400  54.482  1.00  0.00     0.068 A 
HETATM   19  C   UNL     1      29.920  42.743  53.265  1.00  0.00     0.037 A 
HETATM   20  C   UNL     1      28.789  43.002  52.479  1.00  0.00     0.018 A 
BRANCH  18  21
HETATM   21  O   UNL     1      31.131  43.230  55.351  1.00  0.00    -0.356 OA
HETATM   22  C   UNL     1      31.072  43.949  56.577  1.00  0.00     0.210 C 
ENDBRANCH  18  21
ENDBRANCH  13  15
ENDBRANCH  12  13
ENDBRANCH   6  11
ENDBRANCH   1   2
BRANCH   1  23
HETATM   23  C   UNL     1      21.579  49.361  49.449  1.00  0.00     0.162 C 
BRANCH  23  24
HETATM   24  O   UNL     1      22.003  50.315  50.425  1.00  0.00    -0.392 OA
HETATM   25  H   UNL     1      21.338  50.354  51.145  1.00  0.00     0.210 HD
ENDBRANCH  23  24
BRANCH  23  26
HETATM   26  C   UNL     1      20.288  49.937  48.834  1.00  0.00     0.265 C 
BRANCH  26  27
HETATM   27  N   UNL     1      19.038  49.398  49.464  1.00  0.00    -0.072 N 
HETATM   28  H   UNL     1      18.409  48.974  48.771  1.00  0.00     0.277 HD
HETATM   29  H   UNL     1      19.298  48.644  50.117  1.00  0.00     0.277 HD
BRANCH  27  30
HETATM   30  C   UNL     1      18.255  50.412  50.265  1.00  0.00     0.237 C 
BRANCH  30  31
HETATM   31  C   UNL     1      18.481  51.835  49.750  1.00  0.00     0.068 C 
BRANCH  31  32
HETATM   32  C   UNL     1      17.384  52.275  48.841  1.00  0.00    -0.029 A 
HETATM   33  C   UNL     1      16.152  52.892  49.230  1.00  0.00     0.001 A 
HETATM   34  C   UNL     1      15.425  53.139  48.067  1.00  0.00     0.043 A 
HETATM   35  C   UNL     1      15.584  53.267  50.464  1.00  0.00     0.051 A 
HETATM   36  C   UNL     1      14.160  53.737  48.081  1.00  0.00     0.033 A 
HETATM   37  N   UNL     1      16.186  52.706  47.008  1.00  0.00    -0.365 N 
HETATM   38  C   UNL     1      13.617  54.093  49.323  1.00  0.00     0.039 A 
HETATM   39  C   UNL     1      14.316  53.865  50.506  1.00  0.00     0.069 A 
HETATM   40  H   UNL     1      15.911  52.779  46.037  1.00  0.00     0.165 HD
HETATM   41  C   UNL     1      17.366  52.175  47.463  1.00  0.00     0.096 A 
BRANCH  39  42
HETATM   42  O   UNL     1      13.883  54.170  51.769  1.00  0.00    -0.356 OA
HETATM   43  C   UNL     1      14.511  55.270  52.416  1.00  0.00     0.210 C 
ENDBRANCH  39  42
ENDBRANCH  31  32
ENDBRANCH  30  31
ENDBRANCH  27  30
ENDBRANCH  26  27
ENDBRANCH  23  26
ENDBRANCH   1  23
TORSDOF 13
ENDMDL
MODEL 8
REMARK VINA RESULT:      -9.0      2.825     10.105
REMARK  13 active torsions:
REMARK  status: ('A' for Active; 'I' for Inactive)
REMARK    1  A    between atoms: O_2  and  C_3 
REMARK    2  A    between atoms: C_6  and  C_7 
REMARK    3  A    between atoms: C_7  and  C_8 
REMARK    4  A    between atoms: C_9  and  C_10 
REMARK    5  A    between atoms: N_17  and  C_18 
REMARK    6  A    between atoms: C_18  and  C_19 
REMARK    7  A    between atoms: C_19  and  O_20 
REMARK    8  A    between atoms: C_19  and  C_21 
REMARK    9  A    between atoms: C_21  and  N_22 
REMARK   10  A    between atoms: N_22  and  C_25 
REMARK   11  A    between atoms: C_25  and  C_26 
REMARK   12  A    between atoms: C_26  and  C_27 
REMARK   13  A    between atoms: C_32  and  O_33 
ROOT
HETATM    1  C   UNL     1      22.980  44.878  48.288  1.00  0.00     0.162 C 
ENDROOT
BRANCH   1   2
HETATM    2  N   UNL     1      23.775  44.358  49.390  1.00  0.00    -0.353 N 
HETATM    3  C   UNL     1      24.374  43.117  49.427  1.00  0.00     0.045 A 
HETATM    4  C   UNL     1      25.112  43.053  50.618  1.00  0.00     0.002 A 
HETATM    5  C   UNL     1      24.349  42.054  48.505  1.00  0.00     0.030 A 
HETATM    6  C   UNL     1      24.890  44.285  51.314  1.00  0.00    -0.008 A 
HETATM    7  C   UNL     1      25.876  41.887  50.859  1.00  0.00     0.014 A 
HETATM    8  C   UNL     1      24.071  45.065  50.523  1.00  0.00     0.103 A 
HETATM    9  C   UNL     1      25.853  40.826  49.948  1.00  0.00     0.001 A 
HETATM   10  C   UNL     1      25.093  40.909  48.789  1.00  0.00     0.002 A 
BRANCH   6  11
HETATM   11  C   UNL     1      25.384  44.748  52.574  1.00  0.00     0.018 C 
HETATM   12  C   UNL     1      26.233  45.769  52.772  1.00  0.00     0.056 C 
BRANCH  12  13
HETATM   13  C   UNL     1      26.625  46.144  54.160  1.00  0.00     0.182 C 
HETATM   14  O   UNL     1      25.941  46.913  54.829  1.00  0.00    -0.288 OA
BRANCH  13  15
HETATM   15  C   UNL     1      27.910  45.619  54.705  1.00  0.00     0.014 A 
HETATM   16  C   UNL     1      28.646  46.270  55.702  1.00  0.00     0.018 A 
HETATM   17  C   UNL     1      29.822  45.692  56.194  1.00  0.00     0.037 A 
HETATM   18  C   UNL     1      30.284  44.471  55.698  1.00  0.00     0.068 A 
HETATM   19  C   UNL     1      29.573  43.837  54.680  1.00  0.00     0.037 A 
HETATM   20  C   UNL     1      28.394  44.410  54.186  1.00  0.00     0.018 A 
BRANCH  18  21
HETATM   21  O   UNL     1      31.433  44.017  56.281  1.00  0.00    -0.356 OA
HETATM   22  C   UNL     1      31.470  43.997  57.703  1.00  0.00     0.210 C 
ENDBRANCH  18  21
ENDBRANCH  13  15
ENDBRANCH  12  13
ENDBRANCH   6  11
ENDBRANCH   1   2
BRANCH   1  23
HETATM   23  C   UNL     1      21.482  44.586  48.471  1.00  0.00     0.162 C 
BRANCH  23  24
HETATM   24  O   UNL     1      21.170  44.363  49.848  1.00  0.00    -0.392 OA
HETATM   25  H   UNL     1      21.992  44.132  50.330  1.00  0.00     0.210 HD
ENDBRANCH  23  24
BRANCH  23  26
HETATM   26  C   UNL     1      20.610  45.779  48.033  1.00  0.00     0.265 C 
BRANCH  26  27
HETATM   27  N   UNL     1      19.515  46.104  49.007  1.00  0.00    -0.072 N 
HETATM   28  H   UNL     1      18.760  45.407  48.983  1.00  0.00     0.277 HD
HETATM   29  H   UNL     1      19.905  46.074  49.960  1.00  0.00     0.277 HD
BRANCH  27  30
HETATM   30  C   UNL     1      18.908  47.476  48.829  1.00  0.00     0.237 C 
BRANCH  30  31
HETATM   31  C   UNL     1      19.379  48.446  49.914  1.00  0.00     0.068 C 
BRANCH  31  32
HETATM   32  C   UNL     1      20.185  49.564  49.344  1.00  0.00    -0.029 A 
HETATM   33  C   UNL     1      21.592  49.550  49.079  1.00  0.00     0.001 A 
HETATM   34  C   UNL     1      21.928  50.794  48.548  1.00  0.00     0.043 A 
HETATM   35  C   UNL     1      22.616  48.594  49.239  1.00  0.00     0.051 A 
HETATM   36  C   UNL     1      23.235  51.127  48.175  1.00  0.00     0.033 A 
HETATM   37  N   UNL     1      20.772  51.534  48.477  1.00  0.00    -0.365 N 
HETATM   38  C   UNL     1      24.233  50.160  48.352  1.00  0.00     0.039 A 
HETATM   39  C   UNL     1      23.935  48.905  48.877  1.00  0.00     0.069 A 
HETATM   40  H   UNL     1      20.717  52.476  48.110  1.00  0.00     0.165 HD
HETATM   41  C   UNL     1      19.716  50.806  48.962  1.00  0.00     0.096 A 
BRANCH  39  42
HETATM   42  O   UNL     1      24.827  47.889  49.092  1.00  0.00    -0.356 OA
HETATM   43  C   UNL     1      26.092  48.249  49.636  1.00  0.00     0.210 C 
ENDBRANCH  39  42
ENDBRANCH  31  32
ENDBRANCH  30  31
ENDBRANCH  27  30
ENDBRANCH  26  27
ENDBRANCH  23  26
ENDBRANCH   1  23
TORSDOF 13
ENDMDL
MODEL 9
REMARK VINA RESULT:      -8.8      1.885      2.961
REMARK  13 active torsions:
REMARK  status: ('A' for Active; 'I' for Inactive)
REMARK    1  A    between atoms: O_2  and  C_3 
REMARK    2  A    between atoms: C_6  and  C_7 
REMARK    3  A    between atoms: C_7  and  C_8 
REMARK    4  A    between atoms: C_9  and  C_10 
REMARK    5  A    between atoms: N_17  and  C_18 
REMARK    6  A    between atoms: C_18  and  C_19 
REMARK    7  A    between atoms: C_19  and  O_20 
REMARK    8  A    between atoms: C_19  and  C_21 
REMARK    9  A    between atoms: C_21  and  N_22 
REMARK   10  A    between atoms: N_22  and  C_25 
REMARK   11  A    between atoms: C_25  and  C_26 
REMARK   12  A    between atoms: C_26  and  C_27 
REMARK   13  A    between atoms: C_32  and  O_33 
ROOT
HETATM    1  C   UNL     1      24.960  44.008  50.768  1.00  0.00     0.162 C 
ENDROOT
BRANCH   1   2
HETATM    2  N   UNL     1      24.203  44.861  49.864  1.00  0.00    -0.353 N 
HETATM    3  C   UNL     1      23.426  44.420  48.814  1.00  0.00     0.045 A 
HETATM    4  C   UNL     1      22.805  45.549  48.262  1.00  0.00     0.002 A 
HETATM    5  C   UNL     1      23.198  43.123  48.317  1.00  0.00     0.030 A 
HETATM    6  C   UNL     1      23.280  46.687  48.991  1.00  0.00    -0.008 A 
HETATM    7  C   UNL     1      21.896  45.348  47.197  1.00  0.00     0.014 A 
HETATM    8  C   UNL     1      24.130  46.222  49.974  1.00  0.00     0.103 A 
HETATM    9  C   UNL     1      21.667  44.062  46.697  1.00  0.00     0.001 A 
HETATM   10  C   UNL     1      22.317  42.965  47.248  1.00  0.00     0.002 A 
BRANCH   6  11
HETATM   11  C   UNL     1      22.986  48.079  48.846  1.00  0.00     0.018 C 
HETATM   12  C   UNL     1      21.818  48.682  49.119  1.00  0.00     0.056 C 
BRANCH  12  13
HETATM   13  C   UNL     1      21.688  50.155  48.941  1.00  0.00     0.182 C 
HETATM   14  O   UNL     1      22.665  50.854  48.682  1.00  0.00    -0.288 OA
BRANCH  13  15
HETATM   15  C   UNL     1      20.353  50.785  49.152  1.00  0.00     0.014 A 
HETATM   16  C   UNL     1      19.411  50.303  50.067  1.00  0.00     0.018 A 
HETATM   17  C   UNL     1      18.196  50.975  50.240  1.00  0.00     0.037 A 
HETATM   18  C   UNL     1      17.899  52.124  49.503  1.00  0.00     0.068 A 
HETATM   19  C   UNL     1      18.820  52.588  48.566  1.00  0.00     0.037 A 
HETATM   20  C   UNL     1      20.040  51.920  48.390  1.00  0.00     0.018 A 
BRANCH  18  21
HETATM   21  O   UNL     1      16.687  52.687  49.787  1.00  0.00    -0.356 OA
HETATM   22  C   UNL     1      15.582  52.271  48.993  1.00  0.00     0.210 C 
ENDBRANCH  18  21
ENDBRANCH  13  15
ENDBRANCH  12  13
ENDBRANCH   6  11
ENDBRANCH   1   2
BRANCH   1  23
HETATM   23  C   UNL     1      26.230  43.451  50.106  1.00  0.00     0.162 C 
BRANCH  23  24
HETATM   24  O   UNL     1      26.777  44.391  49.178  1.00  0.00    -0.392 OA
HETATM   25  H   UNL     1      26.043  44.828  48.695  1.00  0.00     0.210 HD
ENDBRANCH  23  24
BRANCH  23  26
HETATM   26  C   UNL     1      27.344  43.187  51.138  1.00  0.00     0.265 C 
BRANCH  26  27
HETATM   27  N   UNL     1      26.931  42.246  52.231  1.00  0.00    -0.072 N 
HETATM   28  H   UNL     1      26.214  42.657  52.842  1.00  0.00     0.277 HD
HETATM   29  H   UNL     1      26.502  41.414  51.802  1.00  0.00     0.277 HD
BRANCH  27  30
HETATM   30  C   UNL     1      28.070  41.751  53.092  1.00  0.00     0.237 C 
BRANCH  30  31
HETATM   31  C   UNL     1      29.334  42.590  52.894  1.00  0.00     0.068 C 
BRANCH  31  32
HETATM   32  C   UNL     1      29.667  43.382  54.111  1.00  0.00    -0.029 A 
HETATM   33  C   UNL     1      28.943  44.508  54.620  1.00  0.00     0.001 A 
HETATM   34  C   UNL     1      29.598  44.939  55.772  1.00  0.00     0.043 A 
HETATM   35  C   UNL     1      27.787  45.203  54.209  1.00  0.00     0.051 A 
HETATM   36  C   UNL     1      29.156  46.031  56.527  1.00  0.00     0.033 A 
HETATM   37  N   UNL     1      30.670  44.104  55.970  1.00  0.00    -0.365 N 
HETATM   38  C   UNL     1      28.008  46.707  56.091  1.00  0.00     0.039 A 
HETATM   39  C   UNL     1      27.325  46.303  54.947  1.00  0.00     0.069 A 
HETATM   40  H   UNL     1      31.314  44.173  56.748  1.00  0.00     0.165 HD
HETATM   41  C   UNL     1      30.728  43.166  54.971  1.00  0.00     0.096 A 
BRANCH  39  42
HETATM   42  O   UNL     1      26.200  46.889  54.432  1.00  0.00    -0.356 OA
HETATM   43  C   UNL     1      26.076  46.909  53.014  1.00  0.00     0.210 C 
ENDBRANCH  39  42
ENDBRANCH  31  32
ENDBRANCH  30  31
ENDBRANCH  27  30
ENDBRANCH  26  27
ENDBRANCH  23  26
ENDBRANCH   1  23
TORSDOF 13
ENDMDL
MODEL 10
REMARK VINA RESULT:      -8.8      3.067     10.187
REMARK  13 active torsions:
REMARK  status: ('A' for Active; 'I' for Inactive)
REMARK    1  A    between atoms: O_2  and  C_3 
REMARK    2  A    between atoms: C_6  and  C_7 
REMARK    3  A    between atoms: C_7  and  C_8 
REMARK    4  A    between atoms: C_9  and  C_10 
REMARK    5  A    between atoms: N_17  and  C_18 
REMARK    6  A    between atoms: C_18  and  C_19 
REMARK    7  A    between atoms: C_19  and  O_20 
REMARK    8  A    between atoms: C_19  and  C_21 
REMARK    9  A    between atoms: C_21  and  N_22 
REMARK   10  A    between atoms: N_22  and  C_25 
REMARK   11  A    between atoms: C_25  and  C_26 
REMARK   12  A    between atoms: C_26  and  C_27 
REMARK   13  A    between atoms: C_32  and  O_33 
ROOT
HETATM    1  C   UNL     1      22.658  48.994  48.382  1.00  0.00     0.162 C 
ENDROOT
BRANCH   1   2
HETATM    2  N   UNL     1      23.824  48.324  48.938  1.00  0.00    -0.353 N 
HETATM    3  C   UNL     1      25.118  48.797  48.880  1.00  0.00     0.045 A 
HETATM    4  C   UNL     1      25.914  47.900  49.609  1.00  0.00     0.002 A 
HETATM    5  C   UNL     1      25.654  49.947  48.271  1.00  0.00     0.030 A 
HETATM    6  C   UNL     1      25.053  46.849  50.061  1.00  0.00    -0.008 A 
HETATM    7  C   UNL     1      27.288  48.204  49.752  1.00  0.00     0.014 A 
HETATM    8  C   UNL     1      23.775  47.150  49.636  1.00  0.00     0.103 A 
HETATM    9  C   UNL     1      27.826  49.344  49.146  1.00  0.00     0.001 A 
HETATM   10  C   UNL     1      27.018  50.199  48.410  1.00  0.00     0.002 A 
BRANCH   6  11
HETATM   11  C   UNL     1      25.334  45.677  50.831  1.00  0.00     0.018 C 
HETATM   12  C   UNL     1      26.319  44.793  50.609  1.00  0.00     0.056 C 
BRANCH  12  13
HETATM   13  C   UNL     1      26.494  43.635  51.531  1.00  0.00     0.182 C 
HETATM   14  O   UNL     1      25.716  42.685  51.514  1.00  0.00    -0.288 OA
BRANCH  13  15
HETATM   15  C   UNL     1      27.598  43.680  52.532  1.00  0.00     0.014 A 
HETATM   16  C   UNL     1      27.500  44.350  53.757  1.00  0.00     0.018 A 
HETATM   17  C   UNL     1      28.565  44.310  54.663  1.00  0.00     0.037 A 
HETATM   18  C   UNL     1      29.738  43.615  54.363  1.00  0.00     0.068 A 
HETATM   19  C   UNL     1      29.854  42.976  53.130  1.00  0.00     0.037 A 
HETATM   20  C   UNL     1      28.790  43.011  52.219  1.00  0.00     0.018 A 
BRANCH  18  21
HETATM   21  O   UNL     1      30.687  43.645  55.346  1.00  0.00    -0.356 OA
HETATM   22  C   UNL     1      30.691  44.780  56.203  1.00  0.00     0.210 C 
ENDBRANCH  18  21
ENDBRANCH  13  15
ENDBRANCH  12  13
ENDBRANCH   6  11
ENDBRANCH   1   2
BRANCH   1  23
HETATM   23  C   UNL     1      21.797  49.652  49.472  1.00  0.00     0.162 C 
BRANCH  23  24
HETATM   24  O   UNL     1      22.593  50.485  50.317  1.00  0.00    -0.392 OA
HETATM   25  H   UNL     1      22.328  51.421  50.187  1.00  0.00     0.210 HD
ENDBRANCH  23  24
BRANCH  23  26
HETATM   26  C   UNL     1      20.720  50.576  48.870  1.00  0.00     0.265 C 
BRANCH  26  27
HETATM   27  N   UNL     1      19.348  50.327  49.424  1.00  0.00    -0.072 N 
HETATM   28  H   UNL     1      19.370  50.124  50.431  1.00  0.00     0.277 HD
HETATM   29  H   UNL     1      18.790  51.187  49.316  1.00  0.00     0.277 HD
BRANCH  27  30
HETATM   30  C   UNL     1      18.584  49.225  48.729  1.00  0.00     0.237 C 
BRANCH  30  31
HETATM   31  C   UNL     1      18.755  47.882  49.442  1.00  0.00     0.068 C 
BRANCH  31  32
HETATM   32  C   UNL     1      18.438  46.735  48.544  1.00  0.00    -0.029 A 
HETATM   33  C   UNL     1      19.382  45.876  47.894  1.00  0.00     0.001 A 
HETATM   34  C   UNL     1      18.656  44.941  47.159  1.00  0.00     0.043 A 
HETATM   35  C   UNL     1      20.789  45.804  47.862  1.00  0.00     0.051 A 
HETATM   36  C   UNL     1      19.269  43.943  46.393  1.00  0.00     0.033 A 
HETATM   37  N   UNL     1      17.323  45.206  47.362  1.00  0.00    -0.365 N 
HETATM   38  C   UNL     1      20.669  43.900  46.374  1.00  0.00     0.039 A 
HETATM   39  C   UNL     1      21.428  44.816  47.098  1.00  0.00     0.069 A 
HETATM   40  H   UNL     1      16.564  44.668  46.962  1.00  0.00     0.165 HD
HETATM   41  C   UNL     1      17.179  46.291  48.189  1.00  0.00     0.096 A 
BRANCH  39  42
HETATM   42  O   UNL     1      22.795  44.866  47.151  1.00  0.00    -0.356 OA
HETATM   43  C   UNL     1      23.444  43.888  47.956  1.00  0.00     0.210 C 
ENDBRANCH  39  42
ENDBRANCH  31  32
ENDBRANCH  30  31
ENDBRANCH  27  30
ENDBRANCH  26  27
ENDBRANCH  23  26
ENDBRANCH   1  23
TORSDOF 13
ENDMDL
