MODEL 1
REMARK VINA RESULT:      -9.9      0.000      0.000
REMARK  6 active torsions:
REMARK  status: ('A' for Active; 'I' for Inactive)
REMARK    1  A    between atoms: C_4  and  C_5 
REMARK    2  A    between atoms: C_5  and  N_6 
REMARK    3  A    between atoms: C_5  and  C_25 
REMARK    4  A    between atoms: N_10  and  C_11 
REMARK    5  A    between atoms: C_15  and  C_16 
REMARK       I    between atoms: C_25  and  N_26 
REMARK    6  A    between atoms: N_26  and  C_27 
ROOT
HETATM    1  N   UNL     1      26.841  43.932  51.405  1.00  0.00    -0.051 N 
HETATM    2  H   UNL     1      26.154  43.339  51.909  1.00  0.00     0.281 HD
HETATM    3  C   UNL     1      26.725  45.300  52.054  1.00  0.00     0.256 C 
HETATM    4  C   UNL     1      25.272  45.811  51.935  1.00  0.00     0.152 C 
HETATM    5  N   UNL     1      24.781  45.788  50.540  1.00  0.00    -0.363 N 
HETATM    6  C   UNL     1      25.060  44.574  49.736  1.00  0.00     0.152 C 
HETATM    7  C   UNL     1      26.475  43.969  49.944  1.00  0.00     0.256 C 
ENDROOT
BRANCH   1   8
HETATM    8  C   UNL     1      28.171  43.178  51.719  1.00  0.00     0.312 C 
BRANCH   8   9
HETATM    9  C   UNL     1      28.778  43.545  53.058  1.00  0.00    -0.018 A 
HETATM   10  C   UNL     1      28.185  44.491  53.914  1.00  0.00     0.010 A 
HETATM   11  C   UNL     1      28.793  44.836  55.122  1.00  0.00     0.001 A 
HETATM   12  C   UNL     1      29.995  44.242  55.494  1.00  0.00     0.000 A 
HETATM   13  C   UNL     1      30.592  43.300  54.663  1.00  0.00     0.001 A 
HETATM   14  C   UNL     1      29.991  42.953  53.453  1.00  0.00     0.010 A 
ENDBRANCH   8   9
BRANCH   8  15
HETATM   15  C   UNL     1      27.933  41.666  51.484  1.00  0.00     0.259 C 
HETATM   16  N   UNL     1      28.469  41.139  50.336  1.00  0.00    -0.304 N 
HETATM   17  H   UNL     1      29.032  41.674  49.686  1.00  0.00     0.171 HD
HETATM   18  O   UNL     1      27.229  41.093  52.323  1.00  0.00    -0.270 OA
BRANCH  16  19
HETATM   19  C   UNL     1      28.306  39.818  50.019  1.00  0.00     0.172 A 
HETATM   20  S   UNL     1      26.905  39.481  49.107  1.00  0.00    -0.062 SA
HETATM   21  C   UNL     1      27.335  37.819  49.108  1.00  0.00     0.072 A 
HETATM   22  C   UNL     1      28.518  37.651  49.799  1.00  0.00     0.126 A 
HETATM   23  N   UNL     1      29.075  38.806  50.318  1.00  0.00    -0.236 NA
ENDBRANCH  16  19
ENDBRANCH   8  15
ENDBRANCH   1   8
BRANCH   5  24
HETATM   24  C   UNL     1      24.496  46.992  49.935  1.00  0.00     0.125 A 
HETATM   25  N   UNL     1      23.185  47.291  49.826  1.00  0.00    -0.350 N 
HETATM   26  H   UNL     1      22.529  46.589  50.167  1.00  0.00     0.166 HD
HETATM   27  C   UNL     1      22.708  48.419  49.274  1.00  0.00     0.106 A 
HETATM   28  C   UNL     1      23.584  49.377  48.776  1.00  0.00     0.065 A 
HETATM   29  C   UNL     1      24.956  49.118  48.847  1.00  0.00     0.045 A 
HETATM   30  C   UNL     1      25.415  47.934  49.428  1.00  0.00     0.078 A 
HETATM   31 CL   UNL     1      27.118  47.716  49.556  1.00  0.00    -0.080 Cl
BRANCH  28  32
HETATM   32  C   UNL     1      23.036  50.634  48.150  1.00  0.00     0.418 C 
HETATM   33  F   UNL     1      22.258  50.350  47.075  1.00  0.00    -0.166 F 
HETATM   34  F   UNL     1      22.278  51.356  49.006  1.00  0.00    -0.166 F 
HETATM   35  F   UNL     1      24.030  51.440  47.711  1.00  0.00    -0.166 F 
ENDBRANCH  28  32
ENDBRANCH   5  24
TORSDOF 6
ENDMDL
MODEL 2
REMARK VINA RESULT:      -9.9      2.501      4.515
REMARK  6 active torsions:
REMARK  status: ('A' for Active; 'I' for Inactive)
REMARK    1  A    between atoms: C_4  and  C_5 
REMARK    2  A    between atoms: C_5  and  N_6 
REMARK    3  A    between atoms: C_5  and  C_25 
REMARK    4  A    between atoms: N_10  and  C_11 
REMARK    5  A    between atoms: C_15  and  C_16 
REMARK       I    between atoms: C_25  and  N_26 
REMARK    6  A    between atoms: N_26  and  C_27 
ROOT
HETATM    1  N   UNL     1      26.523  44.783  51.697  1.00  0.00    -0.051 N 
HETATM    2  H   UNL     1      27.545  44.958  51.738  1.00  0.00     0.281 HD
HETATM    3  C   UNL     1      26.182  44.818  50.217  1.00  0.00     0.256 C 
HETATM    4  C   UNL     1      26.594  46.181  49.620  1.00  0.00     0.152 C 
HETATM    5  N   UNL     1      26.024  47.319  50.372  1.00  0.00    -0.363 N 
HETATM    6  C   UNL     1      26.092  47.265  51.853  1.00  0.00     0.152 C 
HETATM    7  C   UNL     1      25.811  45.866  52.464  1.00  0.00     0.256 C 
ENDROOT
BRANCH   1   8
HETATM    8  C   UNL     1      26.437  43.366  52.347  1.00  0.00     0.312 C 
BRANCH   8   9
HETATM    9  C   UNL     1      26.681  42.232  51.372  1.00  0.00    -0.018 A 
HETATM   10  C   UNL     1      25.636  41.637  50.641  1.00  0.00     0.010 A 
HETATM   11  C   UNL     1      25.890  40.566  49.782  1.00  0.00     0.001 A 
HETATM   12  C   UNL     1      27.184  40.078  49.638  1.00  0.00     0.000 A 
HETATM   13  C   UNL     1      28.231  40.659  50.348  1.00  0.00     0.001 A 
HETATM   14  C   UNL     1      27.983  41.727  51.210  1.00  0.00     0.010 A 
ENDBRANCH   8   9
BRANCH   8  15
HETATM   15  C   UNL     1      27.331  43.365  53.612  1.00  0.00     0.259 C 
HETATM   16  N   UNL     1      28.535  44.013  53.504  1.00  0.00    -0.304 N 
HETATM   17  H   UNL     1      28.829  44.511  52.672  1.00  0.00     0.171 HD
HETATM   18  O   UNL     1      26.898  42.727  54.578  1.00  0.00    -0.270 OA
BRANCH  16  19
HETATM   19  C   UNL     1      29.412  44.060  54.554  1.00  0.00     0.172 A 
HETATM   20  S   UNL     1      29.201  45.399  55.588  1.00  0.00    -0.062 SA
HETATM   21  C   UNL     1      30.514  44.837  56.540  1.00  0.00     0.072 A 
HETATM   22  C   UNL     1      31.008  43.668  55.999  1.00  0.00     0.126 A 
HETATM   23  N   UNL     1      30.367  43.222  54.857  1.00  0.00    -0.236 NA
ENDBRANCH  16  19
ENDBRANCH   8  15
ENDBRANCH   1   8
BRANCH   5  24
HETATM   24  C   UNL     1      25.107  48.124  49.732  1.00  0.00     0.125 A 
HETATM   25  N   UNL     1      23.812  47.808  49.939  1.00  0.00    -0.350 N 
HETATM   26  H   UNL     1      23.631  46.987  50.516  1.00  0.00     0.166 HD
HETATM   27  C   UNL     1      22.774  48.476  49.408  1.00  0.00     0.106 A 
HETATM   28  C   UNL     1      22.998  49.580  48.594  1.00  0.00     0.065 A 
HETATM   29  C   UNL     1      24.320  49.950  48.331  1.00  0.00     0.045 A 
HETATM   30  C   UNL     1      25.374  49.230  48.899  1.00  0.00     0.078 A 
HETATM   31 CL   UNL     1      26.974  49.789  48.600  1.00  0.00    -0.080 Cl
BRANCH  28  32
HETATM   32  C   UNL     1      21.826  50.315  47.997  1.00  0.00     0.418 C 
HETATM   33  F   UNL     1      21.992  50.509  46.664  1.00  0.00    -0.166 F 
HETATM   34  F   UNL     1      20.657  49.652  48.157  1.00  0.00    -0.166 F 
HETATM   35  F   UNL     1      21.676  51.540  48.553  1.00  0.00    -0.166 F 
ENDBRANCH  28  32
ENDBRANCH   5  24
TORSDOF 6
ENDMDL
MODEL 3
REMARK VINA RESULT:      -9.6      5.416      8.772
REMARK  6 active torsions:
REMARK  status: ('A' for Active; 'I' for Inactive)
REMARK    1  A    between atoms: C_4  and  C_5 
REMARK    2  A    between atoms: C_5  and  N_6 
REMARK    3  A    between atoms: C_5  and  C_25 
REMARK    4  A    between atoms: N_10  and  C_11 
REMARK    5  A    between atoms: C_15  and  C_16 
REMARK       I    between atoms: C_25  and  N_26 
REMARK    6  A    between atoms: N_26  and  C_27 
ROOT
HETATM    1  N   UNL     1      25.098  45.458  50.795  1.00  0.00    -0.051 N 
HETATM    2  H   UNL     1      24.711  44.640  50.287  1.00  0.00     0.281 HD
HETATM    3  C   UNL     1      26.588  45.430  50.500  1.00  0.00     0.256 C 
HETATM    4  C   UNL     1      27.185  44.084  50.965  1.00  0.00     0.152 C 
HETATM    5  N   UNL     1      26.868  43.786  52.378  1.00  0.00    -0.363 N 
HETATM    6  C   UNL     1      25.474  44.015  52.830  1.00  0.00     0.152 C 
HETATM    7  C   UNL     1      24.812  45.300  52.265  1.00  0.00     0.256 C 
ENDROOT
BRANCH   1   8
HETATM    8  C   UNL     1      24.326  46.628  50.107  1.00  0.00     0.312 C 
BRANCH   8   9
HETATM    9  C   UNL     1      25.226  47.722  49.571  1.00  0.00    -0.018 A 
HETATM   10  C   UNL     1      26.615  47.725  49.797  1.00  0.00     0.010 A 
HETATM   11  C   UNL     1      27.410  48.770  49.324  1.00  0.00     0.001 A 
HETATM   12  C   UNL     1      26.834  49.822  48.620  1.00  0.00     0.000 A 
HETATM   13  C   UNL     1      25.463  49.833  48.381  1.00  0.00     0.001 A 
HETATM   14  C   UNL     1      24.663  48.792  48.854  1.00  0.00     0.010 A 
ENDBRANCH   8   9
BRANCH   8  15
HETATM   15  C   UNL     1      23.337  46.014  49.085  1.00  0.00     0.259 C 
HETATM   16  N   UNL     1      22.042  46.463  49.149  1.00  0.00    -0.304 N 
HETATM   17  H   UNL     1      21.733  47.186  49.787  1.00  0.00     0.171 HD
HETATM   18  O   UNL     1      23.798  45.133  48.350  1.00  0.00    -0.270 OA
BRANCH  16  19
HETATM   19  C   UNL     1      21.081  45.977  48.305  1.00  0.00     0.172 A 
HETATM   20  S   UNL     1      20.850  46.903  46.892  1.00  0.00    -0.062 SA
HETATM   21  C   UNL     1      19.627  45.802  46.402  1.00  0.00     0.072 A 
HETATM   22  C   UNL     1      19.494  44.810  47.351  1.00  0.00     0.126 A 
HETATM   23  N   UNL     1      20.337  44.913  48.444  1.00  0.00    -0.236 NA
ENDBRANCH  16  19
ENDBRANCH   8  15
ENDBRANCH   1   8
BRANCH   5  24
HETATM   24  C   UNL     1      27.909  43.740  53.279  1.00  0.00     0.125 A 
HETATM   25  N   UNL     1      28.045  44.826  54.066  1.00  0.00    -0.350 N 
HETATM   26  H   UNL     1      27.393  45.592  53.900  1.00  0.00     0.166 HD
HETATM   27  C   UNL     1      28.993  44.967  55.007  1.00  0.00     0.106 A 
HETATM   28  C   UNL     1      29.912  43.948  55.230  1.00  0.00     0.065 A 
HETATM   29  C   UNL     1      29.831  42.801  54.436  1.00  0.00     0.045 A 
HETATM   30  C   UNL     1      28.833  42.690  53.466  1.00  0.00     0.078 A 
HETATM   31 CL   UNL     1      28.741  41.217  52.580  1.00  0.00    -0.080 Cl
BRANCH  28  32
HETATM   32  C   UNL     1      30.976  44.122  56.283  1.00  0.00     0.418 C 
HETATM   33  F   UNL     1      32.118  44.627  55.751  1.00  0.00    -0.166 F 
HETATM   34  F   UNL     1      30.598  44.961  57.274  1.00  0.00    -0.166 F 
HETATM   35  F   UNL     1      31.302  42.940  56.855  1.00  0.00    -0.166 F 
ENDBRANCH  28  32
ENDBRANCH   5  24
TORSDOF 6
ENDMDL
MODEL 4
REMARK VINA RESULT:      -9.5      2.985      5.250
REMARK  6 active torsions:
REMARK  status: ('A' for Active; 'I' for Inactive)
REMARK    1  A    between atoms: C_4  and  C_5 
REMARK    2  A    between atoms: C_5  and  N_6 
REMARK    3  A    between atoms: C_5  and  C_25 
REMARK    4  A    between atoms: N_10  and  C_11 
REMARK    5  A    between atoms: C_15  and  C_16 
REMARK       I    between atoms: C_25  and  N_26 
REMARK    6  A    between atoms: N_26  and  C_27 
ROOT
HETATM    1  N   UNL     1      24.633  45.258  50.248  1.00  0.00    -0.051 N 
HETATM    2  H   UNL     1      25.336  45.073  49.508  1.00  0.00     0.281 HD
HETATM    3  C   UNL     1      23.299  45.278  49.522  1.00  0.00     0.256 C 
HETATM    4  C   UNL     1      23.324  46.359  48.419  1.00  0.00     0.152 C 
HETATM    5  N   UNL     1      23.720  47.685  48.940  1.00  0.00    -0.363 N 
HETATM    6  C   UNL     1      24.880  47.739  49.862  1.00  0.00     0.152 C 
HETATM    7  C   UNL     1      24.942  46.582  50.895  1.00  0.00     0.256 C 
ENDROOT
BRANCH   1   8
HETATM    8  C   UNL     1      24.845  44.019  51.175  1.00  0.00     0.312 C 
BRANCH   8   9
HETATM    9  C   UNL     1      25.606  42.887  50.515  1.00  0.00    -0.018 A 
HETATM   10  C   UNL     1      26.375  43.080  49.352  1.00  0.00     0.010 A 
HETATM   11  C   UNL     1      27.030  42.007  48.747  1.00  0.00     0.001 A 
HETATM   12  C   UNL     1      26.930  40.731  49.291  1.00  0.00     0.000 A 
HETATM   13  C   UNL     1      26.179  40.522  50.444  1.00  0.00     0.001 A 
HETATM   14  C   UNL     1      25.521  41.591  51.052  1.00  0.00     0.010 A 
ENDBRANCH   8   9
BRANCH   8  15
HETATM   15  C   UNL     1      25.426  44.521  52.520  1.00  0.00     0.259 C 
HETATM   16  N   UNL     1      26.753  44.871  52.515  1.00  0.00    -0.304 N 
HETATM   17  H   UNL     1      27.331  44.855  51.683  1.00  0.00     0.171 HD
HETATM   18  O   UNL     1      24.652  44.500  53.483  1.00  0.00    -0.270 OA
BRANCH  16  19
HETATM   19  C   UNL     1      27.375  45.311  53.651  1.00  0.00     0.172 A 
HETATM   20  S   UNL     1      28.554  44.245  54.267  1.00  0.00    -0.062 SA
HETATM   21  C   UNL     1      28.847  45.350  55.548  1.00  0.00     0.072 A 
HETATM   22  C   UNL     1      28.026  46.450  55.403  1.00  0.00     0.126 A 
HETATM   23  N   UNL     1      27.183  46.425  54.306  1.00  0.00    -0.236 NA
ENDBRANCH  16  19
ENDBRANCH   8  15
ENDBRANCH   1   8
BRANCH   5  24
HETATM   24  C   UNL     1      22.786  48.697  48.912  1.00  0.00     0.125 A 
HETATM   25  N   UNL     1      21.588  48.397  49.453  1.00  0.00    -0.350 N 
HETATM   26  H   UNL     1      21.471  47.445  49.799  1.00  0.00     0.166 HD
HETATM   27  C   UNL     1      20.553  49.251  49.526  1.00  0.00     0.106 A 
HETATM   28  C   UNL     1      20.681  50.544  49.034  1.00  0.00     0.065 A 
HETATM   29  C   UNL     1      21.895  50.912  48.447  1.00  0.00     0.045 A 
HETATM   30  C   UNL     1      22.949  49.996  48.389  1.00  0.00     0.078 A 
HETATM   31 CL   UNL     1      24.442  50.540  47.727  1.00  0.00    -0.080 Cl
BRANCH  28  32
HETATM   32  C   UNL     1      19.510  51.490  49.113  1.00  0.00     0.418 C 
HETATM   33  F   UNL     1      18.387  50.928  48.596  1.00  0.00    -0.166 F 
HETATM   34  F   UNL     1      19.219  51.857  50.382  1.00  0.00    -0.166 F 
HETATM   35  F   UNL     1      19.740  52.620  48.406  1.00  0.00    -0.166 F 
ENDBRANCH  28  32
ENDBRANCH   5  24
TORSDOF 6
ENDMDL
MODEL 5
REMARK VINA RESULT:      -9.4      2.344      2.851
REMARK  6 active torsions:
REMARK  status: ('A' for Active; 'I' for Inactive)
REMARK    1  A    between atoms: C_4  and  C_5 
REMARK    2  A    between atoms: C_5  and  N_6 
REMARK    3  A    between atoms: C_5  and  C_25 
REMARK    4  A    between atoms: N_10  and  C_11 
REMARK    5  A    between atoms: C_15  and  C_16 
REMARK       I    between atoms: C_25  and  N_26 
REMARK    6  A    between atoms: N_26  and  C_27 
ROOT
HETATM    1  N   UNL     1      27.241  44.178  51.641  1.00  0.00    -0.051 N 
HETATM    2  H   UNL     1      27.287  44.913  52.372  1.00  0.00     0.281 HD
HETATM    3  C   UNL     1      27.346  44.929  50.326  1.00  0.00     0.256 C 
HETATM    4  C   UNL     1      26.203  45.963  50.225  1.00  0.00     0.152 C 
HETATM    5  N   UNL     1      24.873  45.353  50.439  1.00  0.00    -0.363 N 
HETATM    6  C   UNL     1      24.729  44.405  51.570  1.00  0.00     0.152 C 
HETATM    7  C   UNL     1      25.933  43.444  51.768  1.00  0.00     0.256 C 
ENDROOT
BRANCH   1   8
HETATM    8  C   UNL     1      28.499  43.325  52.000  1.00  0.00     0.312 C 
BRANCH   8   9
HETATM    9  C   UNL     1      29.089  43.649  53.357  1.00  0.00    -0.018 A 
HETATM   10  C   UNL     1      28.553  44.653  54.185  1.00  0.00     0.010 A 
HETATM   11  C   UNL     1      29.147  44.954  55.412  1.00  0.00     0.001 A 
HETATM   12  C   UNL     1      30.277  44.260  55.830  1.00  0.00     0.000 A 
HETATM   13  C   UNL     1      30.818  43.260  55.027  1.00  0.00     0.001 A 
HETATM   14  C   UNL     1      30.230  42.957  53.799  1.00  0.00     0.010 A 
ENDBRANCH   8   9
BRANCH   8  15
HETATM   15  C   UNL     1      28.151  41.835  51.761  1.00  0.00     0.259 C 
HETATM   16  N   UNL     1      28.401  41.348  50.502  1.00  0.00    -0.304 N 
HETATM   17  H   UNL     1      28.830  41.898  49.766  1.00  0.00     0.171 HD
HETATM   18  O   UNL     1      27.625  41.243  52.710  1.00  0.00    -0.270 OA
BRANCH  16  19
HETATM   19  C   UNL     1      28.117  40.051  50.173  1.00  0.00     0.172 A 
HETATM   20  S   UNL     1      26.528  39.800  49.606  1.00  0.00    -0.062 SA
HETATM   21  C   UNL     1      26.883  38.130  49.431  1.00  0.00     0.072 A 
HETATM   22  C   UNL     1      28.188  37.894  49.813  1.00  0.00     0.126 A 
HETATM   23  N   UNL     1      28.896  39.005  50.236  1.00  0.00    -0.236 NA
ENDBRANCH  16  19
ENDBRANCH   8  15
ENDBRANCH   1   8
BRANCH   5  24
HETATM   24  C   UNL     1      23.990  45.339  49.382  1.00  0.00     0.125 A 
HETATM   25  N   UNL     1      23.225  46.441  49.250  1.00  0.00    -0.350 N 
HETATM   26  H   UNL     1      23.343  47.165  49.959  1.00  0.00     0.166 HD
HETATM   27  C   UNL     1      22.311  46.619  48.281  1.00  0.00     0.106 A 
HETATM   28  C   UNL     1      22.113  45.633  47.320  1.00  0.00     0.065 A 
HETATM   29  C   UNL     1      22.866  44.460  47.412  1.00  0.00     0.045 A 
HETATM   30  C   UNL     1      23.806  44.311  48.435  1.00  0.00     0.078 A 
HETATM   31 CL   UNL     1      24.758  42.876  48.441  1.00  0.00    -0.080 Cl
BRANCH  28  32
HETATM   32  C   UNL     1      21.078  45.841  46.244  1.00  0.00     0.418 C 
HETATM   33  F   UNL     1      20.150  44.851  46.255  1.00  0.00    -0.166 F 
HETATM   34  F   UNL     1      20.411  47.009  46.379  1.00  0.00    -0.166 F 
HETATM   35  F   UNL     1      21.640  45.835  45.013  1.00  0.00    -0.166 F 
ENDBRANCH  28  32
ENDBRANCH   5  24
TORSDOF 6
ENDMDL
MODEL 6
REMARK VINA RESULT:      -9.0      2.171      2.665
REMARK  6 active torsions:
REMARK  status: ('A' for Active; 'I' for Inactive)
REMARK    1  A    between atoms: C_4  and  C_5 
REMARK    2  A    between atoms: C_5  and  N_6 
REMARK    3  A    between atoms: C_5  and  C_25 
REMARK    4  A    between atoms: N_10  and  C_11 
REMARK    5  A    between atoms: C_15  and  C_16 
REMARK       I    between atoms: C_25  and  N_26 
REMARK    6  A    between atoms: N_26  and  C_27 
ROOT
HETATM    1  N   UNL     1      26.863  45.306  50.980  1.00  0.00    -0.051 N 
HETATM    2  H   UNL     1      27.386  45.948  51.607  1.00  0.00     0.281 HD
HETATM    3  C   UNL     1      26.832  46.014  49.636  1.00  0.00     0.256 C 
HETATM    4  C   UNL     1      26.163  47.397  49.792  1.00  0.00     0.152 C 
HETATM    5  N   UNL     1      24.832  47.308  50.431  1.00  0.00    -0.363 N 
HETATM    6  C   UNL     1      24.702  46.439  51.625  1.00  0.00     0.152 C 
HETATM    7  C   UNL     1      25.480  45.098  51.539  1.00  0.00     0.256 C 
ENDROOT
BRANCH   1   8
HETATM    8  C   UNL     1      27.776  44.040  51.023  1.00  0.00     0.312 C 
BRANCH   8   9
HETATM    9  C   UNL     1      28.459  43.826  52.358  1.00  0.00    -0.018 A 
HETATM   10  C   UNL     1      28.035  44.481  53.529  1.00  0.00     0.010 A 
HETATM   11  C   UNL     1      28.712  44.293  54.734  1.00  0.00     0.001 A 
HETATM   12  C   UNL     1      29.817  43.449  54.790  1.00  0.00     0.000 A 
HETATM   13  C   UNL     1      30.247  42.788  53.644  1.00  0.00     0.001 A 
HETATM   14  C   UNL     1      29.575  42.974  52.436  1.00  0.00     0.010 A 
ENDBRANCH   8   9
BRANCH   8  15
HETATM   15  C   UNL     1      26.955  42.840  50.490  1.00  0.00     0.259 C 
HETATM   16  N   UNL     1      26.932  42.678  49.128  1.00  0.00    -0.304 N 
HETATM   17  H   UNL     1      27.450  43.267  48.487  1.00  0.00     0.171 HD
HETATM   18  O   UNL     1      26.350  42.179  51.342  1.00  0.00    -0.270 OA
BRANCH  16  19
HETATM   19  C   UNL     1      26.225  41.661  48.547  1.00  0.00     0.172 A 
HETATM   20  S   UNL     1      24.577  42.011  48.282  1.00  0.00    -0.062 SA
HETATM   21  C   UNL     1      24.377  40.442  47.616  1.00  0.00     0.072 A 
HETATM   22  C   UNL     1      25.585  39.774  47.641  1.00  0.00     0.126 A 
HETATM   23  N   UNL     1      26.647  40.483  48.175  1.00  0.00    -0.236 NA
ENDBRANCH  16  19
ENDBRANCH   8  15
ENDBRANCH   1   8
BRANCH   5  24
HETATM   24  C   UNL     1      23.730  47.655  49.681  1.00  0.00     0.125 A 
HETATM   25  N   UNL     1      23.306  48.928  49.826  1.00  0.00    -0.350 N 
HETATM   26  H   UNL     1      23.814  49.502  50.498  1.00  0.00     0.166 HD
HETATM   27  C   UNL     1      22.255  49.455  49.176  1.00  0.00     0.106 A 
HETATM   28  C   UNL     1      21.530  48.682  48.277  1.00  0.00     0.065 A 
HETATM   29  C   UNL     1      21.912  47.350  48.094  1.00  0.00     0.045 A 
HETATM   30  C   UNL     1      23.010  46.835  48.787  1.00  0.00     0.078 A 
HETATM   31 CL   UNL     1      23.475  45.212  48.453  1.00  0.00    -0.080 Cl
BRANCH  28  32
HETATM   32  C   UNL     1      20.348  49.283  47.562  1.00  0.00     0.418 C 
HETATM   33  F   UNL     1      19.307  49.480  48.410  1.00  0.00    -0.166 F 
HETATM   34  F   UNL     1      20.630  50.480  47.000  1.00  0.00    -0.166 F 
HETATM   35  F   UNL     1      19.900  48.469  46.579  1.00  0.00    -0.166 F 
ENDBRANCH  28  32
ENDBRANCH   5  24
TORSDOF 6
ENDMDL
MODEL 7
REMARK VINA RESULT:      -8.9      4.950      7.974
REMARK  6 active torsions:
REMARK  status: ('A' for Active; 'I' for Inactive)
REMARK    1  A    between atoms: C_4  and  C_5 
REMARK    2  A    between atoms: C_5  and  N_6 
REMARK    3  A    between atoms: C_5  and  C_25 
REMARK    4  A    between atoms: N_10  and  C_11 
REMARK    5  A    between atoms: C_15  and  C_16 
REMARK       I    between atoms: C_25  and  N_26 
REMARK    6  A    between atoms: N_26  and  C_27 
ROOT
HETATM    1  N   UNL     1      26.966  42.077  52.024  1.00  0.00    -0.051 N 
HETATM    2  H   UNL     1      26.735  41.379  52.755  1.00  0.00     0.281 HD
HETATM    3  C   UNL     1      25.920  41.870  50.942  1.00  0.00     0.256 C 
HETATM    4  C   UNL     1      25.977  40.412  50.436  1.00  0.00     0.152 C 
HETATM    5  N   UNL     1      27.337  40.019  50.009  1.00  0.00    -0.363 N 
HETATM    6  C   UNL     1      28.468  40.393  50.892  1.00  0.00     0.152 C 
HETATM    7  C   UNL     1      28.359  41.811  51.518  1.00  0.00     0.256 C 
ENDROOT
BRANCH   1   8
HETATM    8  C   UNL     1      26.813  43.409  52.825  1.00  0.00     0.312 C 
BRANCH   8   9
HETATM    9  C   UNL     1      27.979  43.703  53.747  1.00  0.00    -0.018 A 
HETATM   10  C   UNL     1      28.948  42.733  54.060  1.00  0.00     0.010 A 
HETATM   11  C   UNL     1      29.986  43.026  54.946  1.00  0.00     0.001 A 
HETATM   12  C   UNL     1      30.074  44.286  55.527  1.00  0.00     0.000 A 
HETATM   13  C   UNL     1      29.128  45.261  55.224  1.00  0.00     0.001 A 
HETATM   14  C   UNL     1      28.086  44.973  54.342  1.00  0.00     0.010 A 
ENDBRANCH   8   9
BRANCH   8  15
HETATM   15  C   UNL     1      26.451  44.532  51.822  1.00  0.00     0.259 C 
HETATM   16  N   UNL     1      25.173  45.026  51.900  1.00  0.00    -0.304 N 
HETATM   17  H   UNL     1      24.499  44.723  52.593  1.00  0.00     0.171 HD
HETATM   18  O   UNL     1      27.331  44.833  51.009  1.00  0.00    -0.270 OA
BRANCH  16  19
HETATM   19  C   UNL     1      24.740  46.008  51.052  1.00  0.00     0.172 A 
HETATM   20  S   UNL     1      23.883  45.438  49.692  1.00  0.00    -0.062 SA
HETATM   21  C   UNL     1      23.699  47.059  49.160  1.00  0.00     0.072 A 
HETATM   22  C   UNL     1      24.300  47.911  50.064  1.00  0.00     0.126 A 
HETATM   23  N   UNL     1      24.895  47.301  51.155  1.00  0.00    -0.236 NA
ENDBRANCH  16  19
ENDBRANCH   8  15
ENDBRANCH   1   8
BRANCH   5  24
HETATM   24  C   UNL     1      27.540  39.734  48.676  1.00  0.00     0.125 A 
HETATM   25  N   UNL     1      27.837  40.792  47.895  1.00  0.00    -0.350 N 
HETATM   26  H   UNL     1      27.850  41.704  48.351  1.00  0.00     0.166 HD
HETATM   27  C   UNL     1      28.075  40.716  46.575  1.00  0.00     0.106 A 
HETATM   28  C   UNL     1      28.035  39.487  45.928  1.00  0.00     0.065 A 
HETATM   29  C   UNL     1      27.717  38.354  46.682  1.00  0.00     0.045 A 
HETATM   30  C   UNL     1      27.475  38.471  48.052  1.00  0.00     0.078 A 
HETATM   31 CL   UNL     1      27.171  37.024  48.935  1.00  0.00    -0.080 Cl
BRANCH  28  32
HETATM   32  C   UNL     1      28.294  39.417  44.445  1.00  0.00     0.418 C 
HETATM   33  F   UNL     1      27.147  39.568  43.736  1.00  0.00    -0.166 F 
HETATM   34  F   UNL     1      29.150  40.374  44.019  1.00  0.00    -0.166 F 
HETATM   35  F   UNL     1      28.816  38.220  44.091  1.00  0.00    -0.166 F 
ENDBRANCH  28  32
ENDBRANCH   5  24
TORSDOF 6
ENDMDL
MODEL 8
REMARK VINA RESULT:      -8.8      5.063      7.635
REMARK  6 active torsions:
REMARK  status: ('A' for Active; 'I' for Inactive)
REMARK    1  A    between atoms: C_4  and  C_5 
REMARK    2  A    between atoms: C_5  and  N_6 
REMARK    3  A    between atoms: C_5  and  C_25 
REMARK    4  A    between atoms: N_10  and  C_11 
REMARK    5  A    between atoms: C_15  and  C_16 
REMARK       I    between atoms: C_25  and  N_26 
REMARK    6  A    between atoms: N_26  and  C_27 
ROOT
HETATM    1  N   UNL     1      25.057  43.085  49.952  1.00  0.00    -0.051 N 
HETATM    2  H   UNL     1      24.582  43.939  49.604  1.00  0.00     0.281 HD
HETATM    3  C   UNL     1      24.726  43.031  51.434  1.00  0.00     0.256 C 
HETATM    4  C   UNL     1      25.211  44.326  52.123  1.00  0.00     0.152 C 
HETATM    5  N   UNL     1      26.640  44.601  51.858  1.00  0.00    -0.363 N 
HETATM    6  C   UNL     1      27.121  44.445  50.464  1.00  0.00     0.152 C 
HETATM    7  C   UNL     1      26.538  43.218  49.711  1.00  0.00     0.256 C 
ENDROOT
BRANCH   1   8
HETATM    8  C   UNL     1      24.358  41.985  49.093  1.00  0.00     0.312 C 
BRANCH   8   9
HETATM    9  C   UNL     1      23.466  42.539  48.001  1.00  0.00    -0.018 A 
HETATM   10  C   UNL     1      22.555  41.729  47.297  1.00  0.00     0.010 A 
HETATM   11  C   UNL     1      21.778  42.263  46.268  1.00  0.00     0.001 A 
HETATM   12  C   UNL     1      21.894  43.608  45.930  1.00  0.00     0.000 A 
HETATM   13  C   UNL     1      22.785  44.425  46.620  1.00  0.00     0.001 A 
HETATM   14  C   UNL     1      23.566  43.896  47.648  1.00  0.00     0.010 A 
ENDBRANCH   8   9
BRANCH   8  15
HETATM   15  C   UNL     1      25.441  40.980  48.628  1.00  0.00     0.259 C 
HETATM   16  N   UNL     1      25.828  40.037  49.546  1.00  0.00    -0.304 N 
HETATM   17  H   UNL     1      25.413  39.951  50.466  1.00  0.00     0.171 HD
HETATM   18  O   UNL     1      25.896  41.164  47.493  1.00  0.00    -0.270 OA
BRANCH  16  19
HETATM   19  C   UNL     1      26.789  39.110  49.248  1.00  0.00     0.172 A 
HETATM   20  S   UNL     1      28.356  39.526  49.778  1.00  0.00    -0.062 SA
HETATM   21  C   UNL     1      28.943  38.058  49.109  1.00  0.00     0.072 A 
HETATM   22  C   UNL     1      27.898  37.361  48.538  1.00  0.00     0.126 A 
HETATM   23  N   UNL     1      26.658  37.970  48.625  1.00  0.00    -0.236 NA
ENDBRANCH  16  19
ENDBRANCH   8  15
ENDBRANCH   1   8
BRANCH   5  24
HETATM   24  C   UNL     1      27.515  44.559  52.921  1.00  0.00     0.125 A 
HETATM   25  N   UNL     1      28.487  43.628  52.836  1.00  0.00    -0.350 N 
HETATM   26  H   UNL     1      28.466  43.022  52.017  1.00  0.00     0.166 HD
HETATM   27  C   UNL     1      29.437  43.436  53.767  1.00  0.00     0.106 A 
HETATM   28  C   UNL     1      29.468  44.232  54.907  1.00  0.00     0.065 A 
HETATM   29  C   UNL     1      28.477  45.206  55.059  1.00  0.00     0.045 A 
HETATM   30  C   UNL     1      27.505  45.376  54.071  1.00  0.00     0.078 A 
HETATM   31 CL   UNL     1      26.364  46.647  54.283  1.00  0.00    -0.080 Cl
BRANCH  28  32
HETATM   32  C   UNL     1      30.532  44.000  55.948  1.00  0.00     0.418 C 
HETATM   33  F   UNL     1      30.253  44.669  57.096  1.00  0.00    -0.166 F 
HETATM   34  F   UNL     1      30.668  42.695  56.275  1.00  0.00    -0.166 F 
HETATM   35  F   UNL     1      31.740  44.439  55.525  1.00  0.00    -0.166 F 
ENDBRANCH  28  32
ENDBRANCH   5  24
TORSDOF 6
ENDMDL
MODEL 9
REMARK VINA RESULT:      -8.8      5.273      9.017
REMARK  6 active torsions:
REMARK  status: ('A' for Active; 'I' for Inactive)
REMARK    1  A    between atoms: C_4  and  C_5 
REMARK    2  A    between atoms: C_5  and  N_6 
REMARK    3  A    between atoms: C_5  and  C_25 
REMARK    4  A    between atoms: N_10  and  C_11 
REMARK    5  A    between atoms: C_15  and  C_16 
REMARK       I    between atoms: C_25  and  N_26 
REMARK    6  A    between atoms: N_26  and  C_27 
ROOT
HETATM    1  N   UNL     1      23.516  46.511  48.972  1.00  0.00    -0.051 N 
HETATM    2  H   UNL     1      23.939  46.710  48.045  1.00  0.00     0.281 HD
HETATM    3  C   UNL     1      24.317  47.350  49.954  1.00  0.00     0.256 C 
HETATM    4  C   UNL     1      25.810  46.967  49.867  1.00  0.00     0.152 C 
HETATM    5  N   UNL     1      26.029  45.514  50.034  1.00  0.00    -0.363 N 
HETATM    6  C   UNL     1      25.129  44.597  49.294  1.00  0.00     0.152 C 
HETATM    7  C   UNL     1      23.641  45.038  49.258  1.00  0.00     0.256 C 
ENDROOT
BRANCH   1   8
HETATM    8  C   UNL     1      22.053  47.004  48.744  1.00  0.00     0.312 C 
BRANCH   8   9
HETATM    9  C   UNL     1      21.923  48.512  48.666  1.00  0.00    -0.018 A 
HETATM   10  C   UNL     1      22.847  49.307  47.964  1.00  0.00     0.010 A 
HETATM   11  C   UNL     1      22.721  50.697  47.947  1.00  0.00     0.001 A 
HETATM   12  C   UNL     1      21.673  51.311  48.625  1.00  0.00     0.000 A 
HETATM   13  C   UNL     1      20.746  50.540  49.320  1.00  0.00     0.001 A 
HETATM   14  C   UNL     1      20.869  49.151  49.342  1.00  0.00     0.010 A 
ENDBRANCH   8   9
BRANCH   8  15
HETATM   15  C   UNL     1      21.464  46.219  47.546  1.00  0.00     0.259 C 
HETATM   16  N   UNL     1      20.399  45.399  47.823  1.00  0.00    -0.304 N 
HETATM   17  H   UNL     1      19.974  45.327  48.740  1.00  0.00     0.171 HD
HETATM   18  O   UNL     1      22.049  46.361  46.467  1.00  0.00    -0.270 OA
BRANCH  16  19
HETATM   19  C   UNL     1      19.811  44.645  46.845  1.00  0.00     0.172 A 
HETATM   20  S   UNL     1      18.507  45.410  46.055  1.00  0.00    -0.062 SA
HETATM   21  C   UNL     1      18.305  44.007  45.087  1.00  0.00     0.072 A 
HETATM   22  C   UNL     1      19.252  43.065  45.437  1.00  0.00     0.126 A 
HETATM   23  N   UNL     1      20.119  43.440  46.447  1.00  0.00    -0.236 NA
ENDBRANCH  16  19
ENDBRANCH   8  15
ENDBRANCH   1   8
BRANCH   5  24
HETATM   24  C   UNL     1      26.721  45.087  51.146  1.00  0.00     0.125 A 
HETATM   25  N   UNL     1      27.692  44.181  50.913  1.00  0.00    -0.350 N 
HETATM   26  H   UNL     1      27.801  43.869  49.949  1.00  0.00     0.166 HD
HETATM   27  C   UNL     1      28.479  43.651  51.865  1.00  0.00     0.106 A 
HETATM   28  C   UNL     1      28.329  44.040  53.191  1.00  0.00     0.065 A 
HETATM   29  C   UNL     1      27.329  44.967  53.498  1.00  0.00     0.045 A 
HETATM   30  C   UNL     1      26.529  45.496  52.482  1.00  0.00     0.078 A 
HETATM   31 CL   UNL     1      25.372  46.693  52.919  1.00  0.00    -0.080 Cl
BRANCH  28  32
HETATM   32  C   UNL     1      29.211  43.432  54.250  1.00  0.00     0.418 C 
HETATM   33  F   UNL     1      30.474  43.241  53.790  1.00  0.00    -0.166 F 
HETATM   34  F   UNL     1      29.307  44.203  55.357  1.00  0.00    -0.166 F 
HETATM   35  F   UNL     1      28.751  42.220  54.639  1.00  0.00    -0.166 F 
ENDBRANCH  28  32
ENDBRANCH   5  24
TORSDOF 6
ENDMDL
MODEL 10
REMARK VINA RESULT:      -8.8      2.403      2.997
REMARK  6 active torsions:
REMARK  status: ('A' for Active; 'I' for Inactive)
REMARK    1  A    between atoms: C_4  and  C_5 
REMARK    2  A    between atoms: C_5  and  N_6 
REMARK    3  A    between atoms: C_5  and  C_25 
REMARK    4  A    between atoms: N_10  and  C_11 
REMARK    5  A    between atoms: C_15  and  C_16 
REMARK       I    between atoms: C_25  and  N_26 
REMARK    6  A    between atoms: N_26  and  C_27 
ROOT
HETATM    1  N   UNL     1      26.814  44.341  51.094  1.00  0.00    -0.051 N 
HETATM    2  H   UNL     1      26.876  44.946  51.935  1.00  0.00     0.281 HD
HETATM    3  C   UNL     1      26.936  45.294  49.918  1.00  0.00     0.256 C 
HETATM    4  C   UNL     1      25.817  46.356  49.991  1.00  0.00     0.152 C 
HETATM    5  N   UNL     1      24.473  45.749  50.108  1.00  0.00    -0.363 N 
HETATM    6  C   UNL     1      24.307  44.633  51.070  1.00  0.00     0.152 C 
HETATM    7  C   UNL     1      25.489  43.626  51.104  1.00  0.00     0.256 C 
ENDROOT
BRANCH   1   8
HETATM    8  C   UNL     1      28.052  43.413  51.305  1.00  0.00     0.312 C 
BRANCH   8   9
HETATM    9  C   UNL     1      28.728  43.594  52.648  1.00  0.00    -0.018 A 
HETATM   10  C   UNL     1      29.924  42.929  52.979  1.00  0.00     0.010 A 
HETATM   11  C   UNL     1      30.499  43.086  54.241  1.00  0.00     0.001 A 
HETATM   12  C   UNL     1      29.893  43.906  55.188  1.00  0.00     0.000 A 
HETATM   13  C   UNL     1      28.713  44.576  54.876  1.00  0.00     0.001 A 
HETATM   14  C   UNL     1      28.133  44.421  53.617  1.00  0.00     0.010 A 
ENDBRANCH   8   9
BRANCH   8  15
HETATM   15  C   UNL     1      27.629  41.964  50.958  1.00  0.00     0.259 C 
HETATM   16  N   UNL     1      27.856  41.559  49.666  1.00  0.00    -0.304 N 
HETATM   17  H   UNL     1      28.314  42.138  48.972  1.00  0.00     0.171 HD
HETATM   18  O   UNL     1      27.072  41.333  51.862  1.00  0.00    -0.270 OA
BRANCH  16  19
HETATM   19  C   UNL     1      27.507  40.305  49.245  1.00  0.00     0.172 A 
HETATM   20  S   UNL     1      26.065  40.244  48.336  1.00  0.00    -0.062 SA
HETATM   21  C   UNL     1      26.258  38.545  48.192  1.00  0.00     0.072 A 
HETATM   22  C   UNL     1      27.411  38.156  48.844  1.00  0.00     0.126 A 
HETATM   23  N   UNL     1      28.129  39.175  49.445  1.00  0.00    -0.236 NA
ENDBRANCH  16  19
ENDBRANCH   8  15
ENDBRANCH   1   8
BRANCH   5  24
HETATM   24  C   UNL     1      23.590  45.927  49.066  1.00  0.00     0.125 A 
HETATM   25  N   UNL     1      23.325  44.826  48.334  1.00  0.00    -0.350 N 
HETATM   26  H   UNL     1      23.826  43.976  48.594  1.00  0.00     0.166 HD
HETATM   27  C   UNL     1      22.487  44.796  47.285  1.00  0.00     0.106 A 
HETATM   28  C   UNL     1      21.816  45.949  46.895  1.00  0.00     0.065 A 
HETATM   29  C   UNL     1      22.060  47.128  47.605  1.00  0.00     0.045 A 
HETATM   30  C   UNL     1      22.939  47.121  48.691  1.00  0.00     0.078 A 
HETATM   31 CL   UNL     1      23.130  48.587  49.572  1.00  0.00    -0.080 Cl
BRANCH  28  32
HETATM   32  C   UNL     1      20.886  45.905  45.710  1.00  0.00     0.418 C 
HETATM   33  F   UNL     1      20.199  44.735  45.666  1.00  0.00    -0.166 F 
HETATM   34  F   UNL     1      19.971  46.900  45.726  1.00  0.00    -0.166 F 
HETATM   35  F   UNL     1      21.567  46.000  44.544  1.00  0.00    -0.166 F 
ENDBRANCH  28  32
ENDBRANCH   5  24
TORSDOF 6
ENDMDL
