MODEL 1
REMARK VINA RESULT:      -9.7      0.000      0.000
REMARK  6 active torsions:
REMARK  status: ('A' for Active; 'I' for Inactive)
REMARK    1  A    between atoms: C_5  and  C_6 
REMARK    2  A    between atoms: C_6  and  C_7 
REMARK       I    between atoms: C_7  and  N_8 
REMARK    3  A    between atoms: N_8  and  N_9 
REMARK       I    between atoms: N_9  and  C_10 
REMARK    4  A    between atoms: C_10  and  C_11 
REMARK    5  A    between atoms: C_15  and  C_16 
REMARK    6  A    between atoms: C_19  and  O_20 
ROOT
HETATM    1  N   UNL     1      24.080  47.416  50.569  1.00  0.00    -0.262 N 
HETATM    2  C   UNL     1      24.633  46.166  50.752  1.00  0.00     0.288 C 
HETATM    3  O   UNL     1      24.354  45.215  50.024  1.00  0.00    -0.264 OA
HETATM    4  H   UNL     1      24.206  48.179  51.231  1.00  0.00     0.190 HD
ENDROOT
BRANCH   2   5
HETATM    5  C   UNL     1      25.549  46.065  51.854  1.00  0.00     0.121 A 
HETATM    6  N   UNL     1      25.565  46.971  52.876  1.00  0.00    -0.272 N 
HETATM    7  H   UNL     1      24.967  47.786  52.979  1.00  0.00     0.189 HD
HETATM    8  N   UNL     1      26.476  46.714  53.826  1.00  0.00    -0.174 NA
HETATM    9  C   UNL     1      27.103  45.603  53.406  1.00  0.00     0.089 A 
HETATM   10  C   UNL     1      26.543  45.162  52.175  1.00  0.00     0.071 A 
BRANCH   9  11
HETATM   11  C   UNL     1      28.190  44.983  54.170  1.00  0.00    -0.005 A 
HETATM   12  C   UNL     1      28.639  43.694  53.857  1.00  0.00     0.016 A 
HETATM   13  C   UNL     1      29.694  43.114  54.569  1.00  0.00     0.037 A 
HETATM   14  C   UNL     1      30.319  43.807  55.608  1.00  0.00     0.068 A 
HETATM   15  C   UNL     1      29.870  45.084  55.938  1.00  0.00     0.037 A 
HETATM   16  C   UNL     1      28.814  45.667  55.224  1.00  0.00     0.016 A 
BRANCH  14  17
HETATM   17  O   UNL     1      31.341  43.133  56.216  1.00  0.00    -0.356 OA
HETATM   18  C   UNL     1      31.818  43.664  57.446  1.00  0.00     0.210 C 
ENDBRANCH  14  17
ENDBRANCH   9  11
ENDBRANCH   2   5
BRANCH   1  19
HETATM   19  N   UNL     1      23.062  47.592  49.628  1.00  0.00    -0.267 N 
HETATM   20  C   UNL     1      22.800  48.880  49.209  1.00  0.00     0.240 C 
HETATM   21  O   UNL     1      23.479  49.838  49.581  1.00  0.00    -0.272 OA
HETATM   22  H   UNL     1      22.480  46.786  49.408  1.00  0.00     0.190 HD
BRANCH  20  23
HETATM   23  C   UNL     1      21.641  49.011  48.244  1.00  0.00     0.143 C 
BRANCH  23  24
HETATM   24  C   UNL     1      20.560  49.990  48.642  1.00  0.00    -0.049 A 
HETATM   25  C   UNL     1      20.492  51.302  48.158  1.00  0.00     0.008 A 
HETATM   26  C   UNL     1      19.480  52.168  48.582  1.00  0.00     0.007 A 
HETATM   27  C   UNL     1      18.526  51.749  49.515  1.00  0.00    -0.062 A 
HETATM   28  C   UNL     1      17.427  52.671  49.952  1.00  0.00     0.048 C 
HETATM   29  C   UNL     1      18.586  50.440  49.999  1.00  0.00     0.007 A 
HETATM   30  C   UNL     1      19.594  49.572  49.572  1.00  0.00     0.008 A 
ENDBRANCH  23  24
ENDBRANCH  20  23
ENDBRANCH   1  19
TORSDOF 6
ENDMDL
MODEL 2
REMARK VINA RESULT:      -9.4      2.059     10.917
REMARK  6 active torsions:
REMARK  status: ('A' for Active; 'I' for Inactive)
REMARK    1  A    between atoms: C_5  and  C_6 
REMARK    2  A    between atoms: C_6  and  C_7 
REMARK       I    between atoms: C_7  and  N_8 
REMARK    3  A    between atoms: N_8  and  N_9 
REMARK       I    between atoms: N_9  and  C_10 
REMARK    4  A    between atoms: C_10  and  C_11 
REMARK    5  A    between atoms: C_15  and  C_16 
REMARK    6  A    between atoms: C_19  and  O_20 
ROOT
HETATM    1  N   UNL     1      26.566  44.954  51.161  1.00  0.00    -0.262 N 
HETATM    2  C   UNL     1      26.591  45.731  50.022  1.00  0.00     0.288 C 
HETATM    3  O   UNL     1      27.605  45.860  49.340  1.00  0.00    -0.264 OA
HETATM    4  H   UNL     1      25.774  44.933  51.800  1.00  0.00     0.190 HD
ENDROOT
BRANCH   2   5
HETATM    5  C   UNL     1      25.346  46.375  49.702  1.00  0.00     0.121 A 
HETATM    6  N   UNL     1      24.217  45.671  49.396  1.00  0.00    -0.272 N 
HETATM    7  H   UNL     1      24.119  44.661  49.357  1.00  0.00     0.189 HD
HETATM    8  N   UNL     1      23.145  46.435  49.137  1.00  0.00    -0.174 NA
HETATM    9  C   UNL     1      23.588  47.697  49.256  1.00  0.00     0.089 A 
HETATM   10  C   UNL     1      24.964  47.700  49.617  1.00  0.00     0.071 A 
BRANCH   9  11
HETATM   11  C   UNL     1      22.715  48.855  49.042  1.00  0.00    -0.005 A 
HETATM   12  C   UNL     1      21.322  48.719  49.094  1.00  0.00     0.016 A 
HETATM   13  C   UNL     1      20.490  49.829  48.917  1.00  0.00     0.037 A 
HETATM   14  C   UNL     1      21.031  51.095  48.682  1.00  0.00     0.068 A 
HETATM   15  C   UNL     1      22.415  51.239  48.613  1.00  0.00     0.037 A 
HETATM   16  C   UNL     1      23.250  50.127  48.792  1.00  0.00     0.016 A 
BRANCH  14  17
HETATM   17  O   UNL     1      20.111  52.095  48.536  1.00  0.00    -0.356 OA
HETATM   18  C   UNL     1      18.908  51.975  49.284  1.00  0.00     0.210 C 
ENDBRANCH  14  17
ENDBRANCH   9  11
ENDBRANCH   2   5
BRANCH   1  19
HETATM   19  N   UNL     1      27.755  44.408  51.653  1.00  0.00    -0.267 N 
HETATM   20  C   UNL     1      27.673  43.623  52.785  1.00  0.00     0.240 C 
HETATM   21  O   UNL     1      26.594  43.342  53.306  1.00  0.00    -0.272 OA
HETATM   22  H   UNL     1      28.627  44.729  51.236  1.00  0.00     0.190 HD
BRANCH  20  23
HETATM   23  C   UNL     1      29.003  43.120  53.306  1.00  0.00     0.143 C 
BRANCH  23  24
HETATM   24  C   UNL     1      29.518  43.798  54.554  1.00  0.00    -0.049 A 
HETATM   25  C   UNL     1      30.558  43.282  55.339  1.00  0.00     0.008 A 
HETATM   26  C   UNL     1      30.976  43.945  56.497  1.00  0.00     0.007 A 
HETATM   27  C   UNL     1      30.350  45.125  56.908  1.00  0.00    -0.062 A 
HETATM   28  C   UNL     1      30.814  45.848  58.138  1.00  0.00     0.048 C 
HETATM   29  C   UNL     1      29.315  45.648  56.129  1.00  0.00     0.007 A 
HETATM   30  C   UNL     1      28.900  44.989  54.969  1.00  0.00     0.008 A 
ENDBRANCH  23  24
ENDBRANCH  20  23
ENDBRANCH   1  19
TORSDOF 6
ENDMDL
MODEL 3
REMARK VINA RESULT:      -9.1      2.306     10.877
REMARK  6 active torsions:
REMARK  status: ('A' for Active; 'I' for Inactive)
REMARK    1  A    between atoms: C_5  and  C_6 
REMARK    2  A    between atoms: C_6  and  C_7 
REMARK       I    between atoms: C_7  and  N_8 
REMARK    3  A    between atoms: N_8  and  N_9 
REMARK       I    between atoms: N_9  and  C_10 
REMARK    4  A    between atoms: C_10  and  C_11 
REMARK    5  A    between atoms: C_15  and  C_16 
REMARK    6  A    between atoms: C_19  and  O_20 
ROOT
HETATM    1  N   UNL     1      25.311  45.556  50.488  1.00  0.00    -0.262 N 
HETATM    2  C   UNL     1      25.833  46.638  49.811  1.00  0.00     0.288 C 
HETATM    3  O   UNL     1      27.012  46.687  49.466  1.00  0.00    -0.264 OA
HETATM    4  H   UNL     1      24.374  45.552  50.885  1.00  0.00     0.190 HD
ENDROOT
BRANCH   2   5
HETATM    5  C   UNL     1      24.897  47.697  49.548  1.00  0.00     0.121 A 
HETATM    6  N   UNL     1      25.297  48.956  49.200  1.00  0.00    -0.272 N 
HETATM    7  H   UNL     1      26.252  49.284  49.091  1.00  0.00     0.189 HD
HETATM    8  N   UNL     1      24.290  49.813  48.980  1.00  0.00    -0.174 NA
HETATM    9  C   UNL     1      23.176  49.098  49.211  1.00  0.00     0.089 A 
HETATM   10  C   UNL     1      23.517  47.763  49.564  1.00  0.00     0.071 A 
BRANCH   9  11
HETATM   11  C   UNL     1      21.836  49.677  49.084  1.00  0.00    -0.005 A 
HETATM   12  C   UNL     1      20.696  48.872  49.198  1.00  0.00     0.016 A 
HETATM   13  C   UNL     1      19.416  49.429  49.103  1.00  0.00     0.037 A 
HETATM   14  C   UNL     1      19.250  50.798  48.889  1.00  0.00     0.068 A 
HETATM   15  C   UNL     1      20.377  51.606  48.758  1.00  0.00     0.037 A 
HETATM   16  C   UNL     1      21.660  51.049  48.855  1.00  0.00     0.016 A 
BRANCH  14  17
HETATM   17  O   UNL     1      17.950  51.217  48.825  1.00  0.00    -0.356 OA
HETATM   18  C   UNL     1      17.612  52.377  49.575  1.00  0.00     0.210 C 
ENDBRANCH  14  17
ENDBRANCH   9  11
ENDBRANCH   2   5
BRANCH   1  19
HETATM   19  N   UNL     1      26.162  44.541  50.933  1.00  0.00    -0.267 N 
HETATM   20  C   UNL     1      25.890  43.978  52.163  1.00  0.00     0.240 C 
HETATM   21  O   UNL     1      24.896  44.293  52.818  1.00  0.00    -0.272 OA
HETATM   22  H   UNL     1      27.010  44.369  50.396  1.00  0.00     0.190 HD
BRANCH  20  23
HETATM   23  C   UNL     1      26.888  42.935  52.618  1.00  0.00     0.143 C 
BRANCH  23  24
HETATM   24  C   UNL     1      27.922  43.405  53.616  1.00  0.00    -0.049 A 
HETATM   25  C   UNL     1      27.837  44.626  54.296  1.00  0.00     0.008 A 
HETATM   26  C   UNL     1      28.838  45.016  55.191  1.00  0.00     0.007 A 
HETATM   27  C   UNL     1      29.956  44.205  55.410  1.00  0.00    -0.062 A 
HETATM   28  C   UNL     1      31.018  44.612  56.387  1.00  0.00     0.048 C 
HETATM   29  C   UNL     1      30.044  42.983  54.737  1.00  0.00     0.007 A 
HETATM   30  C   UNL     1      29.043  42.591  53.846  1.00  0.00     0.008 A 
ENDBRANCH  23  24
ENDBRANCH  20  23
ENDBRANCH   1  19
TORSDOF 6
ENDMDL
MODEL 4
REMARK VINA RESULT:      -8.7      2.310     11.075
REMARK  6 active torsions:
REMARK  status: ('A' for Active; 'I' for Inactive)
REMARK    1  A    between atoms: C_5  and  C_6 
REMARK    2  A    between atoms: C_6  and  C_7 
REMARK       I    between atoms: C_7  and  N_8 
REMARK    3  A    between atoms: N_8  and  N_9 
REMARK       I    between atoms: N_9  and  C_10 
REMARK    4  A    between atoms: C_10  and  C_11 
REMARK    5  A    between atoms: C_15  and  C_16 
REMARK    6  A    between atoms: C_19  and  O_20 
ROOT
HETATM    1  N   UNL     1      24.239  46.424  49.814  1.00  0.00    -0.262 N 
HETATM    2  C   UNL     1      24.116  47.787  49.650  1.00  0.00     0.288 C 
HETATM    3  O   UNL     1      25.084  48.542  49.707  1.00  0.00    -0.264 OA
HETATM    4  H   UNL     1      23.437  45.801  49.890  1.00  0.00     0.190 HD
ENDROOT
BRANCH   2   5
HETATM    5  C   UNL     1      22.777  48.250  49.412  1.00  0.00     0.121 A 
HETATM    6  N   UNL     1      21.773  47.412  49.018  1.00  0.00    -0.272 N 
HETATM    7  H   UNL     1      21.843  46.412  48.852  1.00  0.00     0.189 HD
HETATM    8  N   UNL     1      20.585  48.012  48.856  1.00  0.00    -0.174 NA
HETATM    9  C   UNL     1      20.816  49.306  49.134  1.00  0.00     0.089 A 
HETATM   10  C   UNL     1      22.179  49.493  49.494  1.00  0.00     0.071 A 
BRANCH   9  11
HETATM   11  C   UNL     1      19.759  50.320  49.068  1.00  0.00    -0.005 A 
HETATM   12  C   UNL     1      18.501  50.079  49.634  1.00  0.00     0.016 A 
HETATM   13  C   UNL     1      17.501  51.056  49.593  1.00  0.00     0.037 A 
HETATM   14  C   UNL     1      17.737  52.291  48.986  1.00  0.00     0.068 A 
HETATM   15  C   UNL     1      18.980  52.536  48.406  1.00  0.00     0.037 A 
HETATM   16  C   UNL     1      19.983  51.557  48.447  1.00  0.00     0.016 A 
BRANCH  14  17
HETATM   17  O   UNL     1      16.683  53.161  49.022  1.00  0.00    -0.356 OA
HETATM   18  C   UNL     1      16.060  53.360  50.285  1.00  0.00     0.210 C 
ENDBRANCH  14  17
ENDBRANCH   9  11
ENDBRANCH   2   5
BRANCH   1  19
HETATM   19  N   UNL     1      25.466  45.881  50.204  1.00  0.00    -0.267 N 
HETATM   20  C   UNL     1      25.446  44.894  51.168  1.00  0.00     0.240 C 
HETATM   21  O   UNL     1      24.392  44.445  51.620  1.00  0.00    -0.272 OA
HETATM   22  H   UNL     1      26.311  46.335  49.862  1.00  0.00     0.190 HD
BRANCH  20  23
HETATM   23  C   UNL     1      26.811  44.397  51.596  1.00  0.00     0.143 C 
BRANCH  23  24
HETATM   24  C   UNL     1      27.287  44.868  52.952  1.00  0.00    -0.049 A 
HETATM   25  C   UNL     1      26.777  46.003  53.596  1.00  0.00     0.008 A 
HETATM   26  C   UNL     1      27.274  46.401  54.841  1.00  0.00     0.007 A 
HETATM   27  C   UNL     1      28.306  45.688  55.458  1.00  0.00    -0.062 A 
HETATM   28  C   UNL     1      28.823  46.101  56.804  1.00  0.00     0.048 C 
HETATM   29  C   UNL     1      28.816  44.552  54.823  1.00  0.00     0.007 A 
HETATM   30  C   UNL     1      28.316  44.151  53.582  1.00  0.00     0.008 A 
ENDBRANCH  23  24
ENDBRANCH  20  23
ENDBRANCH   1  19
TORSDOF 6
ENDMDL
MODEL 5
REMARK VINA RESULT:      -8.6      1.670      2.384
REMARK  6 active torsions:
REMARK  status: ('A' for Active; 'I' for Inactive)
REMARK    1  A    between atoms: C_5  and  C_6 
REMARK    2  A    between atoms: C_6  and  C_7 
REMARK       I    between atoms: C_7  and  N_8 
REMARK    3  A    between atoms: N_8  and  N_9 
REMARK       I    between atoms: N_9  and  C_10 
REMARK    4  A    between atoms: C_10  and  C_11 
REMARK    5  A    between atoms: C_15  and  C_16 
REMARK    6  A    between atoms: C_19  and  O_20 
ROOT
HETATM    1  N   UNL     1      23.798  45.556  50.267  1.00  0.00    -0.262 N 
HETATM    2  C   UNL     1      24.675  46.318  51.010  1.00  0.00     0.288 C 
HETATM    3  O   UNL     1      24.645  47.547  50.998  1.00  0.00    -0.264 OA
HETATM    4  H   UNL     1      23.888  44.546  50.172  1.00  0.00     0.190 HD
ENDROOT
BRANCH   2   5
HETATM    5  C   UNL     1      25.622  45.567  51.788  1.00  0.00     0.121 A 
HETATM    6  N   UNL     1      25.647  44.201  51.787  1.00  0.00    -0.272 N 
HETATM    7  H   UNL     1      25.035  43.580  51.268  1.00  0.00     0.189 HD
HETATM    8  N   UNL     1      26.605  43.668  52.561  1.00  0.00    -0.174 NA
HETATM    9  C   UNL     1      27.225  44.723  53.113  1.00  0.00     0.089 A 
HETATM   10  C   UNL     1      26.641  45.933  52.645  1.00  0.00     0.071 A 
BRANCH   9  11
HETATM   11  C   UNL     1      28.348  44.571  54.043  1.00  0.00    -0.005 A 
HETATM   12  C   UNL     1      29.203  43.466  53.956  1.00  0.00     0.016 A 
HETATM   13  C   UNL     1      30.289  43.334  54.828  1.00  0.00     0.037 A 
HETATM   14  C   UNL     1      30.541  44.301  55.804  1.00  0.00     0.068 A 
HETATM   15  C   UNL     1      29.687  45.397  55.909  1.00  0.00     0.037 A 
HETATM   16  C   UNL     1      28.599  45.530  55.035  1.00  0.00     0.016 A 
BRANCH  14  17
HETATM   17  O   UNL     1      31.637  44.059  56.583  1.00  0.00    -0.356 OA
HETATM   18  C   UNL     1      31.657  42.830  57.299  1.00  0.00     0.210 C 
ENDBRANCH  14  17
ENDBRANCH   9  11
ENDBRANCH   2   5
BRANCH   1  19
HETATM   19  N   UNL     1      22.940  46.177  49.356  1.00  0.00    -0.267 N 
HETATM   20  C   UNL     1      21.874  45.440  48.884  1.00  0.00     0.240 C 
HETATM   21  O   UNL     1      21.631  44.306  49.299  1.00  0.00    -0.272 OA
HETATM   22  H   UNL     1      23.223  47.083  48.986  1.00  0.00     0.190 HD
BRANCH  20  23
HETATM   23  C   UNL     1      21.024  46.146  47.849  1.00  0.00     0.143 C 
BRANCH  23  24
HETATM   24  C   UNL     1      20.671  47.583  48.157  1.00  0.00    -0.049 A 
HETATM   25  C   UNL     1      19.671  47.954  49.064  1.00  0.00     0.008 A 
HETATM   26  C   UNL     1      19.376  49.302  49.290  1.00  0.00     0.007 A 
HETATM   27  C   UNL     1      20.058  50.308  48.599  1.00  0.00    -0.062 A 
HETATM   28  C   UNL     1      19.758  51.754  48.858  1.00  0.00     0.048 C 
HETATM   29  C   UNL     1      21.060  49.944  47.695  1.00  0.00     0.007 A 
HETATM   30  C   UNL     1      21.359  48.598  47.472  1.00  0.00     0.008 A 
ENDBRANCH  23  24
ENDBRANCH  20  23
ENDBRANCH   1  19
TORSDOF 6
ENDMDL
MODEL 6
REMARK VINA RESULT:      -8.5      2.563     10.766
REMARK  6 active torsions:
REMARK  status: ('A' for Active; 'I' for Inactive)
REMARK    1  A    between atoms: C_5  and  C_6 
REMARK    2  A    between atoms: C_6  and  C_7 
REMARK       I    between atoms: C_7  and  N_8 
REMARK    3  A    between atoms: N_8  and  N_9 
REMARK       I    between atoms: N_9  and  C_10 
REMARK    4  A    between atoms: C_10  and  C_11 
REMARK    5  A    between atoms: C_15  and  C_16 
REMARK    6  A    between atoms: C_19  and  O_20 
ROOT
HETATM    1  N   UNL     1      25.607  46.466  49.513  1.00  0.00    -0.262 N 
HETATM    2  C   UNL     1      25.844  47.818  49.646  1.00  0.00     0.288 C 
HETATM    3  O   UNL     1      26.848  48.254  50.206  1.00  0.00    -0.264 OA
HETATM    4  H   UNL     1      24.729  46.091  49.162  1.00  0.00     0.190 HD
ENDROOT
BRANCH   2   5
HETATM    5  C   UNL     1      24.830  48.669  49.086  1.00  0.00     0.121 A 
HETATM    6  N   UNL     1      25.121  49.666  48.200  1.00  0.00    -0.272 N 
HETATM    7  H   UNL     1      26.039  49.920  47.846  1.00  0.00     0.189 HD
HETATM    8  N   UNL     1      24.051  50.352  47.771  1.00  0.00    -0.174 NA
HETATM    9  C   UNL     1      23.011  49.798  48.414  1.00  0.00     0.089 A 
HETATM   10  C   UNL     1      23.459  48.733  49.244  1.00  0.00     0.071 A 
BRANCH   9  11
HETATM   11  C   UNL     1      21.635  50.269  48.226  1.00  0.00    -0.005 A 
HETATM   12  C   UNL     1      20.756  49.586  47.378  1.00  0.00     0.016 A 
HETATM   13  C   UNL     1      19.436  50.021  47.218  1.00  0.00     0.037 A 
HETATM   14  C   UNL     1      18.970  51.146  47.900  1.00  0.00     0.068 A 
HETATM   15  C   UNL     1      19.841  51.843  48.735  1.00  0.00     0.037 A 
HETATM   16  C   UNL     1      21.163  51.407  48.896  1.00  0.00     0.016 A 
BRANCH  14  17
HETATM   17  O   UNL     1      17.660  51.459  47.665  1.00  0.00    -0.356 OA
HETATM   18  C   UNL     1      16.691  50.834  48.498  1.00  0.00     0.210 C 
ENDBRANCH  14  17
ENDBRANCH   9  11
ENDBRANCH   2   5
BRANCH   1  19
HETATM   19  N   UNL     1      26.444  45.550  50.155  1.00  0.00    -0.267 N 
HETATM   20  C   UNL     1      25.882  44.749  51.128  1.00  0.00     0.240 C 
HETATM   21  O   UNL     1      24.676  44.775  51.377  1.00  0.00    -0.272 OA
HETATM   22  H   UNL     1      27.444  45.617  49.972  1.00  0.00     0.190 HD
BRANCH  20  23
HETATM   23  C   UNL     1      26.855  43.828  51.833  1.00  0.00     0.143 C 
BRANCH  23  24
HETATM   24  C   UNL     1      27.503  44.386  53.080  1.00  0.00    -0.049 A 
HETATM   25  C   UNL     1      28.636  43.820  53.679  1.00  0.00     0.008 A 
HETATM   26  C   UNL     1      29.176  44.370  54.846  1.00  0.00     0.007 A 
HETATM   27  C   UNL     1      28.583  45.481  55.452  1.00  0.00    -0.062 A 
HETATM   28  C   UNL     1      29.175  46.084  56.691  1.00  0.00     0.048 C 
HETATM   29  C   UNL     1      27.454  46.052  54.857  1.00  0.00     0.007 A 
HETATM   30  C   UNL     1      26.917  45.507  53.689  1.00  0.00     0.008 A 
ENDBRANCH  23  24
ENDBRANCH  20  23
ENDBRANCH   1  19
TORSDOF 6
ENDMDL
MODEL 7
REMARK VINA RESULT:      -8.4      1.747      2.667
REMARK  6 active torsions:
REMARK  status: ('A' for Active; 'I' for Inactive)
REMARK    1  A    between atoms: C_5  and  C_6 
REMARK    2  A    between atoms: C_6  and  C_7 
REMARK       I    between atoms: C_7  and  N_8 
REMARK    3  A    between atoms: N_8  and  N_9 
REMARK       I    between atoms: N_9  and  C_10 
REMARK    4  A    between atoms: C_10  and  C_11 
REMARK    5  A    between atoms: C_15  and  C_16 
REMARK    6  A    between atoms: C_19  and  O_20 
ROOT
HETATM    1  N   UNL     1      22.450  47.552  49.047  1.00  0.00    -0.262 N 
HETATM    2  C   UNL     1      23.614  48.026  49.614  1.00  0.00     0.288 C 
HETATM    3  O   UNL     1      23.948  49.206  49.533  1.00  0.00    -0.264 OA
HETATM    4  H   UNL     1      22.221  46.562  49.001  1.00  0.00     0.190 HD
ENDROOT
BRANCH   2   5
HETATM    5  C   UNL     1      24.401  47.037  50.298  1.00  0.00     0.121 A 
HETATM    6  N   UNL     1      24.297  45.703  50.023  1.00  0.00    -0.272 N 
HETATM    7  H   UNL     1      23.684  45.267  49.340  1.00  0.00     0.189 HD
HETATM    8  N   UNL     1      25.116  44.925  50.747  1.00  0.00    -0.174 NA
HETATM    9  C   UNL     1      25.775  45.778  51.548  1.00  0.00     0.089 A 
HETATM   10  C   UNL     1      25.359  47.113  51.290  1.00  0.00     0.071 A 
BRANCH   9  11
HETATM   11  C   UNL     1      26.778  45.322  52.516  1.00  0.00    -0.005 A 
HETATM   12  C   UNL     1      26.929  45.972  53.748  1.00  0.00     0.016 A 
HETATM   13  C   UNL     1      27.868  45.521  54.681  1.00  0.00     0.037 A 
HETATM   14  C   UNL     1      28.675  44.416  54.403  1.00  0.00     0.068 A 
HETATM   15  C   UNL     1      28.545  43.773  53.174  1.00  0.00     0.037 A 
HETATM   16  C   UNL     1      27.603  44.223  52.239  1.00  0.00     0.016 A 
BRANCH  14  17
HETATM   17  O   UNL     1      29.544  44.073  55.401  1.00  0.00    -0.356 OA
HETATM   18  C   UNL     1      30.629  43.225  55.045  1.00  0.00     0.210 C 
ENDBRANCH  14  17
ENDBRANCH   9  11
ENDBRANCH   2   5
BRANCH   1  19
HETATM   19  N   UNL     1      21.688  48.389  48.228  1.00  0.00    -0.267 N 
HETATM   20  C   UNL     1      20.364  48.577  48.568  1.00  0.00     0.240 C 
HETATM   21  O   UNL     1      19.880  48.095  49.593  1.00  0.00    -0.272 OA
HETATM   22  H   UNL     1      22.108  48.702  47.354  1.00  0.00     0.190 HD
BRANCH  20  23
HETATM   23  C   UNL     1      19.577  49.438  47.603  1.00  0.00     0.143 C 
BRANCH  23  24
HETATM   24  C   UNL     1      18.650  50.452  48.232  1.00  0.00    -0.049 A 
HETATM   25  C   UNL     1      19.096  51.641  48.824  1.00  0.00     0.008 A 
HETATM   26  C   UNL     1      18.191  52.531  49.411  1.00  0.00     0.007 A 
HETATM   27  C   UNL     1      16.823  52.241  49.439  1.00  0.00    -0.062 A 
HETATM   28  C   UNL     1      15.849  53.206  50.048  1.00  0.00     0.048 C 
HETATM   29  C   UNL     1      16.371  51.059  48.847  1.00  0.00     0.007 A 
HETATM   30  C   UNL     1      17.274  50.172  48.256  1.00  0.00     0.008 A 
ENDBRANCH  23  24
ENDBRANCH  20  23
ENDBRANCH   1  19
TORSDOF 6
ENDMDL
MODEL 8
REMARK VINA RESULT:      -8.2      1.972      3.265
REMARK  6 active torsions:
REMARK  status: ('A' for Active; 'I' for Inactive)
REMARK    1  A    between atoms: C_5  and  C_6 
REMARK    2  A    between atoms: C_6  and  C_7 
REMARK       I    between atoms: C_7  and  N_8 
REMARK    3  A    between atoms: N_8  and  N_9 
REMARK       I    between atoms: N_9  and  C_10 
REMARK    4  A    between atoms: C_10  and  C_11 
REMARK    5  A    between atoms: C_15  and  C_16 
REMARK    6  A    between atoms: C_19  and  O_20 
ROOT
HETATM    1  N   UNL     1      21.705  48.331  49.310  1.00  0.00    -0.262 N 
HETATM    2  C   UNL     1      22.697  47.529  48.786  1.00  0.00     0.288 C 
HETATM    3  O   UNL     1      22.847  47.381  47.575  1.00  0.00    -0.264 OA
HETATM    4  H   UNL     1      21.491  48.368  50.304  1.00  0.00     0.190 HD
ENDROOT
BRANCH   2   5
HETATM    5  C   UNL     1      23.530  46.881  49.761  1.00  0.00     0.121 A 
HETATM    6  N   UNL     1      23.519  45.528  49.949  1.00  0.00    -0.272 N 
HETATM    7  H   UNL     1      22.951  44.848  49.452  1.00  0.00     0.189 HD
HETATM    8  N   UNL     1      24.369  45.095  50.891  1.00  0.00    -0.174 NA
HETATM    9  C   UNL     1      24.953  46.210  51.362  1.00  0.00     0.089 A 
HETATM   10  C   UNL     1      24.457  47.350  50.671  1.00  0.00     0.071 A 
BRANCH   9  11
HETATM   11  C   UNL     1      25.961  46.174  52.426  1.00  0.00    -0.005 A 
HETATM   12  C   UNL     1      26.127  47.264  53.289  1.00  0.00     0.016 A 
HETATM   13  C   UNL     1      27.071  47.220  54.321  1.00  0.00     0.037 A 
HETATM   14  C   UNL     1      27.867  46.088  54.509  1.00  0.00     0.068 A 
HETATM   15  C   UNL     1      27.720  45.004  53.647  1.00  0.00     0.037 A 
HETATM   16  C   UNL     1      26.774  45.047  52.614  1.00  0.00     0.016 A 
BRANCH  14  17
HETATM   17  O   UNL     1      28.741  46.168  55.558  1.00  0.00    -0.356 OA
HETATM   18  C   UNL     1      29.635  45.076  55.732  1.00  0.00     0.210 C 
ENDBRANCH  14  17
ENDBRANCH   9  11
ENDBRANCH   2   5
BRANCH   1  19
HETATM   19  N   UNL     1      20.742  48.883  48.462  1.00  0.00    -0.267 N 
HETATM   20  C   UNL     1      20.844  50.229  48.177  1.00  0.00     0.240 C 
HETATM   21  O   UNL     1      21.785  50.912  48.582  1.00  0.00    -0.272 OA
HETATM   22  H   UNL     1      19.943  48.301  48.215  1.00  0.00     0.190 HD
BRANCH  20  23
HETATM   23  C   UNL     1      19.731  50.781  47.310  1.00  0.00     0.143 C 
BRANCH  23  24
HETATM   24  C   UNL     1      18.479  51.207  48.041  1.00  0.00    -0.049 A 
HETATM   25  C   UNL     1      17.222  50.628  47.820  1.00  0.00     0.008 A 
HETATM   26  C   UNL     1      16.095  51.082  48.513  1.00  0.00     0.007 A 
HETATM   27  C   UNL     1      16.194  52.138  49.423  1.00  0.00    -0.062 A 
HETATM   28  C   UNL     1      14.990  52.609  50.182  1.00  0.00     0.048 C 
HETATM   29  C   UNL     1      17.445  52.718  49.651  1.00  0.00     0.007 A 
HETATM   30  C   UNL     1      18.573  52.262  48.963  1.00  0.00     0.008 A 
ENDBRANCH  23  24
ENDBRANCH  20  23
ENDBRANCH   1  19
TORSDOF 6
ENDMDL
MODEL 9
REMARK VINA RESULT:      -8.1      2.709     10.958
REMARK  6 active torsions:
REMARK  status: ('A' for Active; 'I' for Inactive)
REMARK    1  A    between atoms: C_5  and  C_6 
REMARK    2  A    between atoms: C_6  and  C_7 
REMARK       I    between atoms: C_7  and  N_8 
REMARK    3  A    between atoms: N_8  and  N_9 
REMARK       I    between atoms: N_9  and  C_10 
REMARK    4  A    between atoms: C_10  and  C_11 
REMARK    5  A    between atoms: C_15  and  C_16 
REMARK    6  A    between atoms: C_19  and  O_20 
ROOT
HETATM    1  N   UNL     1      23.725  46.704  49.657  1.00  0.00    -0.262 N 
HETATM    2  C   UNL     1      24.248  47.980  49.638  1.00  0.00     0.288 C 
HETATM    3  O   UNL     1      25.445  48.198  49.809  1.00  0.00    -0.264 OA
HETATM    4  H   UNL     1      22.725  46.516  49.638  1.00  0.00     0.190 HD
ENDROOT
BRANCH   2   5
HETATM    5  C   UNL     1      23.288  49.024  49.409  1.00  0.00     0.121 A 
HETATM    6  N   UNL     1      23.641  50.244  48.905  1.00  0.00    -0.272 N 
HETATM    7  H   UNL     1      24.574  50.549  48.644  1.00  0.00     0.189 HD
HETATM    8  N   UNL     1      22.615  51.092  48.744  1.00  0.00    -0.174 NA
HETATM    9  C   UNL     1      21.540  50.414  49.179  1.00  0.00     0.089 A 
HETATM   10  C   UNL     1      21.922  49.109  49.598  1.00  0.00     0.071 A 
BRANCH   9  11
HETATM   11  C   UNL     1      20.195  50.997  49.178  1.00  0.00    -0.005 A 
HETATM   12  C   UNL     1      19.889  52.085  48.351  1.00  0.00     0.016 A 
HETATM   13  C   UNL     1      18.598  52.624  48.331  1.00  0.00     0.037 A 
HETATM   14  C   UNL     1      17.591  52.091  49.137  1.00  0.00     0.068 A 
HETATM   15  C   UNL     1      17.889  51.019  49.975  1.00  0.00     0.037 A 
HETATM   16  C   UNL     1      19.181  50.477  49.995  1.00  0.00     0.016 A 
BRANCH  14  17
HETATM   17  O   UNL     1      16.374  52.702  49.016  1.00  0.00    -0.356 OA
HETATM   18  C   UNL     1      15.625  52.414  47.842  1.00  0.00     0.210 C 
ENDBRANCH  14  17
ENDBRANCH   9  11
ENDBRANCH   2   5
BRANCH   1  19
HETATM   19  N   UNL     1      24.537  45.628  50.025  1.00  0.00    -0.267 N 
HETATM   20  C   UNL     1      23.913  44.435  50.327  1.00  0.00     0.240 C 
HETATM   21  O   UNL     1      22.696  44.287  50.205  1.00  0.00    -0.272 OA
HETATM   22  H   UNL     1      25.525  45.818  50.186  1.00  0.00     0.190 HD
BRANCH  20  23
HETATM   23  C   UNL     1      24.842  43.331  50.785  1.00  0.00     0.143 C 
BRANCH  23  24
HETATM   24  C   UNL     1      25.868  43.724  51.823  1.00  0.00    -0.049 A 
HETATM   25  C   UNL     1      27.250  43.605  51.624  1.00  0.00     0.008 A 
HETATM   26  C   UNL     1      28.150  43.965  52.632  1.00  0.00     0.007 A 
HETATM   27  C   UNL     1      27.689  44.429  53.867  1.00  0.00    -0.062 A 
HETATM   28  C   UNL     1      28.655  44.836  54.940  1.00  0.00     0.048 C 
HETATM   29  C   UNL     1      26.312  44.553  54.071  1.00  0.00     0.007 A 
HETATM   30  C   UNL     1      25.413  44.198  53.063  1.00  0.00     0.008 A 
ENDBRANCH  23  24
ENDBRANCH  20  23
ENDBRANCH   1  19
TORSDOF 6
ENDMDL
MODEL 10
REMARK VINA RESULT:      -8.0      3.284     11.476
REMARK  6 active torsions:
REMARK  status: ('A' for Active; 'I' for Inactive)
REMARK    1  A    between atoms: C_5  and  C_6 
REMARK    2  A    between atoms: C_6  and  C_7 
REMARK       I    between atoms: C_7  and  N_8 
REMARK    3  A    between atoms: N_8  and  N_9 
REMARK       I    between atoms: N_9  and  C_10 
REMARK    4  A    between atoms: C_10  and  C_11 
REMARK    5  A    between atoms: C_15  and  C_16 
REMARK    6  A    between atoms: C_19  and  O_20 
ROOT
HETATM    1  N   UNL     1      22.382  47.831  49.439  1.00  0.00    -0.262 N 
HETATM    2  C   UNL     1      21.820  47.769  48.181  1.00  0.00     0.288 C 
HETATM    3  O   UNL     1      22.312  47.097  47.277  1.00  0.00    -0.264 OA
HETATM    4  H   UNL     1      22.058  48.473  50.159  1.00  0.00     0.190 HD
ENDROOT
BRANCH   2   5
HETATM    5  C   UNL     1      20.627  48.552  48.012  1.00  0.00     0.121 A 
HETATM    6  N   UNL     1      19.841  48.454  46.900  1.00  0.00    -0.272 N 
HETATM    7  H   UNL     1      19.993  47.851  46.096  1.00  0.00     0.189 HD
HETATM    8  N   UNL     1      18.760  49.248  46.917  1.00  0.00    -0.174 NA
HETATM    9  C   UNL     1      18.844  49.914  48.080  1.00  0.00     0.089 A 
HETATM   10  C   UNL     1      20.000  49.498  48.799  1.00  0.00     0.071 A 
BRANCH   9  11
HETATM   11  C   UNL     1      17.842  50.903  48.488  1.00  0.00    -0.005 A 
HETATM   12  C   UNL     1      16.539  50.852  47.979  1.00  0.00     0.016 A 
HETATM   13  C   UNL     1      15.576  51.781  48.388  1.00  0.00     0.037 A 
HETATM   14  C   UNL     1      15.896  52.778  49.312  1.00  0.00     0.068 A 
HETATM   15  C   UNL     1      17.194  52.847  49.814  1.00  0.00     0.037 A 
HETATM   16  C   UNL     1      18.159  51.916  49.405  1.00  0.00     0.016 A 
BRANCH  14  17
HETATM   17  O   UNL     1      14.864  53.614  49.636  1.00  0.00    -0.356 OA
HETATM   18  C   UNL     1      14.075  53.253  50.763  1.00  0.00     0.210 C 
ENDBRANCH  14  17
ENDBRANCH   9  11
ENDBRANCH   2   5
BRANCH   1  19
HETATM   19  N   UNL     1      23.625  47.237  49.672  1.00  0.00    -0.267 N 
HETATM   20  C   UNL     1      24.738  48.051  49.612  1.00  0.00     0.240 C 
HETATM   21  O   UNL     1      24.648  49.267  49.439  1.00  0.00    -0.272 OA
HETATM   22  H   UNL     1      23.658  46.221  49.734  1.00  0.00     0.190 HD
BRANCH  20  23
HETATM   23  C   UNL     1      26.059  47.335  49.804  1.00  0.00     0.143 C 
BRANCH  23  24
HETATM   24  C   UNL     1      26.206  46.563  51.096  1.00  0.00    -0.049 A 
HETATM   25  C   UNL     1      26.063  47.145  52.362  1.00  0.00     0.008 A 
HETATM   26  C   UNL     1      26.234  46.383  53.522  1.00  0.00     0.007 A 
HETATM   27  C   UNL     1      26.572  45.029  53.442  1.00  0.00    -0.062 A 
HETATM   28  C   UNL     1      26.733  44.206  54.686  1.00  0.00     0.048 C 
HETATM   29  C   UNL     1      26.713  44.441  52.182  1.00  0.00     0.007 A 
HETATM   30  C   UNL     1      26.538  45.201  51.023  1.00  0.00     0.008 A 
ENDBRANCH  23  24
ENDBRANCH  20  23
ENDBRANCH   1  19
TORSDOF 6
ENDMDL
