MODEL 1
REMARK VINA RESULT:      -8.4      0.000      0.000
REMARK  3 active torsions:
REMARK  status: ('A' for Active; 'I' for Inactive)
REMARK    1  A    between atoms: C_9  and  C_10 
REMARK    2  A    between atoms: C_16  and  C_17 
REMARK       I    between atoms: C_17  and  N_18 
REMARK    3  A    between atoms: N_18  and  C_19 
ROOT
HETATM    1  C   UNL     1      28.682  40.960  52.139  1.00  0.00     0.070 C 
HETATM    2  C   UNL     1      27.470  41.735  51.687  1.00  0.00     0.037 C 
HETATM    3  N   UNL     1      26.900  41.313  50.490  1.00  0.00    -0.192 N 
HETATM    4  C   UNL     1      25.681  41.713  50.077  1.00  0.00     0.725 A 
HETATM    5  N   UNL     1      25.028  42.698  50.766  1.00  0.00    -0.084 N 
HETATM    6  N   UNL     1      23.795  42.914  50.264  1.00  0.00    -0.149 NA
HETATM    7  C   UNL     1      23.791  42.049  49.242  1.00  0.00     0.275 A 
HETATM    8  N   UNL     1      24.929  41.298  49.090  1.00  0.00    -0.054 NA
HETATM    9  C   UNL     1      25.587  43.395  51.930  1.00  0.00     0.202 C 
HETATM   10  C   UNL     1      26.883  42.736  52.391  1.00  0.00     0.062 C 
HETATM   11  H   UNL     1      27.310  40.500  50.035  1.00  0.00     0.184 HD
ENDROOT
BRANCH  10  12
HETATM   12  C   UNL     1      27.358  43.208  53.717  1.00  0.00     0.256 C 
HETATM   13  N   UNL     1      28.593  43.815  53.679  1.00  0.00    -0.322 N 
HETATM   14  H   UNL     1      29.030  43.928  52.774  1.00  0.00     0.169 HD
HETATM   15  O   UNL     1      26.627  43.079  54.689  1.00  0.00    -0.267 OA
BRANCH  13  16
HETATM   16  C   UNL     1      29.328  44.290  54.788  1.00  0.00     0.052 A 
HETATM   17  C   UNL     1      29.075  45.477  55.469  1.00  0.00     0.145 A 
HETATM   18  N   UNL     1      29.781  45.900  56.550  1.00  0.00    -0.271 NA
HETATM   19  C   UNL     1      30.783  45.107  56.974  1.00  0.00     0.116 A 
HETATM   20  C   UNL     1      31.118  43.908  56.367  1.00  0.00     0.021 A 
HETATM   21  C   UNL     1      30.379  43.500  55.258  1.00  0.00     0.032 A 
ENDBRANCH  13  16
ENDBRANCH  10  12
BRANCH   9  22
HETATM   22  C   UNL     1      25.786  44.876  51.623  1.00  0.00    -0.025 A 
HETATM   23  C   UNL     1      26.391  45.263  50.421  1.00  0.00     0.029 A 
HETATM   24  C   UNL     1      26.539  46.615  50.150  1.00  0.00     0.117 A 
HETATM   25  N   UNL     1      26.126  47.595  50.981  1.00  0.00    -0.273 NA
HETATM   26  C   UNL     1      25.547  47.209  52.136  1.00  0.00     0.117 A 
HETATM   27  C   UNL     1      25.348  45.884  52.494  1.00  0.00     0.029 A 
ENDBRANCH   9  22
TORSDOF 3
ENDMDL
MODEL 2
REMARK VINA RESULT:      -8.2      2.156      3.274
REMARK  3 active torsions:
REMARK  status: ('A' for Active; 'I' for Inactive)
REMARK    1  A    between atoms: C_9  and  C_10 
REMARK    2  A    between atoms: C_16  and  C_17 
REMARK       I    between atoms: C_17  and  N_18 
REMARK    3  A    between atoms: N_18  and  C_19 
ROOT
HETATM    1  C   UNL     1      29.999  42.730  53.426  1.00  0.00     0.070 C 
HETATM    2  C   UNL     1      28.851  42.274  52.560  1.00  0.00     0.037 C 
HETATM    3  N   UNL     1      29.155  41.278  51.637  1.00  0.00    -0.192 N 
HETATM    4  C   UNL     1      28.212  40.579  50.975  1.00  0.00     0.725 A 
HETATM    5  N   UNL     1      26.900  40.957  51.078  1.00  0.00    -0.084 N 
HETATM    6  N   UNL     1      26.091  40.102  50.419  1.00  0.00    -0.149 NA
HETATM    7  C   UNL     1      26.992  39.256  49.906  1.00  0.00     0.275 A 
HETATM    8  N   UNL     1      28.302  39.516  50.219  1.00  0.00    -0.054 NA
HETATM    9  C   UNL     1      26.438  42.119  51.845  1.00  0.00     0.202 C 
HETATM   10  C   UNL     1      27.572  42.712  52.675  1.00  0.00     0.062 C 
HETATM   11  H   UNL     1      30.102  40.907  51.641  1.00  0.00     0.184 HD
ENDROOT
BRANCH  10  12
HETATM   12  C   UNL     1      27.122  43.709  53.680  1.00  0.00     0.256 C 
HETATM   13  N   UNL     1      27.251  45.015  53.262  1.00  0.00    -0.322 N 
HETATM   14  H   UNL     1      27.581  45.173  52.319  1.00  0.00     0.169 HD
HETATM   15  O   UNL     1      26.642  43.315  54.733  1.00  0.00    -0.267 OA
BRANCH  13  16
HETATM   16  C   UNL     1      26.979  46.170  54.027  1.00  0.00     0.052 A 
HETATM   17  C   UNL     1      25.914  47.041  53.814  1.00  0.00     0.145 A 
HETATM   18  N   UNL     1      25.658  48.134  54.580  1.00  0.00    -0.271 NA
HETATM   19  C   UNL     1      26.500  48.371  55.605  1.00  0.00     0.116 A 
HETATM   20  C   UNL     1      27.589  47.569  55.902  1.00  0.00     0.021 A 
HETATM   21  C   UNL     1      27.829  46.456  55.098  1.00  0.00     0.032 A 
ENDBRANCH  13  16
ENDBRANCH  10  12
BRANCH   9  22
HETATM   22  C   UNL     1      25.813  43.157  50.920  1.00  0.00    -0.025 A 
HETATM   23  C   UNL     1      24.427  43.363  50.938  1.00  0.00     0.029 A 
HETATM   24  C   UNL     1      23.882  44.330  50.108  1.00  0.00     0.117 A 
HETATM   25  N   UNL     1      24.613  45.101  49.275  1.00  0.00    -0.273 NA
HETATM   26  C   UNL     1      25.945  44.892  49.265  1.00  0.00     0.117 A 
HETATM   27  C   UNL     1      26.585  43.955  50.063  1.00  0.00     0.029 A 
ENDBRANCH   9  22
TORSDOF 3
ENDMDL
MODEL 3
REMARK VINA RESULT:      -7.4     13.095     15.718
REMARK  3 active torsions:
REMARK  status: ('A' for Active; 'I' for Inactive)
REMARK    1  A    between atoms: C_9  and  C_10 
REMARK    2  A    between atoms: C_16  and  C_17 
REMARK       I    between atoms: C_17  and  N_18 
REMARK    3  A    between atoms: N_18  and  C_19 
ROOT
HETATM    1  C   UNL     1      28.790  53.218  38.203  1.00  0.00     0.070 C 
HETATM    2  C   UNL     1      28.733  51.759  38.583  1.00  0.00     0.037 C 
HETATM    3  N   UNL     1      27.463  51.258  38.851  1.00  0.00    -0.192 N 
HETATM    4  C   UNL     1      27.200  49.940  38.948  1.00  0.00     0.725 A 
HETATM    5  N   UNL     1      28.237  49.047  38.947  1.00  0.00    -0.084 N 
HETATM    6  N   UNL     1      27.789  47.775  38.970  1.00  0.00    -0.149 NA
HETATM    7  C   UNL     1      26.468  47.981  39.028  1.00  0.00     0.275 A 
HETATM    8  N   UNL     1      26.066  49.292  39.021  1.00  0.00    -0.054 NA
HETATM    9  C   UNL     1      29.652  49.430  38.885  1.00  0.00     0.202 C 
HETATM   10  C   UNL     1      29.801  50.923  38.607  1.00  0.00     0.062 C 
HETATM   11  H   UNL     1      26.674  51.890  38.733  1.00  0.00     0.184 HD
ENDROOT
BRANCH  10  12
HETATM   12  C   UNL     1      31.186  51.333  38.258  1.00  0.00     0.256 C 
HETATM   13  N   UNL     1      31.937  51.730  39.341  1.00  0.00    -0.322 N 
HETATM   14  H   UNL     1      31.510  51.660  40.256  1.00  0.00     0.169 HD
HETATM   15  O   UNL     1      31.557  51.240  37.096  1.00  0.00    -0.267 OA
BRANCH  13  16
HETATM   16  C   UNL     1      33.252  52.242  39.307  1.00  0.00     0.052 A 
HETATM   17  C   UNL     1      33.587  53.593  39.290  1.00  0.00     0.145 A 
HETATM   18  N   UNL     1      34.862  54.062  39.283  1.00  0.00    -0.271 NA
HETATM   19  C   UNL     1      35.850  53.146  39.295  1.00  0.00     0.116 A 
HETATM   20  C   UNL     1      35.625  51.780  39.310  1.00  0.00     0.021 A 
HETATM   21  C   UNL     1      34.307  51.326  39.314  1.00  0.00     0.032 A 
ENDBRANCH  13  16
ENDBRANCH  10  12
BRANCH   9  22
HETATM   22  C   UNL     1      30.376  49.019  40.162  1.00  0.00    -0.025 A 
HETATM   23  C   UNL     1      31.497  48.182  40.090  1.00  0.00     0.029 A 
HETATM   24  C   UNL     1      32.155  47.841  41.261  1.00  0.00     0.117 A 
HETATM   25  N   UNL     1      31.783  48.275  42.484  1.00  0.00    -0.273 NA
HETATM   26  C   UNL     1      30.702  49.078  42.540  1.00  0.00     0.117 A 
HETATM   27  C   UNL     1      29.981  49.481  41.426  1.00  0.00     0.029 A 
ENDBRANCH   9  22
TORSDOF 3
ENDMDL
MODEL 4
REMARK VINA RESULT:      -7.3     12.826     15.716
REMARK  3 active torsions:
REMARK  status: ('A' for Active; 'I' for Inactive)
REMARK    1  A    between atoms: C_9  and  C_10 
REMARK    2  A    between atoms: C_16  and  C_17 
REMARK       I    between atoms: C_17  and  N_18 
REMARK    3  A    between atoms: N_18  and  C_19 
ROOT
HETATM    1  C   UNL     1      32.246  48.314  42.220  1.00  0.00     0.070 C 
HETATM    2  C   UNL     1      32.427  49.481  41.281  1.00  0.00     0.037 C 
HETATM    3  N   UNL     1      33.451  50.364  41.613  1.00  0.00    -0.192 N 
HETATM    4  C   UNL     1      33.918  51.298  40.761  1.00  0.00     0.725 A 
HETATM    5  N   UNL     1      33.266  51.513  39.577  1.00  0.00    -0.084 N 
HETATM    6  N   UNL     1      33.914  52.421  38.819  1.00  0.00    -0.149 NA
HETATM    7  C   UNL     1      34.927  52.743  39.631  1.00  0.00     0.275 A 
HETATM    8  N   UNL     1      34.963  52.081  40.833  1.00  0.00    -0.054 NA
HETATM    9  C   UNL     1      32.044  50.810  39.172  1.00  0.00     0.202 C 
HETATM   10  C   UNL     1      31.724  49.672  40.137  1.00  0.00     0.062 C 
HETATM   11  H   UNL     1      34.020  50.140  42.426  1.00  0.00     0.184 HD
ENDROOT
BRANCH  10  12
HETATM   12  C   UNL     1      30.669  48.748  39.646  1.00  0.00     0.256 C 
HETATM   13  N   UNL     1      29.436  48.959  40.221  1.00  0.00    -0.322 N 
HETATM   14  H   UNL     1      29.348  49.733  40.867  1.00  0.00     0.169 HD
HETATM   15  O   UNL     1      30.947  47.943  38.769  1.00  0.00    -0.267 OA
BRANCH  13  16
HETATM   16  C   UNL     1      28.270  48.191  40.010  1.00  0.00     0.052 A 
HETATM   17  C   UNL     1      27.397  48.336  38.935  1.00  0.00     0.145 A 
HETATM   18  N   UNL     1      26.295  47.566  38.741  1.00  0.00    -0.271 NA
HETATM   19  C   UNL     1      26.049  46.609  39.656  1.00  0.00     0.116 A 
HETATM   20  C   UNL     1      26.852  46.383  40.761  1.00  0.00     0.021 A 
HETATM   21  C   UNL     1      27.975  47.189  40.937  1.00  0.00     0.032 A 
ENDBRANCH  13  16
ENDBRANCH  10  12
BRANCH   9  22
HETATM   22  C   UNL     1      30.880  51.787  39.047  1.00  0.00    -0.025 A 
HETATM   23  C   UNL     1      30.130  51.831  37.864  1.00  0.00     0.029 A 
HETATM   24  C   UNL     1      29.060  52.708  37.782  1.00  0.00     0.117 A 
HETATM   25  N   UNL     1      28.686  53.530  38.784  1.00  0.00    -0.273 NA
HETATM   26  C   UNL     1      29.417  53.481  39.916  1.00  0.00     0.117 A 
HETATM   27  C   UNL     1      30.499  52.633  40.099  1.00  0.00     0.029 A 
ENDBRANCH   9  22
TORSDOF 3
ENDMDL
MODEL 5
REMARK VINA RESULT:      -7.3      4.714      8.539
REMARK  3 active torsions:
REMARK  status: ('A' for Active; 'I' for Inactive)
REMARK    1  A    between atoms: C_9  and  C_10 
REMARK    2  A    between atoms: C_16  and  C_17 
REMARK       I    between atoms: C_17  and  N_18 
REMARK    3  A    between atoms: N_18  and  C_19 
ROOT
HETATM    1  C   UNL     1      26.168  49.056  49.112  1.00  0.00     0.070 C 
HETATM    2  C   UNL     1      25.529  47.770  49.574  1.00  0.00     0.037 C 
HETATM    3  N   UNL     1      26.369  46.896  50.258  1.00  0.00    -0.192 N 
HETATM    4  C   UNL     1      25.912  45.839  50.959  1.00  0.00     0.725 A 
HETATM    5  N   UNL     1      24.589  45.498  50.875  1.00  0.00    -0.084 N 
HETATM    6  N   UNL     1      24.293  44.472  51.699  1.00  0.00    -0.149 NA
HETATM    7  C   UNL     1      25.501  44.217  52.217  1.00  0.00     0.275 A 
HETATM    8  N   UNL     1      26.519  45.028  51.786  1.00  0.00    -0.054 NA
HETATM    9  C   UNL     1      23.614  46.194  50.028  1.00  0.00     0.202 C 
HETATM   10  C   UNL     1      24.216  47.461  49.428  1.00  0.00     0.062 C 
HETATM   11  H   UNL     1      27.324  47.200  50.431  1.00  0.00     0.184 HD
ENDROOT
BRANCH  10  12
HETATM   12  C   UNL     1      23.218  48.357  48.790  1.00  0.00     0.256 C 
HETATM   13  N   UNL     1      22.190  48.727  49.628  1.00  0.00    -0.322 N 
HETATM   14  H   UNL     1      22.232  48.409  50.588  1.00  0.00     0.169 HD
HETATM   15  O   UNL     1      23.403  48.727  47.639  1.00  0.00    -0.267 OA
BRANCH  13  16
HETATM   16  C   UNL     1      21.063  49.504  49.280  1.00  0.00     0.052 A 
HETATM   17  C   UNL     1      19.774  49.011  49.099  1.00  0.00     0.145 A 
HETATM   18  N   UNL     1      18.700  49.784  48.789  1.00  0.00    -0.271 NA
HETATM   19  C   UNL     1      18.918  51.106  48.653  1.00  0.00     0.116 A 
HETATM   20  C   UNL     1      20.160  51.697  48.810  1.00  0.00     0.021 A 
HETATM   21  C   UNL     1      21.245  50.880  49.125  1.00  0.00     0.032 A 
ENDBRANCH  13  16
ENDBRANCH  10  12
BRANCH   9  22
HETATM   22  C   UNL     1      23.079  45.259  48.948  1.00  0.00    -0.025 A 
HETATM   23  C   UNL     1      23.962  44.435  48.238  1.00  0.00     0.029 A 
HETATM   24  C   UNL     1      23.451  43.575  47.279  1.00  0.00     0.117 A 
HETATM   25  N   UNL     1      22.138  43.474  46.985  1.00  0.00    -0.273 NA
HETATM   26  C   UNL     1      21.298  44.274  47.673  1.00  0.00     0.117 A 
HETATM   27  C   UNL     1      21.710  45.162  48.655  1.00  0.00     0.029 A 
ENDBRANCH   9  22
TORSDOF 3
ENDMDL
MODEL 6
REMARK VINA RESULT:      -7.2      6.288      9.300
REMARK  3 active torsions:
REMARK  status: ('A' for Active; 'I' for Inactive)
REMARK    1  A    between atoms: C_9  and  C_10 
REMARK    2  A    between atoms: C_16  and  C_17 
REMARK       I    between atoms: C_17  and  N_18 
REMARK    3  A    between atoms: N_18  and  C_19 
ROOT
HETATM    1  C   UNL     1      21.537  51.077  50.536  1.00  0.00     0.070 C 
HETATM    2  C   UNL     1      20.725  50.243  49.576  1.00  0.00     0.037 C 
HETATM    3  N   UNL     1      19.346  50.297  49.753  1.00  0.00    -0.192 N 
HETATM    4  C   UNL     1      18.471  49.833  48.839  1.00  0.00     0.725 A 
HETATM    5  N   UNL     1      18.936  49.130  47.760  1.00  0.00    -0.084 N 
HETATM    6  N   UNL     1      17.935  48.814  46.912  1.00  0.00    -0.149 NA
HETATM    7  C   UNL     1      16.887  49.323  47.569  1.00  0.00     0.275 A 
HETATM    8  N   UNL     1      17.171  49.951  48.755  1.00  0.00    -0.054 NA
HETATM    9  C   UNL     1      20.349  48.804  47.539  1.00  0.00     0.202 C 
HETATM   10  C   UNL     1      21.240  49.527  48.545  1.00  0.00     0.062 C 
HETATM   11  H   UNL     1      18.989  50.917  50.476  1.00  0.00     0.184 HD
ENDROOT
BRANCH  10  12
HETATM   12  C   UNL     1      22.688  49.468  48.215  1.00  0.00     0.256 C 
HETATM   13  N   UNL     1      23.440  48.787  49.146  1.00  0.00    -0.322 N 
HETATM   14  H   UNL     1      22.949  48.356  49.919  1.00  0.00     0.169 HD
HETATM   15  O   UNL     1      23.078  49.957  47.165  1.00  0.00    -0.267 OA
BRANCH  13  16
HETATM   16  C   UNL     1      24.844  48.635  49.139  1.00  0.00     0.052 A 
HETATM   17  C   UNL     1      25.528  47.480  49.509  1.00  0.00     0.145 A 
HETATM   18  N   UNL     1      26.880  47.350  49.470  1.00  0.00    -0.271 NA
HETATM   19  C   UNL     1      27.584  48.417  49.043  1.00  0.00     0.116 A 
HETATM   20  C   UNL     1      27.002  49.611  48.655  1.00  0.00     0.021 A 
HETATM   21  C   UNL     1      25.613  49.718  48.707  1.00  0.00     0.032 A 
ENDBRANCH  13  16
ENDBRANCH  10  12
BRANCH   9  22
HETATM   22  C   UNL     1      20.564  47.294  47.580  1.00  0.00    -0.025 A 
HETATM   23  C   UNL     1      20.174  46.565  48.711  1.00  0.00     0.029 A 
HETATM   24  C   UNL     1      20.354  45.191  48.716  1.00  0.00     0.117 A 
HETATM   25  N   UNL     1      20.884  44.500  47.685  1.00  0.00    -0.273 NA
HETATM   26  C   UNL     1      21.258  45.214  46.604  1.00  0.00     0.117 A 
HETATM   27  C   UNL     1      21.113  46.589  46.499  1.00  0.00     0.029 A 
ENDBRANCH   9  22
TORSDOF 3
ENDMDL
MODEL 7
REMARK VINA RESULT:      -7.2     13.030     14.553
REMARK  3 active torsions:
REMARK  status: ('A' for Active; 'I' for Inactive)
REMARK    1  A    between atoms: C_9  and  C_10 
REMARK    2  A    between atoms: C_16  and  C_17 
REMARK       I    between atoms: C_17  and  N_18 
REMARK    3  A    between atoms: N_18  and  C_19 
ROOT
HETATM    1  C   UNL     1      27.935  51.736  40.826  1.00  0.00     0.070 C 
HETATM    2  C   UNL     1      27.496  50.578  39.965  1.00  0.00     0.037 C 
HETATM    3  N   UNL     1      26.121  50.447  39.791  1.00  0.00    -0.192 N 
HETATM    4  C   UNL     1      25.574  49.644  38.858  1.00  0.00     0.725 A 
HETATM    5  N   UNL     1      26.377  48.791  38.151  1.00  0.00    -0.084 N 
HETATM    6  N   UNL     1      25.677  48.124  37.210  1.00  0.00    -0.149 NA
HETATM    7  C   UNL     1      24.446  48.597  37.439  1.00  0.00     0.275 A 
HETATM    8  N   UNL     1      24.339  49.526  38.443  1.00  0.00    -0.054 NA
HETATM    9  C   UNL     1      27.822  48.657  38.365  1.00  0.00     0.202 C 
HETATM   10  C   UNL     1      28.336  49.733  39.316  1.00  0.00     0.062 C 
HETATM   11  H   UNL     1      25.525  51.154  40.215  1.00  0.00     0.184 HD
ENDROOT
BRANCH  10  12
HETATM   12  C   UNL     1      29.818  49.834  39.365  1.00  0.00     0.256 C 
HETATM   13  N   UNL     1      30.355  49.507  40.589  1.00  0.00    -0.322 N 
HETATM   14  H   UNL     1      29.719  49.188  41.309  1.00  0.00     0.169 HD
HETATM   15  O   UNL     1      30.425  50.131  38.346  1.00  0.00    -0.267 OA
BRANCH  13  16
HETATM   16  C   UNL     1      31.717  49.585  40.954  1.00  0.00     0.052 A 
HETATM   17  C   UNL     1      32.615  48.521  40.935  1.00  0.00     0.145 A 
HETATM   18  N   UNL     1      33.928  48.627  41.267  1.00  0.00    -0.271 NA
HETATM   19  C   UNL     1      34.370  49.846  41.633  1.00  0.00     0.116 A 
HETATM   20  C   UNL     1      33.560  50.967  41.687  1.00  0.00     0.021 A 
HETATM   21  C   UNL     1      32.216  50.830  41.344  1.00  0.00     0.032 A 
ENDBRANCH  13  16
ENDBRANCH  10  12
BRANCH   9  22
HETATM   22  C   UNL     1      28.163  47.255  38.861  1.00  0.00    -0.025 A 
HETATM   23  C   UNL     1      27.547  46.757  40.017  1.00  0.00     0.029 A 
HETATM   24  C   UNL     1      27.851  45.471  40.436  1.00  0.00     0.117 A 
HETATM   25  N   UNL     1      28.711  44.655  39.790  1.00  0.00    -0.273 NA
HETATM   26  C   UNL     1      29.299  45.148  38.681  1.00  0.00     0.117 A 
HETATM   27  C   UNL     1      29.055  46.417  38.178  1.00  0.00     0.029 A 
ENDBRANCH   9  22
TORSDOF 3
ENDMDL
MODEL 8
REMARK VINA RESULT:      -6.9     12.653     15.521
REMARK  3 active torsions:
REMARK  status: ('A' for Active; 'I' for Inactive)
REMARK    1  A    between atoms: C_9  and  C_10 
REMARK    2  A    between atoms: C_16  and  C_17 
REMARK       I    between atoms: C_17  and  N_18 
REMARK    3  A    between atoms: N_18  and  C_19 
ROOT
HETATM    1  C   UNL     1      28.561  52.343  38.167  1.00  0.00     0.070 C 
HETATM    2  C   UNL     1      28.902  51.217  39.112  1.00  0.00     0.037 C 
HETATM    3  N   UNL     1      30.077  51.380  39.839  1.00  0.00    -0.192 N 
HETATM    4  C   UNL     1      30.394  50.612  40.901  1.00  0.00     0.725 A 
HETATM    5  N   UNL     1      29.623  49.520  41.194  1.00  0.00    -0.084 N 
HETATM    6  N   UNL     1      30.037  48.918  42.328  1.00  0.00    -0.149 NA
HETATM    7  C   UNL     1      31.091  49.681  42.641  1.00  0.00     0.275 A 
HETATM    8  N   UNL     1      31.347  50.726  41.790  1.00  0.00    -0.054 NA
HETATM    9  C   UNL     1      28.470  49.090  40.395  1.00  0.00     0.202 C 
HETATM   10  C   UNL     1      28.121  50.131  39.336  1.00  0.00     0.062 C 
HETATM   11  H   UNL     1      30.590  52.249  39.715  1.00  0.00     0.184 HD
ENDROOT
BRANCH  10  12
HETATM   12  C   UNL     1      26.809  49.900  38.677  1.00  0.00     0.256 C 
HETATM   13  N   UNL     1      25.748  49.863  39.554  1.00  0.00    -0.322 N 
HETATM   14  H   UNL     1      25.942  50.042  40.531  1.00  0.00     0.169 HD
HETATM   15  O   UNL     1      26.763  49.820  37.458  1.00  0.00    -0.267 OA
BRANCH  13  16
HETATM   16  C   UNL     1      24.402  49.586  39.229  1.00  0.00     0.052 A 
HETATM   17  C   UNL     1      23.570  50.412  38.479  1.00  0.00     0.145 A 
HETATM   18  N   UNL     1      22.285  50.110  38.158  1.00  0.00    -0.271 NA
HETATM   19  C   UNL     1      21.805  48.933  38.602  1.00  0.00     0.116 A 
HETATM   20  C   UNL     1      22.547  48.040  39.356  1.00  0.00     0.021 A 
HETATM   21  C   UNL     1      23.863  48.376  39.673  1.00  0.00     0.032 A 
ENDBRANCH  13  16
ENDBRANCH  10  12
BRANCH   9  22
HETATM   22  C   UNL     1      28.727  47.720  39.776  1.00  0.00    -0.025 A 
HETATM   23  C   UNL     1      28.122  46.582  40.326  1.00  0.00     0.029 A 
HETATM   24  C   UNL     1      28.349  45.351  39.732  1.00  0.00     0.117 A 
HETATM   25  N   UNL     1      29.122  45.176  38.639  1.00  0.00    -0.273 NA
HETATM   26  C   UNL     1      29.700  46.278  38.121  1.00  0.00     0.117 A 
HETATM   27  C   UNL     1      29.529  47.554  38.638  1.00  0.00     0.029 A 
ENDBRANCH   9  22
TORSDOF 3
ENDMDL
MODEL 9
REMARK VINA RESULT:      -6.8     14.202     17.227
REMARK  3 active torsions:
REMARK  status: ('A' for Active; 'I' for Inactive)
REMARK    1  A    between atoms: C_9  and  C_10 
REMARK    2  A    between atoms: C_16  and  C_17 
REMARK       I    between atoms: C_17  and  N_18 
REMARK    3  A    between atoms: N_18  and  C_19 
ROOT
HETATM    1  C   UNL     1      33.300  52.004  44.110  1.00  0.00     0.070 C 
HETATM    2  C   UNL     1      34.653  51.786  43.479  1.00  0.00     0.037 C 
HETATM    3  N   UNL     1      35.746  52.065  44.293  1.00  0.00    -0.192 N 
HETATM    4  C   UNL     1      37.003  51.685  43.988  1.00  0.00     0.725 A 
HETATM    5  N   UNL     1      37.261  51.142  42.758  1.00  0.00    -0.084 N 
HETATM    6  N   UNL     1      38.547  50.748  42.657  1.00  0.00    -0.149 NA
HETATM    7  C   UNL     1      39.015  51.125  43.852  1.00  0.00     0.275 A 
HETATM    8  N   UNL     1      38.103  51.707  44.695  1.00  0.00    -0.054 NA
HETATM    9  C   UNL     1      36.253  50.975  41.706  1.00  0.00     0.202 C 
HETATM   10  C   UNL     1      34.855  51.283  42.235  1.00  0.00     0.062 C 
HETATM   11  H   UNL     1      35.559  52.352  45.250  1.00  0.00     0.184 HD
ENDROOT
BRANCH  10  12
HETATM   12  C   UNL     1      33.762  50.872  41.317  1.00  0.00     0.256 C 
HETATM   13  N   UNL     1      33.286  51.896  40.529  1.00  0.00    -0.322 N 
HETATM   14  H   UNL     1      33.742  52.796  40.607  1.00  0.00     0.169 HD
HETATM   15  O   UNL     1      33.420  49.698  41.289  1.00  0.00    -0.267 OA
BRANCH  13  16
HETATM   16  C   UNL     1      32.205  51.824  39.624  1.00  0.00     0.052 A 
HETATM   17  C   UNL     1      32.278  51.329  38.325  1.00  0.00     0.145 A 
HETATM   18  N   UNL     1      31.216  51.246  37.481  1.00  0.00    -0.271 NA
HETATM   19  C   UNL     1      30.028  51.675  37.949  1.00  0.00     0.116 A 
HETATM   20  C   UNL     1      29.848  52.186  39.223  1.00  0.00     0.021 A 
HETATM   21  C   UNL     1      30.955  52.262  40.068  1.00  0.00     0.032 A 
ENDBRANCH  13  16
ENDBRANCH  10  12
BRANCH   9  22
HETATM   22  C   UNL     1      36.597  51.832  40.492  1.00  0.00    -0.025 A 
HETATM   23  C   UNL     1      36.965  51.218  39.288  1.00  0.00     0.029 A 
HETATM   24  C   UNL     1      37.248  52.015  38.190  1.00  0.00     0.117 A 
HETATM   25  N   UNL     1      37.187  53.364  38.206  1.00  0.00    -0.273 NA
HETATM   26  C   UNL     1      36.835  53.942  39.371  1.00  0.00     0.117 A 
HETATM   27  C   UNL     1      36.525  53.232  40.522  1.00  0.00     0.029 A 
ENDBRANCH   9  22
TORSDOF 3
ENDMDL
MODEL 10
REMARK VINA RESULT:      -6.7     16.212     17.891
REMARK  3 active torsions:
REMARK  status: ('A' for Active; 'I' for Inactive)
REMARK    1  A    between atoms: C_9  and  C_10 
REMARK    2  A    between atoms: C_16  and  C_17 
REMARK       I    between atoms: C_17  and  N_18 
REMARK    3  A    between atoms: N_18  and  C_19 
ROOT
HETATM    1  C   UNL     1      42.084  45.545  64.207  1.00  0.00     0.070 C 
HETATM    2  C   UNL     1      40.674  46.012  64.469  1.00  0.00     0.037 C 
HETATM    3  N   UNL     1      40.553  47.308  64.961  1.00  0.00    -0.192 N 
HETATM    4  C   UNL     1      39.380  47.970  65.003  1.00  0.00     0.725 A 
HETATM    5  N   UNL     1      38.221  47.304  64.705  1.00  0.00    -0.084 N 
HETATM    6  N   UNL     1      37.160  48.136  64.719  1.00  0.00    -0.149 NA
HETATM    7  C   UNL     1      37.750  49.282  65.076  1.00  0.00     0.275 A 
HETATM    8  N   UNL     1      39.108  49.222  65.265  1.00  0.00    -0.054 NA
HETATM    9  C   UNL     1      38.158  45.877  64.372  1.00  0.00     0.202 C 
HETATM   10  C   UNL     1      39.556  45.294  64.193  1.00  0.00     0.062 C 
HETATM   11  H   UNL     1      41.406  47.852  65.068  1.00  0.00     0.184 HD
ENDROOT
BRANCH  10  12
HETATM   12  C   UNL     1      39.569  43.937  63.589  1.00  0.00     0.256 C 
HETATM   13  N   UNL     1      39.907  42.939  64.475  1.00  0.00    -0.322 N 
HETATM   14  H   UNL     1      40.062  43.203  65.439  1.00  0.00     0.169 HD
HETATM   15  O   UNL     1      39.238  43.805  62.419  1.00  0.00    -0.267 OA
BRANCH  13  16
HETATM   16  C   UNL     1      40.076  41.570  64.171  1.00  0.00     0.052 A 
HETATM   17  C   UNL     1      40.946  40.704  64.827  1.00  0.00     0.145 A 
HETATM   18  N   UNL     1      41.071  39.383  64.533  1.00  0.00    -0.271 NA
HETATM   19  C   UNL     1      40.296  38.902  63.542  1.00  0.00     0.116 A 
HETATM   20  C   UNL     1      39.400  39.678  62.826  1.00  0.00     0.021 A 
HETATM   21  C   UNL     1      39.294  41.030  63.147  1.00  0.00     0.032 A 
ENDBRANCH  13  16
ENDBRANCH  10  12
BRANCH   9  22
HETATM   22  C   UNL     1      37.360  45.115  65.425  1.00  0.00    -0.025 A 
HETATM   23  C   UNL     1      37.760  45.156  66.767  1.00  0.00     0.029 A 
HETATM   24  C   UNL     1      37.006  44.478  67.712  1.00  0.00     0.117 A 
HETATM   25  N   UNL     1      35.891  43.776  67.418  1.00  0.00    -0.273 NA
HETATM   26  C   UNL     1      35.518  43.742  66.123  1.00  0.00     0.117 A 
HETATM   27  C   UNL     1      36.201  44.392  65.106  1.00  0.00     0.029 A 
ENDBRANCH   9  22
TORSDOF 3
ENDMDL
