MODEL 1
REMARK VINA RESULT:      -8.8      0.000      0.000
REMARK  3 active torsions:
REMARK  status: ('A' for Active; 'I' for Inactive)
REMARK    1  A    between atoms: C_7  and  C_8 
REMARK       I    between atoms: C_8  and  N_9 
REMARK    2  A    between atoms: C_19  and  C_20 
REMARK    3  A    between atoms: C_22  and  O_23 
ROOT
HETATM    1  C   UNL     1      32.386  49.927  41.954  1.00  0.00     0.258 C 
HETATM    2  N   UNL     1      31.523  50.426  40.978  1.00  0.00    -0.340 N 
HETATM    3  C   UNL     1      31.367  51.807  40.536  1.00  0.00     0.123 C 
HETATM    4  C   UNL     1      30.398  51.728  39.321  1.00  0.00     0.221 C 
HETATM    5  N   UNL     1      29.219  52.683  39.546  1.00  0.00    -0.064 N 
HETATM    6  H   UNL     1      28.575  52.621  38.746  1.00  0.00     0.280 HD
HETATM    7  C   UNL     1      28.408  52.441  40.811  1.00  0.00     0.236 C 
HETATM    8  C   UNL     1      29.367  52.334  41.989  1.00  0.00     0.034 C 
HETATM    9  C   UNL     1      30.775  52.793  41.572  1.00  0.00     0.014 C 
HETATM   10  C   UNL     1      30.646  54.180  40.897  1.00  0.00     0.034 C 
HETATM   11  C   UNL     1      29.772  54.102  39.636  1.00  0.00     0.236 C 
HETATM   12  C   UNL     1      30.096  50.224  39.065  1.00  0.00     0.070 C 
HETATM   13  C   UNL     1      31.163  49.510  39.907  1.00  0.00     0.138 C 
HETATM   14  O   UNL     1      32.351  48.749  42.294  1.00  0.00    -0.267 OA
ENDROOT
BRANCH   1  15
HETATM   15  C   UNL     1      33.407  50.815  42.439  1.00  0.00     0.089 C 
HETATM   16  C   UNL     1      34.712  50.993  41.907  1.00  0.00     0.076 C 
HETATM   17  C   UNL     1      35.338  50.283  40.765  1.00  0.00     0.074 C 
HETATM   18  N   UNL     1      35.391  51.921  42.588  1.00  0.00    -0.132 NA
HETATM   19  O   UNL     1      34.579  52.272  43.651  1.00  0.00    -0.217 OA
HETATM   20  C   UNL     1      33.410  51.580  43.583  1.00  0.00     0.092 C 
HETATM   21  C   UNL     1      32.466  51.808  44.691  1.00  0.00     0.080 C 
ENDBRANCH   1  15
BRANCH  12  22
HETATM   22  C   UNL     1      28.682  49.714  39.244  1.00  0.00    -0.048 A 
HETATM   23  C   UNL     1      27.656  49.963  38.314  1.00  0.00     0.044 A 
HETATM   24  C   UNL     1      26.376  49.461  38.533  1.00  0.00     0.066 A 
HETATM   25  C   UNL     1      26.087  48.709  39.664  1.00  0.00     0.036 A 
HETATM   26  C   UNL     1      27.085  48.473  40.604  1.00  0.00     0.003 A 
HETATM   27  C   UNL     1      28.372  48.974  40.401  1.00  0.00     0.008 A 
BRANCH  24  28
HETATM   28  O   UNL     1      25.370  49.677  37.641  1.00  0.00    -0.361 OA
HETATM   29  H   UNL     1      25.072  48.830  37.269  1.00  0.00     0.217 HD
ENDBRANCH  24  28
ENDBRANCH  12  22
TORSDOF 3
ENDMDL
MODEL 2
REMARK VINA RESULT:      -8.7      0.532      1.585
REMARK  3 active torsions:
REMARK  status: ('A' for Active; 'I' for Inactive)
REMARK    1  A    between atoms: C_7  and  C_8 
REMARK       I    between atoms: C_8  and  N_9 
REMARK    2  A    between atoms: C_19  and  C_20 
REMARK    3  A    between atoms: C_22  and  O_23 
ROOT
HETATM    1  C   UNL     1      32.422  49.964  41.647  1.00  0.00     0.258 C 
HETATM    2  N   UNL     1      31.505  50.523  40.755  1.00  0.00    -0.340 N 
HETATM    3  C   UNL     1      31.344  51.926  40.394  1.00  0.00     0.123 C 
HETATM    4  C   UNL     1      30.296  51.921  39.242  1.00  0.00     0.221 C 
HETATM    5  N   UNL     1      29.150  52.879  39.592  1.00  0.00    -0.064 N 
HETATM    6  H   UNL     1      28.454  52.866  38.834  1.00  0.00     0.280 HD
HETATM    7  C   UNL     1      28.419  52.585  40.895  1.00  0.00     0.236 C 
HETATM    8  C   UNL     1      29.452  52.406  42.000  1.00  0.00     0.034 C 
HETATM    9  C   UNL     1      30.837  52.867  41.514  1.00  0.00     0.014 C 
HETATM   10  C   UNL     1      30.687  54.287  40.918  1.00  0.00     0.034 C 
HETATM   11  C   UNL     1      29.731  54.285  39.716  1.00  0.00     0.236 C 
HETATM   12  C   UNL     1      29.954  50.436  38.933  1.00  0.00     0.070 C 
HETATM   13  C   UNL     1      31.061  49.667  39.667  1.00  0.00     0.138 C 
HETATM   14  O   UNL     1      32.390  48.772  41.929  1.00  0.00    -0.267 OA
ENDROOT
BRANCH   1  15
HETATM   15  C   UNL     1      33.487  50.813  42.106  1.00  0.00     0.089 C 
HETATM   16  C   UNL     1      33.553  51.515  43.340  1.00  0.00     0.076 C 
HETATM   17  C   UNL     1      32.533  51.571  44.415  1.00  0.00     0.074 C 
HETATM   18  N   UNL     1      34.701  52.189  43.454  1.00  0.00    -0.132 NA
HETATM   19  O   UNL     1      35.346  52.035  42.240  1.00  0.00    -0.217 OA
HETATM   20  C   UNL     1      34.599  51.245  41.422  1.00  0.00     0.092 C 
HETATM   21  C   UNL     1      35.137  51.042  40.065  1.00  0.00     0.080 C 
ENDBRANCH   1  15
BRANCH  12  22
HETATM   22  C   UNL     1      28.546  49.937  39.180  1.00  0.00    -0.048 A 
HETATM   23  C   UNL     1      27.436  50.380  38.437  1.00  0.00     0.044 A 
HETATM   24  C   UNL     1      26.166  49.876  38.709  1.00  0.00     0.066 A 
HETATM   25  C   UNL     1      25.970  48.935  39.709  1.00  0.00     0.036 A 
HETATM   26  C   UNL     1      27.053  48.503  40.468  1.00  0.00     0.003 A 
HETATM   27  C   UNL     1      28.332  49.002  40.211  1.00  0.00     0.008 A 
BRANCH  24  28
HETATM   28  O   UNL     1      25.079  50.279  37.995  1.00  0.00    -0.361 OA
HETATM   29  H   UNL     1      24.305  50.339  38.579  1.00  0.00     0.217 HD
ENDBRANCH  24  28
ENDBRANCH  12  22
TORSDOF 3
ENDMDL
MODEL 3
REMARK VINA RESULT:      -7.8      2.523      6.921
REMARK  3 active torsions:
REMARK  status: ('A' for Active; 'I' for Inactive)
REMARK    1  A    between atoms: C_7  and  C_8 
REMARK       I    between atoms: C_8  and  N_9 
REMARK    2  A    between atoms: C_19  and  C_20 
REMARK    3  A    between atoms: C_22  and  O_23 
ROOT
HETATM    1  C   UNL     1      28.461  46.991  39.932  1.00  0.00     0.258 C 
HETATM    2  N   UNL     1      28.778  48.254  40.435  1.00  0.00    -0.340 N 
HETATM    3  C   UNL     1      28.215  49.543  40.048  1.00  0.00     0.123 C 
HETATM    4  C   UNL     1      28.821  50.560  41.060  1.00  0.00     0.221 C 
HETATM    5  N   UNL     1      29.487  51.707  40.291  1.00  0.00    -0.064 N 
HETATM    6  H   UNL     1      29.895  52.373  40.962  1.00  0.00     0.280 HD
HETATM    7  C   UNL     1      30.586  51.300  39.319  1.00  0.00     0.236 C 
HETATM    8  C   UNL     1      30.061  50.173  38.440  1.00  0.00     0.034 C 
HETATM    9  C   UNL     1      28.540  50.027  38.614  1.00  0.00     0.014 C 
HETATM   10  C   UNL     1      27.899  51.422  38.421  1.00  0.00     0.034 C 
HETATM   11  C   UNL     1      28.410  52.416  39.474  1.00  0.00     0.236 C 
HETATM   12  C   UNL     1      29.677  49.750  42.075  1.00  0.00     0.070 C 
HETATM   13  C   UNL     1      29.246  48.301  41.811  1.00  0.00     0.138 C 
HETATM   14  O   UNL     1      29.078  45.993  40.285  1.00  0.00    -0.267 OA
ENDROOT
BRANCH   1  15
HETATM   15  C   UNL     1      27.295  46.895  39.097  1.00  0.00     0.089 C 
HETATM   16  C   UNL     1      25.943  47.089  39.487  1.00  0.00     0.076 C 
HETATM   17  C   UNL     1      25.415  47.392  40.840  1.00  0.00     0.074 C 
HETATM   18  N   UNL     1      25.114  46.949  38.448  1.00  0.00    -0.132 NA
HETATM   19  O   UNL     1      25.906  46.539  37.391  1.00  0.00    -0.217 OA
HETATM   20  C   UNL     1      27.204  46.469  37.793  1.00  0.00     0.092 C 
HETATM   21  C   UNL     1      28.160  45.984  36.781  1.00  0.00     0.080 C 
ENDBRANCH   1  15
BRANCH  12  22
HETATM   22  C   UNL     1      31.173  49.981  42.127  1.00  0.00    -0.048 A 
HETATM   23  C   UNL     1      32.096  49.176  41.433  1.00  0.00     0.044 A 
HETATM   24  C   UNL     1      33.460  49.445  41.517  1.00  0.00     0.066 A 
HETATM   25  C   UNL     1      33.934  50.504  42.279  1.00  0.00     0.036 A 
HETATM   26  C   UNL     1      33.037  51.296  42.989  1.00  0.00     0.003 A 
HETATM   27  C   UNL     1      31.666  51.036  42.919  1.00  0.00     0.008 A 
BRANCH  24  28
HETATM   28  O   UNL     1      34.371  48.689  40.845  1.00  0.00    -0.361 OA
HETATM   29  H   UNL     1      34.437  47.811  41.255  1.00  0.00     0.217 HD
ENDBRANCH  24  28
ENDBRANCH  12  22
TORSDOF 3
ENDMDL
MODEL 4
REMARK VINA RESULT:      -7.7      1.642      2.061
REMARK  3 active torsions:
REMARK  status: ('A' for Active; 'I' for Inactive)
REMARK    1  A    between atoms: C_7  and  C_8 
REMARK       I    between atoms: C_8  and  N_9 
REMARK    2  A    between atoms: C_19  and  C_20 
REMARK    3  A    between atoms: C_22  and  O_23 
ROOT
HETATM    1  C   UNL     1      31.326  49.432  42.144  1.00  0.00     0.258 C 
HETATM    2  N   UNL     1      30.661  49.482  40.917  1.00  0.00    -0.340 N 
HETATM    3  C   UNL     1      30.665  50.561  39.936  1.00  0.00     0.123 C 
HETATM    4  C   UNL     1      29.898  49.985  38.710  1.00  0.00     0.221 C 
HETATM    5  N   UNL     1      28.760  50.939  38.327  1.00  0.00    -0.064 N 
HETATM    6  H   UNL     1      28.249  50.551  37.522  1.00  0.00     0.280 HD
HETATM    7  C   UNL     1      27.745  51.229  39.423  1.00  0.00     0.236 C 
HETATM    8  C   UNL     1      28.496  51.620  40.688  1.00  0.00     0.034 C 
HETATM    9  C   UNL     1      29.978  51.879  40.368  1.00  0.00     0.014 C 
HETATM   10  C   UNL     1      30.046  52.868  39.180  1.00  0.00     0.034 C 
HETATM   11  C   UNL     1      29.380  52.276  37.929  1.00  0.00     0.236 C 
HETATM   12  C   UNL     1      29.547  48.505  39.036  1.00  0.00     0.070 C 
HETATM   13  C   UNL     1      30.419  48.206  40.263  1.00  0.00     0.138 C 
HETATM   14  O   UNL     1      31.163  48.495  42.918  1.00  0.00    -0.267 OA
ENDROOT
BRANCH   1  15
HETATM   15  C   UNL     1      32.311  50.449  42.395  1.00  0.00     0.089 C 
HETATM   16  C   UNL     1      33.682  50.424  42.024  1.00  0.00     0.076 C 
HETATM   17  C   UNL     1      34.424  49.340  41.336  1.00  0.00     0.074 C 
HETATM   18  N   UNL     1      34.303  51.549  42.392  1.00  0.00    -0.132 NA
HETATM   19  O   UNL     1      33.372  52.269  43.118  1.00  0.00    -0.217 OA
HETATM   20  C   UNL     1      32.194  51.591  43.152  1.00  0.00     0.092 C 
HETATM   21  C   UNL     1      31.121  52.214  43.948  1.00  0.00     0.080 C 
ENDBRANCH   1  15
BRANCH  12  22
HETATM   22  C   UNL     1      28.093  48.102  39.162  1.00  0.00    -0.048 A 
HETATM   23  C   UNL     1      27.474  47.849  40.400  1.00  0.00     0.044 A 
HETATM   24  C   UNL     1      26.130  47.488  40.449  1.00  0.00     0.066 A 
HETATM   25  C   UNL     1      25.378  47.372  39.289  1.00  0.00     0.036 A 
HETATM   26  C   UNL     1      25.980  47.597  38.055  1.00  0.00     0.003 A 
HETATM   27  C   UNL     1      27.329  47.955  37.989  1.00  0.00     0.008 A 
BRANCH  24  28
HETATM   28  O   UNL     1      25.505  47.252  41.636  1.00  0.00    -0.361 OA
HETATM   29  H   UNL     1      24.649  46.820  41.478  1.00  0.00     0.217 HD
ENDBRANCH  24  28
ENDBRANCH  12  22
TORSDOF 3
ENDMDL
MODEL 5
REMARK VINA RESULT:      -7.5      2.509      6.859
REMARK  3 active torsions:
REMARK  status: ('A' for Active; 'I' for Inactive)
REMARK    1  A    between atoms: C_7  and  C_8 
REMARK       I    between atoms: C_8  and  N_9 
REMARK    2  A    between atoms: C_19  and  C_20 
REMARK    3  A    between atoms: C_22  and  O_23 
ROOT
HETATM    1  C   UNL     1      28.191  46.864  40.055  1.00  0.00     0.258 C 
HETATM    2  N   UNL     1      28.567  48.127  40.513  1.00  0.00    -0.340 N 
HETATM    3  C   UNL     1      28.037  49.424  40.109  1.00  0.00     0.123 C 
HETATM    4  C   UNL     1      28.709  50.445  41.074  1.00  0.00     0.221 C 
HETATM    5  N   UNL     1      29.390  51.548  40.254  1.00  0.00    -0.064 N 
HETATM    6  H   UNL     1      29.842  52.216  40.893  1.00  0.00     0.280 HD
HETATM    7  C   UNL     1      30.442  51.077  39.260  1.00  0.00     0.236 C 
HETATM    8  C   UNL     1      29.851  49.947  38.428  1.00  0.00     0.034 C 
HETATM    9  C   UNL     1      28.332  49.859  38.653  1.00  0.00     0.014 C 
HETATM   10  C   UNL     1      27.734  51.271  38.442  1.00  0.00     0.034 C 
HETATM   11  C   UNL     1      28.313  52.273  39.452  1.00  0.00     0.236 C 
HETATM   12  C   UNL     1      29.570  49.633  42.083  1.00  0.00     0.070 C 
HETATM   13  C   UNL     1      29.081  48.193  41.872  1.00  0.00     0.138 C 
HETATM   14  O   UNL     1      28.784  45.853  40.415  1.00  0.00    -0.267 OA
ENDROOT
BRANCH   1  15
HETATM   15  C   UNL     1      26.996  46.786  39.259  1.00  0.00     0.089 C 
HETATM   16  C   UNL     1      26.911  46.544  37.862  1.00  0.00     0.076 C 
HETATM   17  C   UNL     1      28.021  46.357  36.897  1.00  0.00     0.074 C 
HETATM   18  N   UNL     1      25.639  46.510  37.453  1.00  0.00    -0.132 NA
HETATM   19  O   UNL     1      24.882  46.854  38.558  1.00  0.00    -0.217 OA
HETATM   20  C   UNL     1      25.699  47.058  39.627  1.00  0.00     0.092 C 
HETATM   21  C   UNL     1      25.031  47.493  40.867  1.00  0.00     0.080 C 
ENDBRANCH   1  15
BRANCH  12  22
HETATM   22  C   UNL     1      31.073  49.812  42.083  1.00  0.00    -0.048 A 
HETATM   23  C   UNL     1      31.715  50.885  42.728  1.00  0.00     0.044 A 
HETATM   24  C   UNL     1      33.104  50.990  42.696  1.00  0.00     0.066 A 
HETATM   25  C   UNL     1      33.877  50.047  42.035  1.00  0.00     0.036 A 
HETATM   26  C   UNL     1      33.256  48.992  41.373  1.00  0.00     0.003 A 
HETATM   27  C   UNL     1      31.865  48.876  41.391  1.00  0.00     0.008 A 
BRANCH  24  28
HETATM   28  O   UNL     1      33.749  52.012  43.324  1.00  0.00    -0.361 OA
HETATM   29  H   UNL     1      34.574  52.218  42.855  1.00  0.00     0.217 HD
ENDBRANCH  24  28
ENDBRANCH  12  22
TORSDOF 3
ENDMDL
MODEL 6
REMARK VINA RESULT:      -7.4      1.513      2.321
REMARK  3 active torsions:
REMARK  status: ('A' for Active; 'I' for Inactive)
REMARK    1  A    between atoms: C_7  and  C_8 
REMARK       I    between atoms: C_8  and  N_9 
REMARK    2  A    between atoms: C_19  and  C_20 
REMARK    3  A    between atoms: C_22  and  O_23 
ROOT
HETATM    1  C   UNL     1      31.626  49.272  42.376  1.00  0.00     0.258 C 
HETATM    2  N   UNL     1      31.032  49.243  41.114  1.00  0.00    -0.340 N 
HETATM    3  C   UNL     1      31.192  50.197  40.022  1.00  0.00     0.123 C 
HETATM    4  C   UNL     1      30.434  49.559  38.822  1.00  0.00     0.221 C 
HETATM    5  N   UNL     1      29.418  50.566  38.268  1.00  0.00    -0.064 N 
HETATM    6  H   UNL     1      28.911  50.138  37.481  1.00  0.00     0.280 HD
HETATM    7  C   UNL     1      28.383  51.073  39.263  1.00  0.00     0.236 C 
HETATM    8  C   UNL     1      29.106  51.534  40.521  1.00  0.00     0.034 C 
HETATM    9  C   UNL     1      30.620  51.615  40.265  1.00  0.00     0.014 C 
HETATM   10  C   UNL     1      30.846  52.451  38.982  1.00  0.00     0.034 C 
HETATM   11  C   UNL     1      30.188  51.784  37.765  1.00  0.00     0.236 C 
HETATM   12  C   UNL     1      29.921  48.166  39.286  1.00  0.00     0.070 C 
HETATM   13  C   UNL     1      30.696  47.929  40.589  1.00  0.00     0.138 C 
HETATM   14  O   UNL     1      31.332  48.450  43.237  1.00  0.00    -0.267 OA
ENDROOT
BRANCH   1  15
HETATM   15  C   UNL     1      32.694  50.214  42.574  1.00  0.00     0.089 C 
HETATM   16  C   UNL     1      32.630  51.446  43.279  1.00  0.00     0.076 C 
HETATM   17  C   UNL     1      31.452  52.065  43.934  1.00  0.00     0.074 C 
HETATM   18  N   UNL     1      33.817  52.059  43.291  1.00  0.00    -0.132 NA
HETATM   19  O   UNL     1      34.641  51.292  42.487  1.00  0.00    -0.217 OA
HETATM   20  C   UNL     1      33.955  50.211  42.027  1.00  0.00     0.092 C 
HETATM   21  C   UNL     1      34.694  49.332  41.103  1.00  0.00     0.080 C 
ENDBRANCH   1  15
BRANCH  12  22
HETATM   22  C   UNL     1      28.429  47.918  39.366  1.00  0.00    -0.048 A 
HETATM   23  C   UNL     1      27.638  47.638  38.236  1.00  0.00     0.044 A 
HETATM   24  C   UNL     1      26.271  47.413  38.377  1.00  0.00     0.066 A 
HETATM   25  C   UNL     1      25.665  47.459  39.624  1.00  0.00     0.036 A 
HETATM   26  C   UNL     1      26.428  47.757  40.749  1.00  0.00     0.003 A 
HETATM   27  C   UNL     1      27.799  47.990  40.623  1.00  0.00     0.008 A 
BRANCH  24  28
HETATM   28  O   UNL     1      25.488  47.127  37.301  1.00  0.00    -0.361 OA
HETATM   29  H   UNL     1      24.565  47.019  37.584  1.00  0.00     0.217 HD
ENDBRANCH  24  28
ENDBRANCH  12  22
TORSDOF 3
ENDMDL
MODEL 7
REMARK VINA RESULT:      -7.4      1.956      3.590
REMARK  3 active torsions:
REMARK  status: ('A' for Active; 'I' for Inactive)
REMARK    1  A    between atoms: C_7  and  C_8 
REMARK       I    between atoms: C_8  and  N_9 
REMARK    2  A    between atoms: C_19  and  C_20 
REMARK    3  A    between atoms: C_22  and  O_23 
ROOT
HETATM    1  C   UNL     1      30.596  52.104  41.032  1.00  0.00     0.258 C 
HETATM    2  N   UNL     1      29.903  50.893  41.027  1.00  0.00    -0.340 N 
HETATM    3  C   UNL     1      30.451  49.543  41.101  1.00  0.00     0.123 C 
HETATM    4  C   UNL     1      29.206  48.617  41.229  1.00  0.00     0.221 C 
HETATM    5  N   UNL     1      29.259  47.539  40.139  1.00  0.00    -0.064 N 
HETATM    6  H   UNL     1      28.430  46.934  40.219  1.00  0.00     0.280 HD
HETATM    7  C   UNL     1      29.319  48.053  38.706  1.00  0.00     0.236 C 
HETATM    8  C   UNL     1      30.420  49.100  38.613  1.00  0.00     0.034 C 
HETATM    9  C   UNL     1      31.286  49.077  39.884  1.00  0.00     0.014 C 
HETATM   10  C   UNL     1      31.728  47.615  40.136  1.00  0.00     0.034 C 
HETATM   11  C   UNL     1      30.515  46.701  40.364  1.00  0.00     0.236 C 
HETATM   12  C   UNL     1      27.952  49.533  41.306  1.00  0.00     0.070 C 
HETATM   13  C   UNL     1      28.554  50.920  41.568  1.00  0.00     0.138 C 
HETATM   14  O   UNL     1      30.015  53.171  40.872  1.00  0.00    -0.267 OA
ENDROOT
BRANCH   1  15
HETATM   15  C   UNL     1      31.992  52.056  41.373  1.00  0.00     0.089 C 
HETATM   16  C   UNL     1      33.095  52.082  40.478  1.00  0.00     0.076 C 
HETATM   17  C   UNL     1      33.068  52.121  38.995  1.00  0.00     0.074 C 
HETATM   18  N   UNL     1      34.256  52.050  41.138  1.00  0.00    -0.132 NA
HETATM   19  O   UNL     1      33.924  51.877  42.470  1.00  0.00    -0.217 OA
HETATM   20  C   UNL     1      32.571  51.841  42.603  1.00  0.00     0.092 C 
HETATM   21  C   UNL     1      32.069  51.600  43.968  1.00  0.00     0.080 C 
ENDBRANCH   1  15
BRANCH  12  22
HETATM   22  C   UNL     1      26.924  49.472  40.196  1.00  0.00    -0.048 A 
HETATM   23  C   UNL     1      25.895  48.513  40.158  1.00  0.00     0.044 A 
HETATM   24  C   UNL     1      24.976  48.514  39.111  1.00  0.00     0.066 A 
HETATM   25  C   UNL     1      25.054  49.454  38.093  1.00  0.00     0.036 A 
HETATM   26  C   UNL     1      26.079  50.396  38.104  1.00  0.00     0.003 A 
HETATM   27  C   UNL     1      27.011  50.404  39.144  1.00  0.00     0.008 A 
BRANCH  24  28
HETATM   28  O   UNL     1      23.964  47.605  39.059  1.00  0.00    -0.361 OA
HETATM   29  H   UNL     1      23.158  47.987  39.444  1.00  0.00     0.217 HD
ENDBRANCH  24  28
ENDBRANCH  12  22
TORSDOF 3
ENDMDL
MODEL 8
REMARK VINA RESULT:      -7.2     11.816     14.309
REMARK  3 active torsions:
REMARK  status: ('A' for Active; 'I' for Inactive)
REMARK    1  A    between atoms: C_7  and  C_8 
REMARK       I    between atoms: C_8  and  N_9 
REMARK    2  A    between atoms: C_19  and  C_20 
REMARK    3  A    between atoms: C_22  and  O_23 
ROOT
HETATM    1  C   UNL     1      21.985  47.487  47.673  1.00  0.00     0.258 C 
HETATM    2  N   UNL     1      20.824  47.842  48.360  1.00  0.00    -0.340 N 
HETATM    3  C   UNL     1      19.627  47.037  48.579  1.00  0.00     0.123 C 
HETATM    4  C   UNL     1      18.750  47.885  49.546  1.00  0.00     0.221 C 
HETATM    5  N   UNL     1      17.351  48.060  48.943  1.00  0.00    -0.064 N 
HETATM    6  H   UNL     1      16.776  48.629  49.580  1.00  0.00     0.280 HD
HETATM    7  C   UNL     1      17.301  48.713  47.569  1.00  0.00     0.236 C 
HETATM    8  C   UNL     1      18.295  48.003  46.660  1.00  0.00     0.034 C 
HETATM    9  C   UNL     1      18.788  46.705  47.321  1.00  0.00     0.014 C 
HETATM   10  C   UNL     1      17.548  45.895  47.770  1.00  0.00     0.034 C 
HETATM   11  C   UNL     1      16.721  46.676  48.802  1.00  0.00     0.236 C 
HETATM   12  C   UNL     1      19.564  49.158  49.914  1.00  0.00     0.070 C 
HETATM   13  C   UNL     1      20.979  48.816  49.429  1.00  0.00     0.138 C 
HETATM   14  O   UNL     1      22.886  48.297  47.485  1.00  0.00    -0.267 OA
ENDROOT
BRANCH   1  15
HETATM   15  C   UNL     1      22.139  46.101  47.322  1.00  0.00     0.089 C 
HETATM   16  C   UNL     1      22.778  45.089  48.087  1.00  0.00     0.076 C 
HETATM   17  C   UNL     1      23.467  45.228  49.393  1.00  0.00     0.074 C 
HETATM   18  N   UNL     1      22.715  43.904  47.473  1.00  0.00    -0.132 NA
HETATM   19  O   UNL     1      22.141  44.154  46.239  1.00  0.00    -0.217 OA
HETATM   20  C   UNL     1      21.834  45.475  46.136  1.00  0.00     0.092 C 
HETATM   21  C   UNL     1      21.267  45.900  44.844  1.00  0.00     0.080 C 
ENDBRANCH   1  15
BRANCH  12  22
HETATM   22  C   UNL     1      19.044  50.515  49.487  1.00  0.00    -0.048 A 
HETATM   23  C   UNL     1      17.974  51.162  50.134  1.00  0.00     0.044 A 
HETATM   24  C   UNL     1      17.547  52.414  49.696  1.00  0.00     0.066 A 
HETATM   25  C   UNL     1      18.162  53.044  48.624  1.00  0.00     0.036 A 
HETATM   26  C   UNL     1      19.207  52.408  47.960  1.00  0.00     0.003 A 
HETATM   27  C   UNL     1      19.643  51.151  48.383  1.00  0.00     0.008 A 
BRANCH  24  28
HETATM   28  O   UNL     1      16.524  53.066  50.314  1.00  0.00    -0.361 OA
HETATM   29  H   UNL     1      16.598  54.021  50.155  1.00  0.00     0.217 HD
ENDBRANCH  24  28
ENDBRANCH  12  22
TORSDOF 3
ENDMDL
MODEL 9
REMARK VINA RESULT:      -7.1      2.100      4.020
REMARK  3 active torsions:
REMARK  status: ('A' for Active; 'I' for Inactive)
REMARK    1  A    between atoms: C_7  and  C_8 
REMARK       I    between atoms: C_8  and  N_9 
REMARK    2  A    between atoms: C_19  and  C_20 
REMARK    3  A    between atoms: C_22  and  O_23 
ROOT
HETATM    1  C   UNL     1      30.007  51.737  41.121  1.00  0.00     0.258 C 
HETATM    2  N   UNL     1      29.426  50.468  41.097  1.00  0.00    -0.340 N 
HETATM    3  C   UNL     1      30.088  49.179  40.938  1.00  0.00     0.123 C 
HETATM    4  C   UNL     1      28.965  48.125  41.164  1.00  0.00     0.221 C 
HETATM    5  N   UNL     1      28.922  47.163  39.970  1.00  0.00    -0.064 N 
HETATM    6  H   UNL     1      28.171  46.474  40.117  1.00  0.00     0.280 HD
HETATM    7  C   UNL     1      28.695  47.809  38.610  1.00  0.00     0.236 C 
HETATM    8  C   UNL     1      29.673  48.964  38.454  1.00  0.00     0.034 C 
HETATM    9  C   UNL     1      30.741  48.911  39.560  1.00  0.00     0.014 C 
HETATM   10  C   UNL     1      31.340  47.485  39.580  1.00  0.00     0.034 C 
HETATM   11  C   UNL     1      30.263  46.437  39.900  1.00  0.00     0.236 C 
HETATM   12  C   UNL     1      27.670  48.901  41.539  1.00  0.00     0.070 C 
HETATM   13  C   UNL     1      28.190  50.311  41.848  1.00  0.00     0.138 C 
HETATM   14  O   UNL     1      29.320  52.751  41.171  1.00  0.00    -0.267 OA
ENDROOT
BRANCH   1  15
HETATM   15  C   UNL     1      31.440  51.797  41.227  1.00  0.00     0.089 C 
HETATM   16  C   UNL     1      32.210  51.845  42.419  1.00  0.00     0.076 C 
HETATM   17  C   UNL     1      31.725  51.887  43.820  1.00  0.00     0.074 C 
HETATM   18  N   UNL     1      33.519  51.867  42.150  1.00  0.00    -0.132 NA
HETATM   19  O   UNL     1      33.615  51.958  40.774  1.00  0.00    -0.217 OA
HETATM   20  C   UNL     1      32.370  51.957  40.226  1.00  0.00     0.092 C 
HETATM   21  C   UNL     1      32.316  52.111  38.761  1.00  0.00     0.080 C 
ENDBRANCH   1  15
BRANCH  12  22
HETATM   22  C   UNL     1      26.478  48.840  40.608  1.00  0.00    -0.048 A 
HETATM   23  C   UNL     1      26.177  49.858  39.683  1.00  0.00     0.044 A 
HETATM   24  C   UNL     1      25.068  49.740  38.849  1.00  0.00     0.066 A 
HETATM   25  C   UNL     1      24.244  48.625  38.909  1.00  0.00     0.036 A 
HETATM   26  C   UNL     1      24.515  47.620  39.833  1.00  0.00     0.003 A 
HETATM   27  C   UNL     1      25.619  47.727  40.680  1.00  0.00     0.008 A 
BRANCH  24  28
HETATM   28  O   UNL     1      24.765  50.704  37.938  1.00  0.00    -0.361 OA
HETATM   29  H   UNL     1      23.807  50.867  37.936  1.00  0.00     0.217 HD
ENDBRANCH  24  28
ENDBRANCH  12  22
TORSDOF 3
ENDMDL
MODEL 10
REMARK VINA RESULT:      -7.1     25.367     27.242
REMARK  3 active torsions:
REMARK  status: ('A' for Active; 'I' for Inactive)
REMARK    1  A    between atoms: C_7  and  C_8 
REMARK       I    between atoms: C_8  and  N_9 
REMARK    2  A    between atoms: C_19  and  C_20 
REMARK    3  A    between atoms: C_22  and  O_23 
ROOT
HETATM    1  C   UNL     1      40.263  42.934  65.082  1.00  0.00     0.258 C 
HETATM    2  N   UNL     1      39.280  43.688  65.724  1.00  0.00    -0.340 N 
HETATM    3  C   UNL     1      37.919  43.290  66.063  1.00  0.00     0.123 C 
HETATM    4  C   UNL     1      37.360  44.469  66.912  1.00  0.00     0.221 C 
HETATM    5  N   UNL     1      36.037  44.951  66.304  1.00  0.00    -0.064 N 
HETATM    6  H   UNL     1      35.674  45.737  66.861  1.00  0.00     0.280 HD
HETATM    7  C   UNL     1      36.105  45.407  64.853  1.00  0.00     0.236 C 
HETATM    8  C   UNL     1      36.818  44.333  64.042  1.00  0.00     0.034 C 
HETATM    9  C   UNL     1      36.962  43.046  64.872  1.00  0.00     0.014 C 
HETATM   10  C   UNL     1      35.568  42.685  65.440  1.00  0.00     0.034 C 
HETATM   11  C   UNL     1      35.042  43.795  66.362  1.00  0.00     0.236 C 
HETATM   12  C   UNL     1      38.512  45.498  67.093  1.00  0.00     0.070 C 
HETATM   13  C   UNL     1      39.751  44.710  66.647  1.00  0.00     0.138 C 
HETATM   14  O   UNL     1      41.344  43.425  64.775  1.00  0.00    -0.267 OA
ENDROOT
BRANCH   1  15
HETATM   15  C   UNL     1      40.009  41.528  64.925  1.00  0.00     0.089 C 
HETATM   16  C   UNL     1      40.355  40.488  65.829  1.00  0.00     0.076 C 
HETATM   17  C   UNL     1      41.089  40.599  67.113  1.00  0.00     0.074 C 
HETATM   18  N   UNL     1      39.942  39.299  65.381  1.00  0.00    -0.132 NA
HETATM   19  O   UNL     1      39.430  39.534  64.118  1.00  0.00    -0.217 OA
HETATM   20  C   UNL     1      39.508  40.861  63.831  1.00  0.00     0.092 C 
HETATM   21  C   UNL     1      39.051  41.253  62.486  1.00  0.00     0.080 C 
ENDBRANCH   1  15
BRANCH  12  22
HETATM   22  C   UNL     1      38.370  46.878  66.487  1.00  0.00    -0.048 A 
HETATM   23  C   UNL     1      39.117  47.304  65.372  1.00  0.00     0.044 A 
HETATM   24  C   UNL     1      38.935  48.586  64.858  1.00  0.00     0.066 A 
HETATM   25  C   UNL     1      38.022  49.462  65.427  1.00  0.00     0.036 A 
HETATM   26  C   UNL     1      37.292  49.064  66.543  1.00  0.00     0.003 A 
HETATM   27  C   UNL     1      37.467  47.784  67.074  1.00  0.00     0.008 A 
BRANCH  24  28
HETATM   28  O   UNL     1      39.635  49.016  63.772  1.00  0.00    -0.361 OA
HETATM   29  H   UNL     1      39.067  49.570  63.212  1.00  0.00     0.217 HD
ENDBRANCH  24  28
ENDBRANCH  12  22
TORSDOF 3
ENDMDL
