MODEL 1
REMARK VINA RESULT:      -9.2      0.000      0.000
REMARK  6 active torsions:
REMARK  status: ('A' for Active; 'I' for Inactive)
REMARK       I    between atoms: C_2  and  N_3 
REMARK    1  A    between atoms: N_3  and  C_4 
REMARK    2  A    between atoms: C_7  and  N_8 
REMARK       I    between atoms: N_8  and  C_9 
REMARK    3  A    between atoms: C_9  and  C_10 
REMARK    4  A    between atoms: C_10  and  S_11 
REMARK    5  A    between atoms: S_11  and  C_12 
REMARK    6  A    between atoms: C_15  and  C_16 
ROOT
HETATM    1  N   UNL     1      25.795  46.200  52.020  1.00  0.00    -0.327 N 
HETATM    2  C   UNL     1      24.780  45.386  51.550  1.00  0.00     0.231 C 
HETATM    3  O   UNL     1      24.308  44.409  52.126  1.00  0.00    -0.272 OA
HETATM    4  H   UNL     1      25.957  47.053  51.480  1.00  0.00     0.169 HD
ENDROOT
BRANCH   2   5
HETATM    5  C   UNL     1      24.274  45.798  50.174  1.00  0.00     0.185 C 
BRANCH   5   6
HETATM    6  S   UNL     1      24.596  47.554  49.850  1.00  0.00    -0.083 SA
BRANCH   6   7
HETATM    7  C   UNL     1      23.142  48.029  49.061  1.00  0.00     0.167 A 
HETATM    8  N   UNL     1      22.662  47.576  47.928  1.00  0.00    -0.235 NA
HETATM    9  C   UNL     1      21.505  48.296  47.738  1.00  0.00     0.149 A 
HETATM   10  C   UNL     1      21.292  49.216  48.754  1.00  0.00     0.062 A 
HETATM   11  N   UNL     1      22.359  49.002  49.600  1.00  0.00    -0.333 N 
HETATM   12  H   UNL     1      22.549  49.474  50.471  1.00  0.00     0.168 HD
BRANCH  10  13
HETATM   13  C   UNL     1      20.234  50.204  48.974  1.00  0.00    -0.008 A 
HETATM   14  C   UNL     1      20.284  51.450  48.331  1.00  0.00     0.014 A 
HETATM   15  C   UNL     1      19.289  52.409  48.542  1.00  0.00     0.001 A 
HETATM   16  C   UNL     1      18.227  52.136  49.398  1.00  0.00     0.000 A 
HETATM   17  C   UNL     1      18.160  50.905  50.045  1.00  0.00     0.001 A 
HETATM   18  C   UNL     1      19.158  49.947  49.835  1.00  0.00     0.014 A 
ENDBRANCH  10  13
ENDBRANCH   6   7
ENDBRANCH   5   6
ENDBRANCH   2   5
BRANCH   1  19
HETATM   19  C   UNL     1      26.546  46.061  53.200  1.00  0.00     0.034 A 
HETATM   20  C   UNL     1      27.204  44.893  53.578  1.00  0.00     0.032 A 
HETATM   21  C   UNL     1      27.966  44.850  54.757  1.00  0.00     0.032 A 
HETATM   22  C   UNL     1      28.077  45.974  55.575  1.00  0.00     0.034 A 
HETATM   23  C   UNL     1      27.403  47.142  55.202  1.00  0.00     0.032 A 
HETATM   24  C   UNL     1      26.648  47.185  54.025  1.00  0.00     0.032 A 
BRANCH  22  25
HETATM   25  N   UNL     1      28.840  46.022  56.760  1.00  0.00    -0.328 N 
HETATM   26  C   UNL     1      30.130  45.559  56.950  1.00  0.00     0.218 C 
HETATM   27  C   UNL     1      30.640  45.819  58.346  1.00  0.00     0.117 C 
HETATM   28  O   UNL     1      30.832  44.976  56.133  1.00  0.00    -0.274 OA
HETATM   29  H   UNL     1      28.390  46.456  57.554  1.00  0.00     0.169 HD
ENDBRANCH  22  25
ENDBRANCH   1  19
TORSDOF 6
ENDMDL
MODEL 2
REMARK VINA RESULT:      -9.1      1.250      1.925
REMARK  6 active torsions:
REMARK  status: ('A' for Active; 'I' for Inactive)
REMARK       I    between atoms: C_2  and  N_3 
REMARK    1  A    between atoms: N_3  and  C_4 
REMARK    2  A    between atoms: C_7  and  N_8 
REMARK       I    between atoms: N_8  and  C_9 
REMARK    3  A    between atoms: C_9  and  C_10 
REMARK    4  A    between atoms: C_10  and  S_11 
REMARK    5  A    between atoms: S_11  and  C_12 
REMARK    6  A    between atoms: C_15  and  C_16 
ROOT
HETATM    1  N   UNL     1      26.117  45.195  51.524  1.00  0.00    -0.327 N 
HETATM    2  C   UNL     1      24.865  44.664  51.276  1.00  0.00     0.231 C 
HETATM    3  O   UNL     1      24.308  43.782  51.926  1.00  0.00    -0.272 OA
HETATM    4  H   UNL     1      26.358  46.024  50.974  1.00  0.00     0.169 HD
ENDROOT
BRANCH   2   5
HETATM    5  C   UNL     1      24.192  45.269  50.051  1.00  0.00     0.185 C 
BRANCH   5   6
HETATM    6  S   UNL     1      24.522  47.049  49.928  1.00  0.00    -0.083 SA
BRANCH   6   7
HETATM    7  C   UNL     1      23.092  47.608  49.150  1.00  0.00     0.167 A 
HETATM    8  N   UNL     1      22.543  47.142  48.055  1.00  0.00    -0.235 NA
HETATM    9  C   UNL     1      21.447  47.950  47.854  1.00  0.00     0.149 A 
HETATM   10  C   UNL     1      21.345  48.936  48.824  1.00  0.00     0.062 A 
HETATM   11  N   UNL     1      22.413  48.674  49.654  1.00  0.00    -0.333 N 
HETATM   12  H   UNL     1      22.667  49.172  50.493  1.00  0.00     0.168 HD
BRANCH  10  13
HETATM   13  C   UNL     1      20.383  50.024  49.015  1.00  0.00    -0.008 A 
HETATM   14  C   UNL     1      19.291  49.861  49.881  1.00  0.00     0.014 A 
HETATM   15  C   UNL     1      18.358  50.885  50.063  1.00  0.00     0.001 A 
HETATM   16  C   UNL     1      18.502  52.090  49.384  1.00  0.00     0.000 A 
HETATM   17  C   UNL     1      19.579  52.271  48.520  1.00  0.00     0.001 A 
HETATM   18  C   UNL     1      20.512  51.245  48.336  1.00  0.00     0.014 A 
ENDBRANCH  10  13
ENDBRANCH   6   7
ENDBRANCH   5   6
ENDBRANCH   2   5
BRANCH   1  19
HETATM   19  C   UNL     1      27.046  44.813  52.508  1.00  0.00     0.034 A 
HETATM   20  C   UNL     1      26.930  45.127  53.860  1.00  0.00     0.032 A 
HETATM   21  C   UNL     1      27.885  44.674  54.784  1.00  0.00     0.032 A 
HETATM   22  C   UNL     1      28.969  43.902  54.369  1.00  0.00     0.034 A 
HETATM   23  C   UNL     1      29.092  43.599  53.008  1.00  0.00     0.032 A 
HETATM   24  C   UNL     1      28.138  44.047  52.088  1.00  0.00     0.032 A 
BRANCH  22  25
HETATM   25  N   UNL     1      29.956  43.386  55.234  1.00  0.00    -0.328 N 
HETATM   26  C   UNL     1      30.783  44.095  56.087  1.00  0.00     0.218 C 
HETATM   27  C   UNL     1      31.691  43.200  56.893  1.00  0.00     0.117 C 
HETATM   28  O   UNL     1      30.841  45.313  56.214  1.00  0.00    -0.274 OA
HETATM   29  H   UNL     1      30.059  42.380  55.232  1.00  0.00     0.169 HD
ENDBRANCH  22  25
ENDBRANCH   1  19
TORSDOF 6
ENDMDL
MODEL 3
REMARK VINA RESULT:      -9.1      3.343      9.962
REMARK  6 active torsions:
REMARK  status: ('A' for Active; 'I' for Inactive)
REMARK       I    between atoms: C_2  and  N_3 
REMARK    1  A    between atoms: N_3  and  C_4 
REMARK    2  A    between atoms: C_7  and  N_8 
REMARK       I    between atoms: N_8  and  C_9 
REMARK    3  A    between atoms: C_9  and  C_10 
REMARK    4  A    between atoms: C_10  and  S_11 
REMARK    5  A    between atoms: S_11  and  C_12 
REMARK    6  A    between atoms: C_15  and  C_16 
ROOT
HETATM    1  N   UNL     1      25.063  43.905  49.714  1.00  0.00    -0.327 N 
HETATM    2  C   UNL     1      24.567  42.802  50.386  1.00  0.00     0.231 C 
HETATM    3  O   UNL     1      23.547  42.766  51.069  1.00  0.00    -0.272 OA
HETATM    4  H   UNL     1      25.838  43.716  49.074  1.00  0.00     0.169 HD
ENDROOT
BRANCH   2   5
HETATM    5  C   UNL     1      25.443  41.566  50.230  1.00  0.00     0.185 C 
BRANCH   5   6
HETATM    6  S   UNL     1      27.124  42.008  49.711  1.00  0.00    -0.083 SA
BRANCH   6   7
HETATM    7  C   UNL     1      27.988  41.870  51.194  1.00  0.00     0.167 A 
HETATM    8  N   UNL     1      28.425  40.775  51.765  1.00  0.00    -0.235 NA
HETATM    9  C   UNL     1      29.017  41.212  52.927  1.00  0.00     0.149 A 
HETATM   10  C   UNL     1      28.916  42.587  53.077  1.00  0.00     0.062 A 
HETATM   11  N   UNL     1      28.262  42.981  51.930  1.00  0.00    -0.333 N 
HETATM   12  H   UNL     1      28.016  43.922  51.662  1.00  0.00     0.168 HD
BRANCH  10  13
HETATM   13  C   UNL     1      29.362  43.491  54.139  1.00  0.00    -0.008 A 
HETATM   14  C   UNL     1      30.499  43.185  54.901  1.00  0.00     0.014 A 
HETATM   15  C   UNL     1      30.929  44.031  55.927  1.00  0.00     0.001 A 
HETATM   16  C   UNL     1      30.228  45.199  56.207  1.00  0.00     0.000 A 
HETATM   17  C   UNL     1      29.096  45.521  55.462  1.00  0.00     0.001 A 
HETATM   18  C   UNL     1      28.665  44.673  54.437  1.00  0.00     0.014 A 
ENDBRANCH  10  13
ENDBRANCH   6   7
ENDBRANCH   5   6
ENDBRANCH   2   5
BRANCH   1  19
HETATM   19  C   UNL     1      24.564  45.219  49.712  1.00  0.00     0.034 A 
HETATM   20  C   UNL     1      25.136  46.276  50.416  1.00  0.00     0.032 A 
HETATM   21  C   UNL     1      24.594  47.569  50.331  1.00  0.00     0.032 A 
HETATM   22  C   UNL     1      23.473  47.822  49.540  1.00  0.00     0.034 A 
HETATM   23  C   UNL     1      22.892  46.756  48.845  1.00  0.00     0.032 A 
HETATM   24  C   UNL     1      23.433  45.469  48.928  1.00  0.00     0.032 A 
BRANCH  22  25
HETATM   25  N   UNL     1      22.885  49.093  49.379  1.00  0.00    -0.328 N 
HETATM   26  C   UNL     1      23.068  49.980  48.334  1.00  0.00     0.218 C 
HETATM   27  C   UNL     1      22.239  51.232  48.483  1.00  0.00     0.117 C 
HETATM   28  O   UNL     1      23.816  49.842  47.373  1.00  0.00    -0.274 OA
HETATM   29  H   UNL     1      22.249  49.378  50.113  1.00  0.00     0.169 HD
ENDBRANCH  22  25
ENDBRANCH   1  19
TORSDOF 6
ENDMDL
MODEL 4
REMARK VINA RESULT:      -9.1      2.989     10.728
REMARK  6 active torsions:
REMARK  status: ('A' for Active; 'I' for Inactive)
REMARK       I    between atoms: C_2  and  N_3 
REMARK    1  A    between atoms: N_3  and  C_4 
REMARK    2  A    between atoms: C_7  and  N_8 
REMARK       I    between atoms: N_8  and  C_9 
REMARK    3  A    between atoms: C_9  and  C_10 
REMARK    4  A    between atoms: C_10  and  S_11 
REMARK    5  A    between atoms: S_11  and  C_12 
REMARK    6  A    between atoms: C_15  and  C_16 
ROOT
HETATM    1  N   UNL     1      26.105  46.895  49.876  1.00  0.00    -0.327 N 
HETATM    2  C   UNL     1      26.095  45.530  49.649  1.00  0.00     0.231 C 
HETATM    3  O   UNL     1      25.249  44.907  49.012  1.00  0.00    -0.272 OA
HETATM    4  H   UNL     1      26.963  47.262  50.296  1.00  0.00     0.169 HD
ENDROOT
BRANCH   2   5
HETATM    5  C   UNL     1      27.264  44.808  50.303  1.00  0.00     0.185 C 
BRANCH   5   6
HETATM    6  S   UNL     1      26.712  43.780  51.693  1.00  0.00    -0.083 SA
BRANCH   6   7
HETATM    7  C   UNL     1      28.188  43.532  52.543  1.00  0.00     0.167 A 
HETATM    8  N   UNL     1      29.220  42.819  52.162  1.00  0.00    -0.235 NA
HETATM    9  C   UNL     1      30.112  42.930  53.204  1.00  0.00     0.149 A 
HETATM   10  C   UNL     1      29.605  43.697  54.242  1.00  0.00     0.062 A 
HETATM   11  N   UNL     1      28.369  44.085  53.773  1.00  0.00    -0.333 N 
HETATM   12  H   UNL     1      27.697  44.673  54.242  1.00  0.00     0.168 HD
BRANCH  10  13
HETATM   13  C   UNL     1      30.160  44.070  55.545  1.00  0.00    -0.008 A 
HETATM   14  C   UNL     1      29.790  45.279  56.154  1.00  0.00     0.014 A 
HETATM   15  C   UNL     1      30.322  45.654  57.391  1.00  0.00     0.001 A 
HETATM   16  C   UNL     1      31.232  44.825  58.040  1.00  0.00     0.000 A 
HETATM   17  C   UNL     1      31.611  43.622  57.452  1.00  0.00     0.001 A 
HETATM   18  C   UNL     1      31.081  43.248  56.213  1.00  0.00     0.014 A 
ENDBRANCH  10  13
ENDBRANCH   6   7
ENDBRANCH   5   6
ENDBRANCH   2   5
BRANCH   1  19
HETATM   19  C   UNL     1      25.142  47.847  49.500  1.00  0.00     0.034 A 
HETATM   20  C   UNL     1      25.441  49.078  48.921  1.00  0.00     0.032 A 
HETATM   21  C   UNL     1      24.415  49.958  48.540  1.00  0.00     0.032 A 
HETATM   22  C   UNL     1      23.076  49.620  48.736  1.00  0.00     0.034 A 
HETATM   23  C   UNL     1      22.778  48.389  49.331  1.00  0.00     0.032 A 
HETATM   24  C   UNL     1      23.801  47.511  49.706  1.00  0.00     0.032 A 
BRANCH  22  25
HETATM   25  N   UNL     1      21.987  50.433  48.360  1.00  0.00    -0.328 N 
HETATM   26  C   UNL     1      21.082  51.067  49.192  1.00  0.00     0.218 C 
HETATM   27  C   UNL     1      20.071  51.888  48.431  1.00  0.00     0.117 C 
HETATM   28  O   UNL     1      21.033  51.000  50.415  1.00  0.00    -0.274 OA
HETATM   29  H   UNL     1      21.866  50.571  47.365  1.00  0.00     0.169 HD
ENDBRANCH  22  25
ENDBRANCH   1  19
TORSDOF 6
ENDMDL
MODEL 5
REMARK VINA RESULT:      -9.0      3.896      4.936
REMARK  6 active torsions:
REMARK  status: ('A' for Active; 'I' for Inactive)
REMARK       I    between atoms: C_2  and  N_3 
REMARK    1  A    between atoms: N_3  and  C_4 
REMARK    2  A    between atoms: C_7  and  N_8 
REMARK       I    between atoms: N_8  and  C_9 
REMARK    3  A    between atoms: C_9  and  C_10 
REMARK    4  A    between atoms: C_10  and  S_11 
REMARK    5  A    between atoms: S_11  and  C_12 
REMARK    6  A    between atoms: C_15  and  C_16 
ROOT
HETATM    1  N   UNL     1      26.761  42.927  51.381  1.00  0.00    -0.327 N 
HETATM    2  C   UNL     1      26.117  41.862  50.778  1.00  0.00     0.231 C 
HETATM    3  O   UNL     1      26.267  40.674  51.051  1.00  0.00    -0.272 OA
HETATM    4  H   UNL     1      26.403  43.853  51.132  1.00  0.00     0.169 HD
ENDROOT
BRANCH   2   5
HETATM    5  C   UNL     1      25.168  42.291  49.667  1.00  0.00     0.185 C 
BRANCH   5   6
HETATM    6  S   UNL     1      23.726  43.169  50.330  1.00  0.00    -0.083 SA
BRANCH   6   7
HETATM    7  C   UNL     1      24.415  44.689  50.752  1.00  0.00     0.167 A 
HETATM    8  N   UNL     1      24.646  45.157  51.954  1.00  0.00    -0.235 NA
HETATM    9  C   UNL     1      25.175  46.408  51.736  1.00  0.00     0.149 A 
HETATM   10  C   UNL     1      25.242  46.716  50.385  1.00  0.00     0.062 A 
HETATM   11  N   UNL     1      24.760  45.576  49.779  1.00  0.00    -0.333 N 
HETATM   12  H   UNL     1      24.668  45.406  48.789  1.00  0.00     0.168 HD
BRANCH  10  13
HETATM   13  C   UNL     1      25.696  47.913  49.676  1.00  0.00    -0.008 A 
HETATM   14  C   UNL     1      24.775  48.734  49.007  1.00  0.00     0.014 A 
HETATM   15  C   UNL     1      25.195  49.872  48.314  1.00  0.00     0.001 A 
HETATM   16  C   UNL     1      26.545  50.209  48.280  1.00  0.00     0.000 A 
HETATM   17  C   UNL     1      27.474  49.408  48.937  1.00  0.00     0.001 A 
HETATM   18  C   UNL     1      27.053  48.267  49.629  1.00  0.00     0.014 A 
ENDBRANCH  10  13
ENDBRANCH   6   7
ENDBRANCH   5   6
ENDBRANCH   2   5
BRANCH   1  19
HETATM   19  C   UNL     1      27.758  42.894  52.371  1.00  0.00     0.034 A 
HETATM   20  C   UNL     1      29.084  42.539  52.137  1.00  0.00     0.032 A 
HETATM   21  C   UNL     1      30.027  42.567  53.178  1.00  0.00     0.032 A 
HETATM   22  C   UNL     1      29.656  42.949  54.466  1.00  0.00     0.034 A 
HETATM   23  C   UNL     1      28.320  43.292  54.703  1.00  0.00     0.032 A 
HETATM   24  C   UNL     1      27.382  43.267  53.665  1.00  0.00     0.032 A 
BRANCH  22  25
HETATM   25  N   UNL     1      30.544  43.030  55.558  1.00  0.00    -0.328 N 
HETATM   26  C   UNL     1      30.925  44.164  56.253  1.00  0.00     0.218 C 
HETATM   27  C   UNL     1      31.864  43.858  57.394  1.00  0.00     0.117 C 
HETATM   28  O   UNL     1      30.594  45.319  56.015  1.00  0.00    -0.274 OA
HETATM   29  H   UNL     1      30.936  42.151  55.870  1.00  0.00     0.169 HD
ENDBRANCH  22  25
ENDBRANCH   1  19
TORSDOF 6
ENDMDL
MODEL 6
REMARK VINA RESULT:      -9.0      2.947     10.188
REMARK  6 active torsions:
REMARK  status: ('A' for Active; 'I' for Inactive)
REMARK       I    between atoms: C_2  and  N_3 
REMARK    1  A    between atoms: N_3  and  C_4 
REMARK    2  A    between atoms: C_7  and  N_8 
REMARK       I    between atoms: N_8  and  C_9 
REMARK    3  A    between atoms: C_9  and  C_10 
REMARK    4  A    between atoms: C_10  and  S_11 
REMARK    5  A    between atoms: S_11  and  C_12 
REMARK    6  A    between atoms: C_15  and  C_16 
ROOT
HETATM    1  N   UNL     1      25.213  44.142  49.891  1.00  0.00    -0.327 N 
HETATM    2  C   UNL     1      24.882  43.122  50.764  1.00  0.00     0.231 C 
HETATM    3  O   UNL     1      23.836  43.023  51.401  1.00  0.00    -0.272 OA
HETATM    4  H   UNL     1      26.058  43.986  49.336  1.00  0.00     0.169 HD
ENDROOT
BRANCH   2   5
HETATM    5  C   UNL     1      25.983  42.080  50.909  1.00  0.00     0.185 C 
BRANCH   5   6
HETATM    6  S   UNL     1      27.625  42.819  50.692  1.00  0.00    -0.083 SA
BRANCH   6   7
HETATM    7  C   UNL     1      27.788  43.725  52.147  1.00  0.00     0.167 A 
HETATM    8  N   UNL     1      27.081  44.761  52.527  1.00  0.00    -0.235 NA
HETATM    9  C   UNL     1      27.627  45.118  53.738  1.00  0.00     0.149 A 
HETATM   10  C   UNL     1      28.697  44.307  54.086  1.00  0.00     0.062 A 
HETATM   11  N   UNL     1      28.761  43.407  53.044  1.00  0.00    -0.333 N 
HETATM   12  H   UNL     1      29.407  42.639  52.942  1.00  0.00     0.168 HD
BRANCH  10  13
HETATM   13  C   UNL     1      29.594  44.313  55.243  1.00  0.00    -0.008 A 
HETATM   14  C   UNL     1      30.472  43.241  55.465  1.00  0.00     0.014 A 
HETATM   15  C   UNL     1      31.325  43.225  56.572  1.00  0.00     0.001 A 
HETATM   16  C   UNL     1      31.314  44.283  57.475  1.00  0.00     0.000 A 
HETATM   17  C   UNL     1      30.450  45.356  57.273  1.00  0.00     0.001 A 
HETATM   18  C   UNL     1      29.595  45.369  56.165  1.00  0.00     0.014 A 
ENDBRANCH  10  13
ENDBRANCH   6   7
ENDBRANCH   5   6
ENDBRANCH   2   5
BRANCH   1  19
HETATM   19  C   UNL     1      24.479  45.303  49.590  1.00  0.00     0.034 A 
HETATM   20  C   UNL     1      23.355  45.328  48.768  1.00  0.00     0.032 A 
HETATM   21  C   UNL     1      22.657  46.527  48.547  1.00  0.00     0.032 A 
HETATM   22  C   UNL     1      23.075  47.716  49.145  1.00  0.00     0.034 A 
HETATM   23  C   UNL     1      24.213  47.691  49.958  1.00  0.00     0.032 A 
HETATM   24  C   UNL     1      24.906  46.496  50.180  1.00  0.00     0.032 A 
BRANCH  22  25
HETATM   25  N   UNL     1      22.417  48.954  48.996  1.00  0.00    -0.328 N 
HETATM   26  C   UNL     1      22.718  49.967  48.104  1.00  0.00     0.218 C 
HETATM   27  C   UNL     1      21.767  51.134  48.207  1.00  0.00     0.117 C 
HETATM   28  O   UNL     1      23.647  49.993  47.305  1.00  0.00    -0.274 OA
HETATM   29  H   UNL     1      21.628  49.108  49.611  1.00  0.00     0.169 HD
ENDBRANCH  22  25
ENDBRANCH   1  19
TORSDOF 6
ENDMDL
MODEL 7
REMARK VINA RESULT:      -8.8      3.550      4.576
REMARK  6 active torsions:
REMARK  status: ('A' for Active; 'I' for Inactive)
REMARK       I    between atoms: C_2  and  N_3 
REMARK    1  A    between atoms: N_3  and  C_4 
REMARK    2  A    between atoms: C_7  and  N_8 
REMARK       I    between atoms: N_8  and  C_9 
REMARK    3  A    between atoms: C_9  and  C_10 
REMARK    4  A    between atoms: C_10  and  S_11 
REMARK    5  A    between atoms: S_11  and  C_12 
REMARK    6  A    between atoms: C_15  and  C_16 
ROOT
HETATM    1  N   UNL     1      26.264  44.748  51.002  1.00  0.00    -0.327 N 
HETATM    2  C   UNL     1      25.206  45.289  51.710  1.00  0.00     0.231 C 
HETATM    3  O   UNL     1      24.592  44.747  52.624  1.00  0.00    -0.272 OA
HETATM    4  H   UNL     1      26.751  45.396  50.378  1.00  0.00     0.169 HD
ENDROOT
BRANCH   2   5
HETATM    5  C   UNL     1      24.817  46.680  51.229  1.00  0.00     0.185 C 
BRANCH   5   6
HETATM    6  S   UNL     1      24.021  46.618  49.600  1.00  0.00    -0.083 SA
BRANCH   6   7
HETATM    7  C   UNL     1      23.469  48.240  49.426  1.00  0.00     0.167 A 
HETATM    8  N   UNL     1      24.198  49.322  49.298  1.00  0.00    -0.235 NA
HETATM    9  C   UNL     1      23.278  50.342  49.221  1.00  0.00     0.149 A 
HETATM   10  C   UNL     1      21.976  49.878  49.330  1.00  0.00     0.062 A 
HETATM   11  N   UNL     1      22.137  48.514  49.443  1.00  0.00    -0.333 N 
HETATM   12  H   UNL     1      21.409  47.820  49.526  1.00  0.00     0.168 HD
BRANCH  10  13
HETATM   13  C   UNL     1      20.686  50.571  49.331  1.00  0.00    -0.008 A 
HETATM   14  C   UNL     1      20.472  51.672  48.489  1.00  0.00     0.014 A 
HETATM   15  C   UNL     1      19.252  52.353  48.488  1.00  0.00     0.001 A 
HETATM   16  C   UNL     1      18.223  51.941  49.330  1.00  0.00     0.000 A 
HETATM   17  C   UNL     1      18.416  50.850  50.174  1.00  0.00     0.001 A 
HETATM   18  C   UNL     1      19.639  50.171  50.175  1.00  0.00     0.014 A 
ENDBRANCH  10  13
ENDBRANCH   6   7
ENDBRANCH   5   6
ENDBRANCH   2   5
BRANCH   1  19
HETATM   19  C   UNL     1      26.821  43.462  51.117  1.00  0.00     0.034 A 
HETATM   20  C   UNL     1      26.280  42.318  50.536  1.00  0.00     0.032 A 
HETATM   21  C   UNL     1      26.922  41.076  50.670  1.00  0.00     0.032 A 
HETATM   22  C   UNL     1      28.112  40.962  51.388  1.00  0.00     0.034 A 
HETATM   23  C   UNL     1      28.646  42.109  51.983  1.00  0.00     0.032 A 
HETATM   24  C   UNL     1      28.009  43.347  51.846  1.00  0.00     0.032 A 
BRANCH  22  25
HETATM   25  N   UNL     1      28.831  39.760  51.548  1.00  0.00    -0.328 N 
HETATM   26  C   UNL     1      29.253  38.892  50.556  1.00  0.00     0.218 C 
HETATM   27  C   UNL     1      30.035  37.723  51.102  1.00  0.00     0.117 C 
HETATM   28  O   UNL     1      29.037  38.985  49.354  1.00  0.00    -0.274 OA
HETATM   29  H   UNL     1      29.071  39.515  52.499  1.00  0.00     0.169 HD
ENDBRANCH  22  25
ENDBRANCH   1  19
TORSDOF 6
ENDMDL
MODEL 8
REMARK VINA RESULT:      -8.6      2.951     10.938
REMARK  6 active torsions:
REMARK  status: ('A' for Active; 'I' for Inactive)
REMARK       I    between atoms: C_2  and  N_3 
REMARK    1  A    between atoms: N_3  and  C_4 
REMARK    2  A    between atoms: C_7  and  N_8 
REMARK       I    between atoms: N_8  and  C_9 
REMARK    3  A    between atoms: C_9  and  C_10 
REMARK    4  A    between atoms: C_10  and  S_11 
REMARK    5  A    between atoms: S_11  and  C_12 
REMARK    6  A    between atoms: C_15  and  C_16 
ROOT
HETATM    1  N   UNL     1      23.600  48.265  49.960  1.00  0.00    -0.327 N 
HETATM    2  C   UNL     1      24.966  48.219  49.745  1.00  0.00     0.231 C 
HETATM    3  O   UNL     1      25.586  48.835  48.882  1.00  0.00    -0.272 OA
HETATM    4  H   UNL     1      23.276  47.807  50.815  1.00  0.00     0.169 HD
ENDROOT
BRANCH   2   5
HETATM    5  C   UNL     1      25.687  47.275  50.697  1.00  0.00     0.185 C 
BRANCH   5   6
HETATM    6  S   UNL     1      24.911  45.635  50.717  1.00  0.00    -0.083 SA
BRANCH   6   7
HETATM    7  C   UNL     1      25.489  45.001  52.209  1.00  0.00     0.167 A 
HETATM    8  N   UNL     1      24.793  44.413  53.151  1.00  0.00    -0.235 NA
HETATM    9  C   UNL     1      25.719  44.124  54.126  1.00  0.00     0.149 A 
HETATM   10  C   UNL     1      26.988  44.565  53.785  1.00  0.00     0.062 A 
HETATM   11  N   UNL     1      26.806  45.110  52.533  1.00  0.00    -0.333 N 
HETATM   12  H   UNL     1      27.510  45.524  51.941  1.00  0.00     0.168 HD
BRANCH  10  13
HETATM   13  C   UNL     1      28.267  44.511  54.496  1.00  0.00    -0.008 A 
HETATM   14  C   UNL     1      29.101  43.389  54.371  1.00  0.00     0.014 A 
HETATM   15  C   UNL     1      30.318  43.316  55.054  1.00  0.00     0.001 A 
HETATM   16  C   UNL     1      30.722  44.366  55.872  1.00  0.00     0.000 A 
HETATM   17  C   UNL     1      29.909  45.488  56.009  1.00  0.00     0.001 A 
HETATM   18  C   UNL     1      28.690  45.559  55.327  1.00  0.00     0.014 A 
ENDBRANCH  10  13
ENDBRANCH   6   7
ENDBRANCH   5   6
ENDBRANCH   2   5
BRANCH   1  19
HETATM   19  C   UNL     1      22.625  48.955  49.218  1.00  0.00     0.034 A 
HETATM   20  C   UNL     1      22.465  50.339  49.228  1.00  0.00     0.032 A 
HETATM   21  C   UNL     1      21.488  50.952  48.428  1.00  0.00     0.032 A 
HETATM   22  C   UNL     1      20.656  50.190  47.608  1.00  0.00     0.034 A 
HETATM   23  C   UNL     1      20.809  48.799  47.610  1.00  0.00     0.032 A 
HETATM   24  C   UNL     1      21.785  48.189  48.405  1.00  0.00     0.032 A 
BRANCH  22  25
HETATM   25  N   UNL     1      19.670  50.728  46.757  1.00  0.00    -0.328 N 
HETATM   26  C   UNL     1      18.362  51.045  47.077  1.00  0.00     0.218 C 
HETATM   27  C   UNL     1      17.607  51.641  45.914  1.00  0.00     0.117 C 
HETATM   28  O   UNL     1      17.804  50.872  48.155  1.00  0.00    -0.274 OA
HETATM   29  H   UNL     1      19.963  50.909  45.806  1.00  0.00     0.169 HD
ENDBRANCH  22  25
ENDBRANCH   1  19
TORSDOF 6
ENDMDL
MODEL 9
REMARK VINA RESULT:      -8.6      3.180     11.030
REMARK  6 active torsions:
REMARK  status: ('A' for Active; 'I' for Inactive)
REMARK       I    between atoms: C_2  and  N_3 
REMARK    1  A    between atoms: N_3  and  C_4 
REMARK    2  A    between atoms: C_7  and  N_8 
REMARK       I    between atoms: N_8  and  C_9 
REMARK    3  A    between atoms: C_9  and  C_10 
REMARK    4  A    between atoms: C_10  and  S_11 
REMARK    5  A    between atoms: S_11  and  C_12 
REMARK    6  A    between atoms: C_15  and  C_16 
ROOT
HETATM    1  N   UNL     1      22.741  49.016  49.638  1.00  0.00    -0.327 N 
HETATM    2  C   UNL     1      23.889  48.987  48.865  1.00  0.00     0.231 C 
HETATM    3  O   UNL     1      24.013  49.448  47.734  1.00  0.00    -0.272 OA
HETATM    4  H   UNL     1      22.860  48.721  50.610  1.00  0.00     0.169 HD
ENDROOT
BRANCH   2   5
HETATM    5  C   UNL     1      25.050  48.279  49.549  1.00  0.00     0.185 C 
BRANCH   5   6
HETATM    6  S   UNL     1      24.552  46.654  50.184  1.00  0.00    -0.083 SA
BRANCH   6   7
HETATM    7  C   UNL     1      25.424  46.583  51.666  1.00  0.00     0.167 A 
HETATM    8  N   UNL     1      25.358  47.420  52.673  1.00  0.00    -0.235 NA
HETATM    9  C   UNL     1      26.264  46.926  53.584  1.00  0.00     0.149 A 
HETATM   10  C   UNL     1      26.908  45.791  53.114  1.00  0.00     0.062 A 
HETATM   11  N   UNL     1      26.327  45.589  51.881  1.00  0.00    -0.333 N 
HETATM   12  H   UNL     1      26.522  44.841  51.232  1.00  0.00     0.168 HD
BRANCH  10  13
HETATM   13  C   UNL     1      27.948  44.943  53.699  1.00  0.00    -0.008 A 
HETATM   14  C   UNL     1      28.607  45.338  54.873  1.00  0.00     0.014 A 
HETATM   15  C   UNL     1      29.612  44.546  55.436  1.00  0.00     0.001 A 
HETATM   16  C   UNL     1      29.973  43.345  54.833  1.00  0.00     0.000 A 
HETATM   17  C   UNL     1      29.331  42.937  53.668  1.00  0.00     0.001 A 
HETATM   18  C   UNL     1      28.327  43.731  53.104  1.00  0.00     0.014 A 
ENDBRANCH  10  13
ENDBRANCH   6   7
ENDBRANCH   5   6
ENDBRANCH   2   5
BRANCH   1  19
HETATM   19  C   UNL     1      21.470  49.506  49.290  1.00  0.00     0.034 A 
HETATM   20  C   UNL     1      20.398  48.702  48.908  1.00  0.00     0.032 A 
HETATM   21  C   UNL     1      19.148  49.270  48.611  1.00  0.00     0.032 A 
HETATM   22  C   UNL     1      18.954  50.649  48.691  1.00  0.00     0.034 A 
HETATM   23  C   UNL     1      20.036  51.455  49.061  1.00  0.00     0.032 A 
HETATM   24  C   UNL     1      21.280  50.889  49.360  1.00  0.00     0.032 A 
BRANCH  22  25
HETATM   25  N   UNL     1      17.728  51.295  48.436  1.00  0.00    -0.328 N 
HETATM   26  C   UNL     1      17.232  51.709  47.213  1.00  0.00     0.218 C 
HETATM   27  C   UNL     1      15.862  52.331  47.322  1.00  0.00     0.117 C 
HETATM   28  O   UNL     1      17.793  51.632  46.126  1.00  0.00    -0.274 OA
HETATM   29  H   UNL     1      17.144  51.463  49.245  1.00  0.00     0.169 HD
ENDBRANCH  22  25
ENDBRANCH   1  19
TORSDOF 6
ENDMDL
MODEL 10
REMARK VINA RESULT:      -8.6      3.319     10.705
REMARK  6 active torsions:
REMARK  status: ('A' for Active; 'I' for Inactive)
REMARK       I    between atoms: C_2  and  N_3 
REMARK    1  A    between atoms: N_3  and  C_4 
REMARK    2  A    between atoms: C_7  and  N_8 
REMARK       I    between atoms: N_8  and  C_9 
REMARK    3  A    between atoms: C_9  and  C_10 
REMARK    4  A    between atoms: C_10  and  S_11 
REMARK    5  A    between atoms: S_11  and  C_12 
REMARK    6  A    between atoms: C_15  and  C_16 
ROOT
HETATM    1  N   UNL     1      21.609  48.976  49.283  1.00  0.00    -0.327 N 
HETATM    2  C   UNL     1      21.615  47.809  48.540  1.00  0.00     0.231 C 
HETATM    3  O   UNL     1      20.750  47.450  47.745  1.00  0.00    -0.272 OA
HETATM    4  H   UNL     1      22.479  49.185  49.778  1.00  0.00     0.169 HD
ENDROOT
BRANCH   2   5
HETATM    5  C   UNL     1      22.832  46.936  48.812  1.00  0.00     0.185 C 
BRANCH   5   6
HETATM    6  S   UNL     1      24.152  47.877  49.628  1.00  0.00    -0.083 SA
BRANCH   6   7
HETATM    7  C   UNL     1      24.747  46.722  50.757  1.00  0.00     0.167 A 
HETATM    8  N   UNL     1      24.373  45.474  50.897  1.00  0.00    -0.235 NA
HETATM    9  C   UNL     1      25.133  45.008  51.945  1.00  0.00     0.149 A 
HETATM   10  C   UNL     1      25.960  45.991  52.466  1.00  0.00     0.062 A 
HETATM   11  N   UNL     1      25.698  47.080  51.663  1.00  0.00    -0.333 N 
HETATM   12  H   UNL     1      26.122  47.994  51.719  1.00  0.00     0.168 HD
BRANCH  10  13
HETATM   13  C   UNL     1      26.912  45.982  53.578  1.00  0.00    -0.008 A 
HETATM   14  C   UNL     1      27.664  44.830  53.858  1.00  0.00     0.014 A 
HETATM   15  C   UNL     1      28.566  44.801  54.924  1.00  0.00     0.001 A 
HETATM   16  C   UNL     1      28.733  45.925  55.728  1.00  0.00     0.000 A 
HETATM   17  C   UNL     1      27.997  47.077  55.466  1.00  0.00     0.001 A 
HETATM   18  C   UNL     1      27.091  47.104  54.400  1.00  0.00     0.014 A 
ENDBRANCH  10  13
ENDBRANCH   6   7
ENDBRANCH   5   6
ENDBRANCH   2   5
BRANCH   1  19
HETATM   19  C   UNL     1      20.607  49.961  49.349  1.00  0.00     0.034 A 
HETATM   20  C   UNL     1      20.637  51.158  48.639  1.00  0.00     0.032 A 
HETATM   21  C   UNL     1      19.575  52.073  48.734  1.00  0.00     0.032 A 
HETATM   22  C   UNL     1      18.471  51.803  49.542  1.00  0.00     0.034 A 
HETATM   23  C   UNL     1      18.450  50.606  50.266  1.00  0.00     0.032 A 
HETATM   24  C   UNL     1      19.506  49.693  50.168  1.00  0.00     0.032 A 
BRANCH  22  25
HETATM   25  N   UNL     1      17.355  52.654  49.673  1.00  0.00    -0.328 N 
HETATM   26  C   UNL     1      16.106  52.499  49.098  1.00  0.00     0.218 C 
HETATM   27  C   UNL     1      15.144  53.592  49.497  1.00  0.00     0.117 C 
HETATM   28  O   UNL     1      15.753  51.614  48.328  1.00  0.00    -0.274 OA
HETATM   29  H   UNL     1      17.487  53.463  50.264  1.00  0.00     0.169 HD
ENDBRANCH  22  25
ENDBRANCH   1  19
TORSDOF 6
ENDMDL
