MODEL 1
REMARK VINA RESULT:      -8.4      0.000      0.000
REMARK  5 active torsions:
REMARK  status: ('A' for Active; 'I' for Inactive)
REMARK    1  A    between atoms: C_6  and  N_7 
REMARK       I    between atoms: N_7  and  C_8 
REMARK    2  A    between atoms: C_8  and  C_9 
REMARK    3  A    between atoms: C_10  and  O_11 
REMARK    4  A    between atoms: C_14  and  O_15 
REMARK    5  A    between atoms: C_20  and  C_21 
ROOT
HETATM    1  C   UNL     1      25.220  40.861  48.729  1.00  0.00     0.073 C 
HETATM    2  C   UNL     1      25.923  41.074  50.020  1.00  0.00     0.065 A 
HETATM    3  N   UNL     1      26.354  40.021  50.727  1.00  0.00    -0.177 NA
HETATM    4  N   UNL     1      26.863  40.573  51.836  1.00  0.00    -0.262 N 
HETATM    5  H   UNL     1      27.264  39.952  52.527  1.00  0.00     0.191 HD
HETATM    6  C   UNL     1      26.849  41.943  51.850  1.00  0.00     0.137 A 
HETATM    7  C   UNL     1      26.187  42.306  50.687  1.00  0.00     0.046 A 
ENDROOT
BRANCH   6   8
HETATM    8  N   UNL     1      27.411  42.641  52.908  1.00  0.00    -0.307 N 
HETATM    9  C   UNL     1      28.781  42.860  53.008  1.00  0.00     0.260 C 
HETATM   10  O   UNL     1      29.638  42.366  52.286  1.00  0.00    -0.267 OA
HETATM   11  H   UNL     1      26.828  42.849  53.706  1.00  0.00     0.170 HD
BRANCH   9  12
HETATM   12  C   UNL     1      29.207  43.692  54.173  1.00  0.00     0.065 A 
HETATM   13  C   UNL     1      28.562  44.904  54.459  1.00  0.00     0.086 A 
HETATM   14  C   UNL     1      28.957  45.688  55.553  1.00  0.00     0.074 A 
HETATM   15  C   UNL     1      30.028  45.287  56.348  1.00  0.00     0.070 A 
HETATM   16  C   UNL     1      30.688  44.092  56.054  1.00  0.00     0.038 A 
HETATM   17  C   UNL     1      30.291  43.301  54.971  1.00  0.00     0.022 A 
BRANCH  13  18
HETATM   18  O   UNL     1      27.466  45.314  53.746  1.00  0.00    -0.355 OA
HETATM   19  C   UNL     1      26.931  46.517  54.306  1.00  0.00     0.210 C 
ENDBRANCH  13  18
BRANCH  15  20
HETATM   20  O   UNL     1      30.520  45.960  57.431  1.00  0.00    -0.356 OA
HETATM   21  C   UNL     1      30.952  45.170  58.534  1.00  0.00     0.210 C 
ENDBRANCH  15  20
ENDBRANCH   9  12
ENDBRANCH   6   8
BRANCH   7  22
HETATM   22  C   UNL     1      25.711  43.636  50.349  1.00  0.00    -0.020 A 
HETATM   23  C   UNL     1      24.354  43.959  50.463  1.00  0.00     0.014 A 
HETATM   24  C   UNL     1      23.913  45.257  50.188  1.00  0.00     0.020 A 
HETATM   25  C   UNL     1      24.830  46.233  49.803  1.00  0.00     0.011 A 
HETATM   26 BR   UNL     1      24.233  47.990  49.437  1.00  0.00    -0.051 Br
HETATM   27  C   UNL     1      26.184  45.927  49.689  1.00  0.00     0.020 A 
HETATM   28  C   UNL     1      26.623  44.631  49.965  1.00  0.00     0.014 A 
ENDBRANCH   7  22
TORSDOF 5
ENDMDL
MODEL 2
REMARK VINA RESULT:      -8.2      3.426      7.532
REMARK  5 active torsions:
REMARK  status: ('A' for Active; 'I' for Inactive)
REMARK    1  A    between atoms: C_6  and  N_7 
REMARK       I    between atoms: N_7  and  C_8 
REMARK    2  A    between atoms: C_8  and  C_9 
REMARK    3  A    between atoms: C_10  and  O_11 
REMARK    4  A    between atoms: C_14  and  O_15 
REMARK    5  A    between atoms: C_20  and  C_21 
ROOT
HETATM    1  C   UNL     1      26.855  48.249  55.506  1.00  0.00     0.073 C 
HETATM    2  C   UNL     1      26.581  47.306  54.392  1.00  0.00     0.065 A 
HETATM    3  N   UNL     1      25.530  47.511  53.587  1.00  0.00    -0.177 NA
HETATM    4  N   UNL     1      25.552  46.454  52.764  1.00  0.00    -0.262 N 
HETATM    5  H   UNL     1      24.838  46.402  52.050  1.00  0.00     0.191 HD
HETATM    6  C   UNL     1      26.613  45.608  52.951  1.00  0.00     0.137 A 
HETATM    7  C   UNL     1      27.285  46.113  54.053  1.00  0.00     0.046 A 
ENDROOT
BRANCH   6   8
HETATM    8  N   UNL     1      26.793  44.513  52.118  1.00  0.00    -0.307 N 
HETATM    9  C   UNL     1      25.742  43.682  51.748  1.00  0.00     0.260 C 
HETATM   10  O   UNL     1      24.605  43.721  52.203  1.00  0.00    -0.267 OA
HETATM   11  H   UNL     1      27.738  44.221  51.912  1.00  0.00     0.170 HD
BRANCH   9  12
HETATM   12  C   UNL     1      26.100  42.595  50.789  1.00  0.00     0.065 A 
HETATM   13  C   UNL     1      27.037  41.612  51.140  1.00  0.00     0.086 A 
HETATM   14  C   UNL     1      27.375  40.588  50.244  1.00  0.00     0.074 A 
HETATM   15  C   UNL     1      26.809  40.558  48.972  1.00  0.00     0.070 A 
HETATM   16  C   UNL     1      25.891  41.546  48.609  1.00  0.00     0.038 A 
HETATM   17  C   UNL     1      25.542  42.564  49.503  1.00  0.00     0.022 A 
BRANCH  13  18
HETATM   18  O   UNL     1      27.579  41.561  52.398  1.00  0.00    -0.355 OA
HETATM   19  C   UNL     1      28.768  40.765  52.394  1.00  0.00     0.210 C 
ENDBRANCH  13  18
BRANCH  15  20
HETATM   20  O   UNL     1      27.058  39.626  48.003  1.00  0.00    -0.356 OA
HETATM   21  C   UNL     1      28.389  39.127  47.922  1.00  0.00     0.210 C 
ENDBRANCH  15  20
ENDBRANCH   9  12
ENDBRANCH   6   8
BRANCH   7  22
HETATM   22  C   UNL     1      28.344  45.449  54.792  1.00  0.00    -0.020 A 
HETATM   23  C   UNL     1      28.761  44.159  54.441  1.00  0.00     0.014 A 
HETATM   24  C   UNL     1      29.817  43.550  55.124  1.00  0.00     0.020 A 
HETATM   25  C   UNL     1      30.460  44.231  56.156  1.00  0.00     0.011 A 
HETATM   26 BR   UNL     1      31.894  43.409  57.074  1.00  0.00    -0.051 Br
HETATM   27  C   UNL     1      30.059  45.516  56.514  1.00  0.00     0.020 A 
HETATM   28  C   UNL     1      29.004  46.124  55.831  1.00  0.00     0.014 A 
ENDBRANCH   7  22
TORSDOF 5
ENDMDL
MODEL 3
REMARK VINA RESULT:      -8.2      2.863      3.777
REMARK  5 active torsions:
REMARK  status: ('A' for Active; 'I' for Inactive)
REMARK    1  A    between atoms: C_6  and  N_7 
REMARK       I    between atoms: N_7  and  C_8 
REMARK    2  A    between atoms: C_8  and  C_9 
REMARK    3  A    between atoms: C_10  and  O_11 
REMARK    4  A    between atoms: C_14  and  O_15 
REMARK    5  A    between atoms: C_20  and  C_21 
ROOT
HETATM    1  C   UNL     1      23.211  42.441  48.862  1.00  0.00     0.073 C 
HETATM    2  C   UNL     1      23.921  42.994  50.042  1.00  0.00     0.065 A 
HETATM    3  N   UNL     1      23.434  44.072  50.670  1.00  0.00    -0.177 NA
HETATM    4  N   UNL     1      24.346  44.325  51.617  1.00  0.00    -0.262 N 
HETATM    5  H   UNL     1      24.177  45.109  52.234  1.00  0.00     0.191 HD
HETATM    6  C   UNL     1      25.370  43.416  51.681  1.00  0.00     0.137 A 
HETATM    7  C   UNL     1      25.148  42.552  50.621  1.00  0.00     0.046 A 
ENDROOT
BRANCH   6   8
HETATM    8  N   UNL     1      26.343  43.522  52.664  1.00  0.00    -0.307 N 
HETATM    9  C   UNL     1      27.608  44.035  52.403  1.00  0.00     0.260 C 
HETATM   10  O   UNL     1      28.052  44.313  51.296  1.00  0.00    -0.267 OA
HETATM   11  H   UNL     1      26.179  43.061  53.548  1.00  0.00     0.170 HD
BRANCH   9  12
HETATM   12  C   UNL     1      28.506  44.145  53.591  1.00  0.00     0.065 A 
HETATM   13  C   UNL     1      28.369  45.209  54.494  1.00  0.00     0.086 A 
HETATM   14  C   UNL     1      29.208  45.315  55.613  1.00  0.00     0.074 A 
HETATM   15  C   UNL     1      30.220  44.380  55.818  1.00  0.00     0.070 A 
HETATM   16  C   UNL     1      30.374  43.330  54.909  1.00  0.00     0.038 A 
HETATM   17  C   UNL     1      29.533  43.213  53.799  1.00  0.00     0.022 A 
BRANCH  13  18
HETATM   18  O   UNL     1      27.354  46.121  54.372  1.00  0.00    -0.355 OA
HETATM   19  C   UNL     1      27.752  47.383  54.919  1.00  0.00     0.210 C 
ENDBRANCH  13  18
BRANCH  15  20
HETATM   20  O   UNL     1      31.109  44.373  56.856  1.00  0.00    -0.356 OA
HETATM   21  C   UNL     1      31.841  43.171  57.064  1.00  0.00     0.210 C 
ENDBRANCH  15  20
ENDBRANCH   9  12
ENDBRANCH   6   8
BRANCH   7  22
HETATM   22  C   UNL     1      26.075  41.554  50.117  1.00  0.00    -0.020 A 
HETATM   23  C   UNL     1      26.061  40.247  50.619  1.00  0.00     0.014 A 
HETATM   24  C   UNL     1      26.920  39.280  50.090  1.00  0.00     0.020 A 
HETATM   25  C   UNL     1      27.791  39.617  49.056  1.00  0.00     0.011 A 
HETATM   26 BR   UNL     1      28.948  38.306  48.336  1.00  0.00    -0.051 Br
HETATM   27  C   UNL     1      27.814  40.913  48.544  1.00  0.00     0.020 A 
HETATM   28  C   UNL     1      26.955  41.878  49.072  1.00  0.00     0.014 A 
ENDBRANCH   7  22
TORSDOF 5
ENDMDL
MODEL 4
REMARK VINA RESULT:      -8.1      1.426      1.871
REMARK  5 active torsions:
REMARK  status: ('A' for Active; 'I' for Inactive)
REMARK    1  A    between atoms: C_6  and  N_7 
REMARK       I    between atoms: N_7  and  C_8 
REMARK    2  A    between atoms: C_8  and  C_9 
REMARK    3  A    between atoms: C_10  and  O_11 
REMARK    4  A    between atoms: C_14  and  O_15 
REMARK    5  A    between atoms: C_20  and  C_21 
ROOT
HETATM    1  C   UNL     1      27.514  39.646  48.684  1.00  0.00     0.073 C 
HETATM    2  C   UNL     1      27.989  40.114  50.010  1.00  0.00     0.065 A 
HETATM    3  N   UNL     1      28.824  39.351  50.728  1.00  0.00    -0.177 NA
HETATM    4  N   UNL     1      28.980  40.039  51.867  1.00  0.00    -0.262 N 
HETATM    5  H   UNL     1      29.592  39.647  52.571  1.00  0.00     0.191 HD
HETATM    6  C   UNL     1      28.339  41.250  51.894  1.00  0.00     0.137 A 
HETATM    7  C   UNL     1      27.633  41.309  50.703  1.00  0.00     0.046 A 
ENDROOT
BRANCH   6   8
HETATM    8  N   UNL     1      28.477  42.093  52.987  1.00  0.00    -0.307 N 
HETATM    9  C   UNL     1      29.571  42.937  53.140  1.00  0.00     0.260 C 
HETATM   10  O   UNL     1      30.575  42.940  52.437  1.00  0.00    -0.267 OA
HETATM   11  H   UNL     1      27.849  41.967  53.768  1.00  0.00     0.170 HD
BRANCH   9  12
HETATM   12  C   UNL     1      29.523  43.829  54.336  1.00  0.00     0.065 A 
HETATM   13  C   UNL     1      28.496  44.771  54.484  1.00  0.00     0.086 A 
HETATM   14  C   UNL     1      28.444  45.610  55.607  1.00  0.00     0.074 A 
HETATM   15  C   UNL     1      29.443  45.541  56.575  1.00  0.00     0.070 A 
HETATM   16  C   UNL     1      30.481  44.618  56.422  1.00  0.00     0.038 A 
HETATM   17  C   UNL     1      30.531  43.773  55.310  1.00  0.00     0.022 A 
BRANCH  13  18
HETATM   18  O   UNL     1      27.457  44.839  53.592  1.00  0.00    -0.355 OA
HETATM   19  C   UNL     1      26.208  44.684  54.273  1.00  0.00     0.210 C 
ENDBRANCH  13  18
BRANCH  15  20
HETATM   20  O   UNL     1      29.519  46.304  57.707  1.00  0.00    -0.356 OA
HETATM   21  C   UNL     1      30.674  46.131  58.520  1.00  0.00     0.210 C 
ENDBRANCH  15  20
ENDBRANCH   9  12
ENDBRANCH   6   8
BRANCH   7  22
HETATM   22  C   UNL     1      26.614  42.285  50.355  1.00  0.00    -0.020 A 
HETATM   23  C   UNL     1      26.972  43.562  49.909  1.00  0.00     0.014 A 
HETATM   24  C   UNL     1      25.986  44.476  49.525  1.00  0.00     0.020 A 
HETATM   25  C   UNL     1      24.642  44.111  49.583  1.00  0.00     0.011 A 
HETATM   26 BR   UNL     1      23.310  45.345  49.057  1.00  0.00    -0.051 Br
HETATM   27  C   UNL     1      24.272  42.842  50.022  1.00  0.00     0.020 A 
HETATM   28  C   UNL     1      25.257  41.929  50.404  1.00  0.00     0.014 A 
ENDBRANCH   7  22
TORSDOF 5
ENDMDL
MODEL 5
REMARK VINA RESULT:      -7.7      2.147      2.610
REMARK  5 active torsions:
REMARK  status: ('A' for Active; 'I' for Inactive)
REMARK    1  A    between atoms: C_6  and  N_7 
REMARK       I    between atoms: N_7  and  C_8 
REMARK    2  A    between atoms: C_8  and  C_9 
REMARK    3  A    between atoms: C_10  and  O_11 
REMARK    4  A    between atoms: C_14  and  O_15 
REMARK    5  A    between atoms: C_20  and  C_21 
ROOT
HETATM    1  C   UNL     1      27.416  38.154  48.561  1.00  0.00     0.073 C 
HETATM    2  C   UNL     1      28.056  38.943  49.644  1.00  0.00     0.065 A 
HETATM    3  N   UNL     1      29.092  38.429  50.321  1.00  0.00    -0.177 NA
HETATM    4  N   UNL     1      29.361  39.364  51.243  1.00  0.00    -0.262 N 
HETATM    5  H   UNL     1      30.130  39.189  51.876  1.00  0.00     0.191 HD
HETATM    6  C   UNL     1      28.592  40.494  51.150  1.00  0.00     0.137 A 
HETATM    7  C   UNL     1      27.685  40.229  50.136  1.00  0.00     0.046 A 
ENDROOT
BRANCH   6   8
HETATM    8  N   UNL     1      28.817  41.567  51.999  1.00  0.00    -0.307 N 
HETATM    9  C   UNL     1      28.590  41.490  53.368  1.00  0.00     0.260 C 
HETATM   10  O   UNL     1      28.052  40.557  53.952  1.00  0.00    -0.267 OA
HETATM   11  H   UNL     1      28.991  42.473  51.587  1.00  0.00     0.170 HD
BRANCH   9  12
HETATM   12  C   UNL     1      28.953  42.715  54.143  1.00  0.00     0.065 A 
HETATM   13  C   UNL     1      28.104  43.831  54.152  1.00  0.00     0.086 A 
HETATM   14  C   UNL     1      28.439  44.983  54.880  1.00  0.00     0.074 A 
HETATM   15  C   UNL     1      29.646  45.044  55.572  1.00  0.00     0.070 A 
HETATM   16  C   UNL     1      30.505  43.942  55.548  1.00  0.00     0.038 A 
HETATM   17  C   UNL     1      30.171  42.788  54.834  1.00  0.00     0.022 A 
BRANCH  13  18
HETATM   18  O   UNL     1      26.880  43.801  53.538  1.00  0.00    -0.355 OA
HETATM   19  C   UNL     1      25.834  43.888  54.511  1.00  0.00     0.210 C 
ENDBRANCH  13  18
BRANCH  15  20
HETATM   20  O   UNL     1      30.097  46.104  56.308  1.00  0.00    -0.356 OA
HETATM   21  C   UNL     1      30.074  45.957  57.724  1.00  0.00     0.210 C 
ENDBRANCH  15  20
ENDBRANCH   9  12
ENDBRANCH   6   8
BRANCH   7  22
HETATM   22  C   UNL     1      26.510  41.017  49.807  1.00  0.00    -0.020 A 
HETATM   23  C   UNL     1      25.723  41.583  50.816  1.00  0.00     0.014 A 
HETATM   24  C   UNL     1      24.626  42.385  50.488  1.00  0.00     0.020 A 
HETATM   25  C   UNL     1      24.318  42.624  49.150  1.00  0.00     0.011 A 
HETATM   26 BR   UNL     1      22.838  43.714  48.707  1.00  0.00    -0.051 Br
HETATM   27  C   UNL     1      25.094  42.070  48.135  1.00  0.00     0.020 A 
HETATM   28  C   UNL     1      26.190  41.271  48.463  1.00  0.00     0.014 A 
ENDBRANCH   7  22
TORSDOF 5
ENDMDL
MODEL 6
REMARK VINA RESULT:      -7.7      3.325      6.840
REMARK  5 active torsions:
REMARK  status: ('A' for Active; 'I' for Inactive)
REMARK    1  A    between atoms: C_6  and  N_7 
REMARK       I    between atoms: N_7  and  C_8 
REMARK    2  A    between atoms: C_8  and  C_9 
REMARK    3  A    between atoms: C_10  and  O_11 
REMARK    4  A    between atoms: C_14  and  O_15 
REMARK    5  A    between atoms: C_20  and  C_21 
ROOT
HETATM    1  C   UNL     1      28.781  40.576  52.707  1.00  0.00     0.073 C 
HETATM    2  C   UNL     1      27.974  41.567  51.950  1.00  0.00     0.065 A 
HETATM    3  N   UNL     1      27.499  41.254  50.737  1.00  0.00    -0.177 NA
HETATM    4  N   UNL     1      26.896  42.381  50.335  1.00  0.00    -0.262 N 
HETATM    5  H   UNL     1      26.448  42.374  49.428  1.00  0.00     0.191 HD
HETATM    6  C   UNL     1      26.895  43.390  51.262  1.00  0.00     0.137 A 
HETATM    7  C   UNL     1      27.644  42.904  52.322  1.00  0.00     0.046 A 
ENDROOT
BRANCH   6   8
HETATM    8  N   UNL     1      26.242  44.585  50.998  1.00  0.00    -0.307 N 
HETATM    9  C   UNL     1      26.633  45.434  49.969  1.00  0.00     0.260 C 
HETATM   10  O   UNL     1      27.645  45.312  49.289  1.00  0.00    -0.267 OA
HETATM   11  H   UNL     1      25.571  44.921  51.675  1.00  0.00     0.170 HD
BRANCH   9  12
HETATM   12  C   UNL     1      25.775  46.641  49.780  1.00  0.00     0.065 A 
HETATM   13  C   UNL     1      24.378  46.524  49.734  1.00  0.00     0.086 A 
HETATM   14  C   UNL     1      23.567  47.654  49.559  1.00  0.00     0.074 A 
HETATM   15  C   UNL     1      24.147  48.909  49.388  1.00  0.00     0.070 A 
HETATM   16  C   UNL     1      25.538  49.029  49.413  1.00  0.00     0.038 A 
HETATM   17  C   UNL     1      26.351  47.906  49.598  1.00  0.00     0.022 A 
BRANCH  13  18
HETATM   18  O   UNL     1      23.756  45.323  49.955  1.00  0.00    -0.355 OA
HETATM   19  C   UNL     1      23.414  44.704  48.711  1.00  0.00     0.210 C 
ENDBRANCH  13  18
BRANCH  15  20
HETATM   20  O   UNL     1      23.475  50.085  49.199  1.00  0.00    -0.356 OA
HETATM   21  C   UNL     1      23.523  50.646  47.892  1.00  0.00     0.210 C 
ENDBRANCH  15  20
ENDBRANCH   9  12
ENDBRANCH   6   8
BRANCH   7  22
HETATM   22  C   UNL     1      28.132  43.673  53.453  1.00  0.00    -0.020 A 
HETATM   23  C   UNL     1      27.293  44.573  54.121  1.00  0.00     0.014 A 
HETATM   24  C   UNL     1      27.755  45.268  55.242  1.00  0.00     0.020 A 
HETATM   25  C   UNL     1      29.056  45.061  55.698  1.00  0.00     0.011 A 
HETATM   26 BR   UNL     1      29.678  45.996  57.219  1.00  0.00    -0.051 Br
HETATM   27  C   UNL     1      29.901  44.166  55.046  1.00  0.00     0.020 A 
HETATM   28  C   UNL     1      29.438  43.472  53.927  1.00  0.00     0.014 A 
ENDBRANCH   7  22
TORSDOF 5
ENDMDL
MODEL 7
REMARK VINA RESULT:      -7.7      3.515      7.366
REMARK  5 active torsions:
REMARK  status: ('A' for Active; 'I' for Inactive)
REMARK    1  A    between atoms: C_6  and  N_7 
REMARK       I    between atoms: N_7  and  C_8 
REMARK    2  A    between atoms: C_8  and  C_9 
REMARK    3  A    between atoms: C_10  and  O_11 
REMARK    4  A    between atoms: C_14  and  O_15 
REMARK    5  A    between atoms: C_20  and  C_21 
ROOT
HETATM    1  C   UNL     1      27.142  48.400  55.023  1.00  0.00     0.073 C 
HETATM    2  C   UNL     1      26.688  47.258  54.189  1.00  0.00     0.065 A 
HETATM    3  N   UNL     1      25.545  47.351  53.497  1.00  0.00    -0.177 NA
HETATM    4  N   UNL     1      25.420  46.142  52.932  1.00  0.00    -0.262 N 
HETATM    5  H   UNL     1      24.614  45.982  52.342  1.00  0.00     0.191 HD
HETATM    6  C   UNL     1      26.467  45.291  53.168  1.00  0.00     0.137 A 
HETATM    7  C   UNL     1      27.299  45.978  54.038  1.00  0.00     0.046 A 
ENDROOT
BRANCH   6   8
HETATM    8  N   UNL     1      26.496  44.034  52.583  1.00  0.00    -0.307 N 
HETATM    9  C   UNL     1      26.843  43.843  51.251  1.00  0.00     0.260 C 
HETATM   10  O   UNL     1      27.019  44.731  50.424  1.00  0.00    -0.267 OA
HETATM   11  H   UNL     1      26.095  43.260  53.095  1.00  0.00     0.170 HD
BRANCH   9  12
HETATM   12  C   UNL     1      26.893  42.419  50.804  1.00  0.00     0.065 A 
HETATM   13  C   UNL     1      25.813  41.849  50.114  1.00  0.00     0.086 A 
HETATM   14  C   UNL     1      25.856  40.513  49.690  1.00  0.00     0.074 A 
HETATM   15  C   UNL     1      26.963  39.721  49.988  1.00  0.00     0.070 A 
HETATM   16  C   UNL     1      28.031  40.278  50.694  1.00  0.00     0.038 A 
HETATM   17  C   UNL     1      27.999  41.613  51.109  1.00  0.00     0.022 A 
BRANCH  13  18
HETATM   18  O   UNL     1      24.728  42.600  49.743  1.00  0.00    -0.355 OA
HETATM   19  C   UNL     1      24.089  42.018  48.603  1.00  0.00     0.210 C 
ENDBRANCH  13  18
BRANCH  15  20
HETATM   20  O   UNL     1      27.126  38.408  49.645  1.00  0.00    -0.356 OA
HETATM   21  C   UNL     1      28.459  37.909  49.641  1.00  0.00     0.210 C 
ENDBRANCH  15  20
ENDBRANCH   9  12
ENDBRANCH   6   8
BRANCH   7  22
HETATM   22  C   UNL     1      28.426  45.424  54.768  1.00  0.00    -0.020 A 
HETATM   23  C   UNL     1      28.866  46.014  55.959  1.00  0.00     0.014 A 
HETATM   24  C   UNL     1      29.915  45.441  56.683  1.00  0.00     0.020 A 
HETATM   25  C   UNL     1      30.523  44.276  56.218  1.00  0.00     0.011 A 
HETATM   26 BR   UNL     1      31.939  43.499  57.202  1.00  0.00    -0.051 Br
HETATM   27  C   UNL     1      30.094  43.676  55.037  1.00  0.00     0.020 A 
HETATM   28  C   UNL     1      29.045  44.248  54.315  1.00  0.00     0.014 A 
ENDBRANCH   7  22
TORSDOF 5
ENDMDL
MODEL 8
REMARK VINA RESULT:      -7.6      3.016      4.303
REMARK  5 active torsions:
REMARK  status: ('A' for Active; 'I' for Inactive)
REMARK    1  A    between atoms: C_6  and  N_7 
REMARK       I    between atoms: N_7  and  C_8 
REMARK    2  A    between atoms: C_8  and  C_9 
REMARK    3  A    between atoms: C_10  and  O_11 
REMARK    4  A    between atoms: C_14  and  O_15 
REMARK    5  A    between atoms: C_20  and  C_21 
ROOT
HETATM    1  C   UNL     1      23.030  41.607  48.420  1.00  0.00     0.073 C 
HETATM    2  C   UNL     1      23.691  42.506  49.400  1.00  0.00     0.065 A 
HETATM    3  N   UNL     1      23.075  43.627  49.798  1.00  0.00    -0.177 NA
HETATM    4  N   UNL     1      23.971  44.210  50.605  1.00  0.00    -0.262 N 
HETATM    5  H   UNL     1      23.712  45.086  51.038  1.00  0.00     0.191 HD
HETATM    6  C   UNL     1      25.114  43.482  50.807  1.00  0.00     0.137 A 
HETATM    7  C   UNL     1      24.985  42.374  49.985  1.00  0.00     0.046 A 
ENDROOT
BRANCH   6   8
HETATM    8  N   UNL     1      26.092  43.939  51.678  1.00  0.00    -0.307 N 
HETATM    9  C   UNL     1      25.816  44.257  53.003  1.00  0.00     0.260 C 
HETATM   10  O   UNL     1      24.701  44.310  53.508  1.00  0.00    -0.267 OA
HETATM   11  H   UNL     1      26.989  44.202  51.293  1.00  0.00     0.170 HD
BRANCH   9  12
HETATM   12  C   UNL     1      26.999  44.663  53.819  1.00  0.00     0.065 A 
HETATM   13  C   UNL     1      28.021  43.744  54.102  1.00  0.00     0.086 A 
HETATM   14  C   UNL     1      29.136  44.120  54.865  1.00  0.00     0.074 A 
HETATM   15  C   UNL     1      29.221  45.409  55.388  1.00  0.00     0.070 A 
HETATM   16  C   UNL     1      28.196  46.321  55.126  1.00  0.00     0.038 A 
HETATM   17  C   UNL     1      27.088  45.954  54.357  1.00  0.00     0.022 A 
BRANCH  13  18
HETATM   18  O   UNL     1      28.015  42.483  53.564  1.00  0.00    -0.355 OA
HETATM   19  C   UNL     1      29.195  42.273  52.781  1.00  0.00     0.210 C 
ENDBRANCH  13  18
BRANCH  15  20
HETATM   20  O   UNL     1      30.242  45.899  56.153  1.00  0.00    -0.356 OA
HETATM   21  C   UNL     1      30.670  45.092  57.244  1.00  0.00     0.210 C 
ENDBRANCH  15  20
ENDBRANCH   9  12
ENDBRANCH   6   8
BRANCH   7  22
HETATM   22  C   UNL     1      26.028  41.417  49.662  1.00  0.00    -0.020 A 
HETATM   23  C   UNL     1      26.130  40.208  50.360  1.00  0.00     0.014 A 
HETATM   24  C   UNL     1      27.103  39.270  50.005  1.00  0.00     0.020 A 
HETATM   25  C   UNL     1      27.973  39.538  48.950  1.00  0.00     0.011 A 
HETATM   26 BR   UNL     1      29.285  38.264  48.467  1.00  0.00    -0.051 Br
HETATM   27  C   UNL     1      27.881  40.735  48.244  1.00  0.00     0.020 A 
HETATM   28  C   UNL     1      26.908  41.671  48.598  1.00  0.00     0.014 A 
ENDBRANCH   7  22
TORSDOF 5
ENDMDL
MODEL 9
REMARK VINA RESULT:      -7.4      3.084      6.459
REMARK  5 active torsions:
REMARK  status: ('A' for Active; 'I' for Inactive)
REMARK    1  A    between atoms: C_6  and  N_7 
REMARK       I    between atoms: N_7  and  C_8 
REMARK    2  A    between atoms: C_8  and  C_9 
REMARK    3  A    between atoms: C_10  and  O_11 
REMARK    4  A    between atoms: C_14  and  O_15 
REMARK    5  A    between atoms: C_20  and  C_21 
ROOT
HETATM    1  C   UNL     1      29.133  39.614  51.900  1.00  0.00     0.073 C 
HETATM    2  C   UNL     1      28.317  40.576  51.117  1.00  0.00     0.065 A 
HETATM    3  N   UNL     1      27.845  40.226  49.913  1.00  0.00    -0.177 NA
HETATM    4  N   UNL     1      27.231  41.335  49.480  1.00  0.00    -0.262 N 
HETATM    5  H   UNL     1      26.783  41.300  48.574  1.00  0.00     0.191 HD
HETATM    6  C   UNL     1      27.219  42.369  50.380  1.00  0.00     0.137 A 
HETATM    7  C   UNL     1      27.973  41.919  51.452  1.00  0.00     0.046 A 
ENDROOT
BRANCH   6   8
HETATM    8  N   UNL     1      26.554  43.549  50.084  1.00  0.00    -0.307 N 
HETATM    9  C   UNL     1      25.251  43.792  50.505  1.00  0.00     0.260 C 
HETATM   10  O   UNL     1      24.509  42.976  51.039  1.00  0.00    -0.267 OA
HETATM   11  H   UNL     1      26.969  44.175  49.409  1.00  0.00     0.170 HD
BRANCH   9  12
HETATM   12  C   UNL     1      24.714  45.142  50.162  1.00  0.00     0.065 A 
HETATM   13  C   UNL     1      25.219  46.291  50.787  1.00  0.00     0.086 A 
HETATM   14  C   UNL     1      24.720  47.562  50.467  1.00  0.00     0.074 A 
HETATM   15  C   UNL     1      23.682  47.693  49.548  1.00  0.00     0.070 A 
HETATM   16  C   UNL     1      23.160  46.550  48.938  1.00  0.00     0.038 A 
HETATM   17  C   UNL     1      23.662  45.282  49.245  1.00  0.00     0.022 A 
BRANCH  13  18
HETATM   18  O   UNL     1      26.280  46.224  51.653  1.00  0.00    -0.355 OA
HETATM   19  C   UNL     1      25.963  46.894  52.878  1.00  0.00     0.210 C 
ENDBRANCH  13  18
BRANCH  15  20
HETATM   20  O   UNL     1      23.099  48.867  49.157  1.00  0.00    -0.356 OA
HETATM   21  C   UNL     1      23.972  49.894  48.699  1.00  0.00     0.210 C 
ENDBRANCH  15  20
ENDBRANCH   9  12
ENDBRANCH   6   8
BRANCH   7  22
HETATM   22  C   UNL     1      28.453  42.723  52.563  1.00  0.00    -0.020 A 
HETATM   23  C   UNL     1      27.555  43.401  53.395  1.00  0.00     0.014 A 
HETATM   24  C   UNL     1      28.023  44.128  54.493  1.00  0.00     0.020 A 
HETATM   25  C   UNL     1      29.390  44.174  54.762  1.00  0.00     0.011 A 
HETATM   26 BR   UNL     1      30.022  45.152  56.252  1.00  0.00    -0.051 Br
HETATM   27  C   UNL     1      30.295  43.502  53.944  1.00  0.00     0.020 A 
HETATM   28  C   UNL     1      29.827  42.775  52.848  1.00  0.00     0.014 A 
ENDBRANCH   7  22
TORSDOF 5
ENDMDL
MODEL 10
REMARK VINA RESULT:      -7.4      2.880      4.322
REMARK  5 active torsions:
REMARK  status: ('A' for Active; 'I' for Inactive)
REMARK    1  A    between atoms: C_6  and  N_7 
REMARK       I    between atoms: N_7  and  C_8 
REMARK    2  A    between atoms: C_8  and  C_9 
REMARK    3  A    between atoms: C_10  and  O_11 
REMARK    4  A    between atoms: C_14  and  O_15 
REMARK    5  A    between atoms: C_20  and  C_21 
ROOT
HETATM    1  C   UNL     1      29.343  37.919  48.987  1.00  0.00     0.073 C 
HETATM    2  C   UNL     1      29.061  38.935  50.033  1.00  0.00     0.065 A 
HETATM    3  N   UNL     1      29.623  38.821  51.243  1.00  0.00    -0.177 NA
HETATM    4  N   UNL     1      29.102  39.846  51.930  1.00  0.00    -0.262 N 
HETATM    5  H   UNL     1      29.398  39.965  52.890  1.00  0.00     0.191 HD
HETATM    6  C   UNL     1      28.281  40.664  51.200  1.00  0.00     0.137 A 
HETATM    7  C   UNL     1      28.191  40.062  49.955  1.00  0.00     0.046 A 
ENDROOT
BRANCH   6   8
HETATM    8  N   UNL     1      27.734  41.803  51.773  1.00  0.00    -0.307 N 
HETATM    9  C   UNL     1      28.519  42.794  52.350  1.00  0.00     0.260 C 
HETATM   10  O   UNL     1      29.726  42.726  52.545  1.00  0.00    -0.267 OA
HETATM   11  H   UNL     1      26.734  41.829  51.919  1.00  0.00     0.170 HD
BRANCH   9  12
HETATM   12  C   UNL     1      27.771  43.984  52.854  1.00  0.00     0.065 A 
HETATM   13  C   UNL     1      26.881  44.675  52.018  1.00  0.00     0.086 A 
HETATM   14  C   UNL     1      26.173  45.791  52.487  1.00  0.00     0.074 A 
HETATM   15  C   UNL     1      26.379  46.253  53.785  1.00  0.00     0.070 A 
HETATM   16  C   UNL     1      27.280  45.581  54.615  1.00  0.00     0.038 A 
HETATM   17  C   UNL     1      27.979  44.461  54.156  1.00  0.00     0.022 A 
BRANCH  13  18
HETATM   18  O   UNL     1      26.598  44.228  50.753  1.00  0.00    -0.355 OA
HETATM   19  C   UNL     1      26.857  45.258  49.794  1.00  0.00     0.210 C 
ENDBRANCH  13  18
BRANCH  15  20
HETATM   20  O   UNL     1      25.766  47.330  54.361  1.00  0.00    -0.356 OA
HETATM   21  C   UNL     1      26.527  48.068  55.311  1.00  0.00     0.210 C 
ENDBRANCH  15  20
ENDBRANCH   9  12
ENDBRANCH   6   8
BRANCH   7  22
HETATM   22  C   UNL     1      27.260  40.413  48.896  1.00  0.00    -0.020 A 
HETATM   23  C   UNL     1      27.720  40.699  47.606  1.00  0.00     0.014 A 
HETATM   24  C   UNL     1      26.812  40.982  46.581  1.00  0.00     0.020 A 
HETATM   25  C   UNL     1      25.444  40.974  46.845  1.00  0.00     0.011 A 
HETATM   26 BR   UNL     1      24.217  41.350  45.457  1.00  0.00    -0.051 Br
HETATM   27  C   UNL     1      24.972  40.688  48.124  1.00  0.00     0.020 A 
HETATM   28  C   UNL     1      25.878  40.404  49.146  1.00  0.00     0.014 A 
ENDBRANCH   7  22
TORSDOF 5
ENDMDL
