MODEL 1
REMARK VINA RESULT:     -10.9      0.000      0.000
REMARK  6 active torsions:
REMARK  status: ('A' for Active; 'I' for Inactive)
REMARK    1  A    between atoms: C_9  and  O_10 
REMARK    2  A    between atoms: O_10  and  C_11 
REMARK    3  A    between atoms: C_11  and  C_12 
REMARK       I    between atoms: C_12  and  N_13 
REMARK    4  A    between atoms: N_13  and  C_14 
REMARK    5  A    between atoms: N_15  and  C_16 
REMARK    6  A    between atoms: C_27  and  C_28 
ROOT
HETATM    1  C   UNL     1      24.981  45.922  50.376  1.00  0.00     0.152 A 
HETATM    2  N   UNL     1      24.195  45.449  49.333  1.00  0.00    -0.044 N 
HETATM    3  N   UNL     1      23.452  46.441  48.748  1.00  0.00    -0.150 NA
HETATM    4  C   UNL     1      23.783  47.546  49.425  1.00  0.00     0.099 A 
HETATM    5  C   UNL     1      24.701  47.269  50.459  1.00  0.00     0.086 A 
ENDROOT
BRANCH   1   6
HETATM    6  N   UNL     1      25.863  45.124  51.097  1.00  0.00    -0.309 N 
HETATM    7  C   UNL     1      25.463  44.386  52.197  1.00  0.00     0.247 C 
HETATM    8  O   UNL     1      24.300  44.234  52.573  1.00  0.00    -0.271 OA
HETATM    9  H   UNL     1      26.845  45.091  50.810  1.00  0.00     0.170 HD
BRANCH   7  10
HETATM   10  C   UNL     1      26.614  43.843  53.042  1.00  0.00     0.278 C 
BRANCH  10  11
HETATM   11  O   UNL     1      27.847  44.529  52.877  1.00  0.00    -0.342 OA
BRANCH  11  12
HETATM   12  C   UNL     1      28.769  44.291  53.869  1.00  0.00     0.070 A 
HETATM   13  C   UNL     1      29.726  43.273  53.852  1.00  0.00     0.037 A 
HETATM   14  C   UNL     1      30.629  43.132  54.910  1.00  0.00     0.015 A 
HETATM   15  C   UNL     1      30.590  44.002  56.007  1.00  0.00    -0.026 A 
HETATM   16  C   UNL     1      31.501  43.875  57.067  1.00  0.00     0.012 A 
HETATM   17  C   UNL     1      29.616  45.026  56.040  1.00  0.00    -0.023 A 
HETATM   18  C   UNL     1      31.457  44.749  58.152  1.00  0.00     0.001 A 
HETATM   19  C   UNL     1      30.500  45.759  58.190  1.00  0.00     0.001 A 
HETATM   20  C   UNL     1      29.585  45.896  57.143  1.00  0.00     0.012 A 
HETATM   21  C   UNL     1      28.710  45.151  54.969  1.00  0.00     0.049 A 
ENDBRANCH  11  12
ENDBRANCH  10  11
ENDBRANCH   7  10
ENDBRANCH   1   6
BRANCH   2  22
HETATM   22  C   UNL     1      24.097  44.140  48.824  1.00  0.00     0.732 A 
HETATM   23  N   UNL     1      25.040  43.250  48.927  1.00  0.00    -0.067 NA
HETATM   24  C   UNL     1      24.728  42.045  48.357  1.00  0.00     0.065 A 
HETATM   25  C   UNL     1      23.585  41.738  47.743  1.00  0.00     0.036 A 
HETATM   26  C   UNL     1      25.664  40.883  48.357  1.00  0.00     0.061 C 
HETATM   27  C   UNL     1      23.538  40.351  47.228  1.00  0.00     0.047 C 
HETATM   28  C   UNL     1      22.535  42.749  47.636  1.00  0.00     0.268 A 
HETATM   29  C   UNL     1      25.008  39.930  47.345  1.00  0.00     0.011 C 
HETATM   30  O   UNL     1      21.464  42.537  47.088  1.00  0.00    -0.267 OA
HETATM   31  N   UNL     1      22.879  43.939  48.210  1.00  0.00    -0.152 N 
HETATM   32  H   UNL     1      22.213  44.705  48.184  1.00  0.00     0.188 HD
ENDBRANCH   2  22
BRANCH   4  33
HETATM   33  C   UNL     1      23.234  48.896  49.064  1.00  0.00     0.035 A 
HETATM   34  S   UNL     1      21.580  49.321  49.161  1.00  0.00    -0.100 SA
HETATM   35  C   UNL     1      21.892  50.920  48.639  1.00  0.00     0.050 A 
HETATM   36  C   UNL     1      23.229  51.127  48.386  1.00  0.00     0.008 A 
HETATM   37  C   UNL     1      24.006  49.955  48.630  1.00  0.00     0.022 A 
ENDBRANCH   4  33
TORSDOF 6
ENDMDL
MODEL 2
REMARK VINA RESULT:     -10.7      3.032      6.112
REMARK  6 active torsions:
REMARK  status: ('A' for Active; 'I' for Inactive)
REMARK    1  A    between atoms: C_9  and  O_10 
REMARK    2  A    between atoms: O_10  and  C_11 
REMARK    3  A    between atoms: C_11  and  C_12 
REMARK       I    between atoms: C_12  and  N_13 
REMARK    4  A    between atoms: N_13  and  C_14 
REMARK    5  A    between atoms: N_15  and  C_16 
REMARK    6  A    between atoms: C_27  and  C_28 
ROOT
HETATM    1  C   UNL     1      27.096  43.584  51.428  1.00  0.00     0.152 A 
HETATM    2  N   UNL     1      26.882  44.142  50.174  1.00  0.00    -0.044 N 
HETATM    3  N   UNL     1      26.976  43.215  49.168  1.00  0.00    -0.150 NA
HETATM    4  C   UNL     1      27.243  42.066  49.800  1.00  0.00     0.099 A 
HETATM    5  C   UNL     1      27.356  42.251  51.193  1.00  0.00     0.086 A 
ENDROOT
BRANCH   1   6
HETATM    6  N   UNL     1      27.005  44.303  52.614  1.00  0.00    -0.309 N 
HETATM    7  C   UNL     1      25.790  44.652  53.178  1.00  0.00     0.247 C 
HETATM    8  O   UNL     1      24.686  44.264  52.796  1.00  0.00    -0.271 OA
HETATM    9  H   UNL     1      27.868  44.595  53.081  1.00  0.00     0.170 HD
BRANCH   7  10
HETATM   10  C   UNL     1      25.887  45.703  54.281  1.00  0.00     0.278 C 
BRANCH  10  11
HETATM   11  O   UNL     1      27.081  46.473  54.265  1.00  0.00    -0.342 OA
BRANCH  11  12
HETATM   12  C   UNL     1      27.964  46.180  55.278  1.00  0.00     0.070 A 
HETATM   13  C   UNL     1      27.961  46.767  56.545  1.00  0.00     0.037 A 
HETATM   14  C   UNL     1      28.898  46.380  57.507  1.00  0.00     0.015 A 
HETATM   15  C   UNL     1      29.859  45.402  57.220  1.00  0.00    -0.026 A 
HETATM   16  C   UNL     1      30.795  44.999  58.185  1.00  0.00     0.012 A 
HETATM   17  C   UNL     1      29.879  44.813  55.936  1.00  0.00    -0.023 A 
HETATM   18  C   UNL     1      31.745  44.021  57.890  1.00  0.00     0.001 A 
HETATM   19  C   UNL     1      31.770  43.438  56.628  1.00  0.00     0.001 A 
HETATM   20  C   UNL     1      30.845  43.831  55.656  1.00  0.00     0.012 A 
HETATM   21  C   UNL     1      28.932  45.218  54.976  1.00  0.00     0.049 A 
ENDBRANCH  11  12
ENDBRANCH  10  11
ENDBRANCH   7  10
ENDBRANCH   1   6
BRANCH   2  22
HETATM   22  C   UNL     1      26.576  45.474  49.840  1.00  0.00     0.732 A 
HETATM   23  N   UNL     1      27.471  46.373  49.549  1.00  0.00    -0.067 NA
HETATM   24  C   UNL     1      26.945  47.603  49.258  1.00  0.00     0.065 A 
HETATM   25  C   UNL     1      25.651  47.923  49.248  1.00  0.00     0.036 A 
HETATM   26  C   UNL     1      27.790  48.779  48.899  1.00  0.00     0.061 C 
HETATM   27  C   UNL     1      25.388  49.335  48.892  1.00  0.00     0.047 C 
HETATM   28  C   UNL     1      24.658  46.902  49.578  1.00  0.00     0.268 A 
HETATM   29  C   UNL     1      26.792  49.944  48.996  1.00  0.00     0.011 C 
HETATM   30  O   UNL     1      23.457  47.125  49.589  1.00  0.00    -0.267 OA
HETATM   31  N   UNL     1      25.215  45.689  49.867  1.00  0.00    -0.152 N 
HETATM   32  H   UNL     1      24.603  44.916  50.110  1.00  0.00     0.188 HD
ENDBRANCH   2  22
BRANCH   4  33
HETATM   33  C   UNL     1      27.367  40.764  49.064  1.00  0.00     0.035 A 
HETATM   34  S   UNL     1      26.562  39.322  49.512  1.00  0.00    -0.100 SA
HETATM   35  C   UNL     1      27.220  38.464  48.186  1.00  0.00     0.050 A 
HETATM   36  C   UNL     1      28.044  39.255  47.419  1.00  0.00     0.008 A 
HETATM   37  C   UNL     1      28.132  40.586  47.929  1.00  0.00     0.022 A 
ENDBRANCH   4  33
TORSDOF 6
ENDMDL
MODEL 3
REMARK VINA RESULT:     -10.7      2.510      3.694
REMARK  6 active torsions:
REMARK  status: ('A' for Active; 'I' for Inactive)
REMARK    1  A    between atoms: C_9  and  O_10 
REMARK    2  A    between atoms: O_10  and  C_11 
REMARK    3  A    between atoms: C_11  and  C_12 
REMARK       I    between atoms: C_12  and  N_13 
REMARK    4  A    between atoms: N_13  and  C_14 
REMARK    5  A    between atoms: N_15  and  C_16 
REMARK    6  A    between atoms: C_27  and  C_28 
ROOT
HETATM    1  C   UNL     1      25.540  46.683  51.234  1.00  0.00     0.152 A 
HETATM    2  N   UNL     1      25.422  45.427  50.653  1.00  0.00    -0.044 N 
HETATM    3  N   UNL     1      24.432  45.382  49.706  1.00  0.00    -0.150 NA
HETATM    4  C   UNL     1      23.932  46.624  49.688  1.00  0.00     0.099 A 
HETATM    5  C   UNL     1      24.565  47.453  50.636  1.00  0.00     0.086 A 
ENDROOT
BRANCH   1   6
HETATM    6  N   UNL     1      26.503  47.002  52.185  1.00  0.00    -0.309 N 
HETATM    7  C   UNL     1      26.269  46.882  53.545  1.00  0.00     0.247 C 
HETATM    8  O   UNL     1      25.277  46.364  54.057  1.00  0.00    -0.271 OA
HETATM    9  H   UNL     1      27.412  47.349  51.869  1.00  0.00     0.170 HD
BRANCH   7  10
HETATM   10  C   UNL     1      27.306  47.578  54.424  1.00  0.00     0.278 C 
BRANCH  10  11
HETATM   11  O   UNL     1      27.150  47.354  55.818  1.00  0.00    -0.342 OA
BRANCH  11  12
HETATM   12  C   UNL     1      28.165  46.629  56.397  1.00  0.00     0.070 A 
HETATM   13  C   UNL     1      28.596  46.762  57.719  1.00  0.00     0.037 A 
HETATM   14  C   UNL     1      29.631  45.960  58.210  1.00  0.00     0.015 A 
HETATM   15  C   UNL     1      30.257  45.014  57.389  1.00  0.00    -0.026 A 
HETATM   16  C   UNL     1      31.287  44.196  57.879  1.00  0.00     0.012 A 
HETATM   17  C   UNL     1      29.837  44.883  56.046  1.00  0.00    -0.023 A 
HETATM   18  C   UNL     1      31.901  43.253  57.053  1.00  0.00     0.001 A 
HETATM   19  C   UNL     1      31.492  43.121  55.730  1.00  0.00     0.001 A 
HETATM   20  C   UNL     1      30.469  43.929  55.228  1.00  0.00     0.012 A 
HETATM   21  C   UNL     1      28.798  45.702  55.565  1.00  0.00     0.049 A 
ENDBRANCH  11  12
ENDBRANCH  10  11
ENDBRANCH   7  10
ENDBRANCH   1   6
BRANCH   2  22
HETATM   22  C   UNL     1      26.177  44.265  50.899  1.00  0.00     0.732 A 
HETATM   23  N   UNL     1      26.553  43.883  52.084  1.00  0.00    -0.067 NA
HETATM   24  C   UNL     1      27.281  42.724  52.086  1.00  0.00     0.065 A 
HETATM   25  C   UNL     1      27.608  41.998  51.016  1.00  0.00     0.036 A 
HETATM   26  C   UNL     1      27.814  42.105  53.335  1.00  0.00     0.061 C 
HETATM   27  C   UNL     1      28.401  40.790  51.334  1.00  0.00     0.047 C 
HETATM   28  C   UNL     1      27.178  42.441  49.692  1.00  0.00     0.268 A 
HETATM   29  C   UNL     1      28.800  41.059  52.791  1.00  0.00     0.011 C 
HETATM   30  O   UNL     1      27.442  41.827  48.669  1.00  0.00    -0.267 OA
HETATM   31  N   UNL     1      26.458  43.601  49.724  1.00  0.00    -0.152 N 
HETATM   32  H   UNL     1      26.117  43.990  48.850  1.00  0.00     0.188 HD
ENDBRANCH   2  22
BRANCH   4  33
HETATM   33  C   UNL     1      22.850  47.033  48.733  1.00  0.00     0.035 A 
HETATM   34  S   UNL     1      22.227  48.621  48.604  1.00  0.00    -0.100 SA
HETATM   35  C   UNL     1      21.163  48.172  47.342  1.00  0.00     0.050 A 
HETATM   36  C   UNL     1      21.271  46.836  47.028  1.00  0.00     0.008 A 
HETATM   37  C   UNL     1      22.246  46.176  47.834  1.00  0.00     0.022 A 
ENDBRANCH   4  33
TORSDOF 6
ENDMDL
MODEL 4
REMARK VINA RESULT:     -10.6      3.413      8.751
REMARK  6 active torsions:
REMARK  status: ('A' for Active; 'I' for Inactive)
REMARK    1  A    between atoms: C_9  and  O_10 
REMARK    2  A    between atoms: O_10  and  C_11 
REMARK    3  A    between atoms: C_11  and  C_12 
REMARK       I    between atoms: C_12  and  N_13 
REMARK    4  A    between atoms: N_13  and  C_14 
REMARK    5  A    between atoms: N_15  and  C_16 
REMARK    6  A    between atoms: C_27  and  C_28 
ROOT
HETATM    1  C   UNL     1      27.496  43.227  51.990  1.00  0.00     0.152 A 
HETATM    2  N   UNL     1      28.414  42.186  51.950  1.00  0.00    -0.044 N 
HETATM    3  N   UNL     1      29.346  42.274  52.951  1.00  0.00    -0.150 NA
HETATM    4  C   UNL     1      29.003  43.376  53.628  1.00  0.00     0.099 A 
HETATM    5  C   UNL     1      27.885  44.014  53.053  1.00  0.00     0.086 A 
ENDROOT
BRANCH   1   6
HETATM    6  N   UNL     1      26.422  43.338  51.114  1.00  0.00    -0.309 N 
HETATM    7  C   UNL     1      26.452  44.168  50.006  1.00  0.00     0.247 C 
HETATM    8  O   UNL     1      27.439  44.775  49.593  1.00  0.00    -0.271 OA
HETATM    9  H   UNL     1      25.575  42.795  51.302  1.00  0.00     0.170 HD
BRANCH   7  10
HETATM   10  C   UNL     1      25.088  44.404  49.361  1.00  0.00     0.278 C 
BRANCH  10  11
HETATM   11  O   UNL     1      24.221  45.254  50.097  1.00  0.00    -0.342 OA
BRANCH  11  12
HETATM   12  C   UNL     1      24.207  46.562  49.673  1.00  0.00     0.070 A 
HETATM   13  C   UNL     1      25.290  47.441  49.740  1.00  0.00     0.037 A 
HETATM   14  C   UNL     1      25.170  48.750  49.262  1.00  0.00     0.015 A 
HETATM   15  C   UNL     1      23.965  49.205  48.713  1.00  0.00    -0.026 A 
HETATM   16  C   UNL     1      23.841  50.514  48.220  1.00  0.00     0.012 A 
HETATM   17  C   UNL     1      22.859  48.327  48.654  1.00  0.00    -0.023 A 
HETATM   18  C   UNL     1      22.637  50.956  47.671  1.00  0.00     0.001 A 
HETATM   19  C   UNL     1      21.546  50.096  47.611  1.00  0.00     0.001 A 
HETATM   20  C   UNL     1      21.654  48.791  48.100  1.00  0.00     0.012 A 
HETATM   21  C   UNL     1      22.995  47.015  49.145  1.00  0.00     0.049 A 
ENDBRANCH  11  12
ENDBRANCH  10  11
ENDBRANCH   7  10
ENDBRANCH   1   6
BRANCH   2  22
HETATM   22  C   UNL     1      28.479  41.098  51.059  1.00  0.00     0.732 A 
HETATM   23  N   UNL     1      27.981  41.115  49.857  1.00  0.00    -0.067 NA
HETATM   24  C   UNL     1      28.158  39.945  49.169  1.00  0.00     0.065 A 
HETATM   25  C   UNL     1      28.776  38.853  49.619  1.00  0.00     0.036 A 
HETATM   26  C   UNL     1      27.664  39.744  47.775  1.00  0.00     0.061 C 
HETATM   27  C   UNL     1      28.813  37.742  48.642  1.00  0.00     0.047 C 
HETATM   28  C   UNL     1      29.329  38.850  50.972  1.00  0.00     0.268 A 
HETATM   29  C   UNL     1      27.806  38.225  47.590  1.00  0.00     0.011 C 
HETATM   30  O   UNL     1      29.907  37.885  51.449  1.00  0.00    -0.267 OA
HETATM   31  N   UNL     1      29.133  40.028  51.632  1.00  0.00    -0.152 N 
HETATM   32  H   UNL     1      29.482  40.121  52.581  1.00  0.00     0.188 HD
ENDBRANCH   2  22
BRANCH   4  33
HETATM   33  C   UNL     1      29.738  43.815  54.861  1.00  0.00     0.035 A 
HETATM   34  S   UNL     1      29.442  45.282  55.689  1.00  0.00    -0.100 SA
HETATM   35  C   UNL     1      30.618  44.925  56.879  1.00  0.00     0.050 A 
HETATM   36  C   UNL     1      31.233  43.715  56.648  1.00  0.00     0.008 A 
HETATM   37  C   UNL     1      30.725  43.073  55.478  1.00  0.00     0.022 A 
ENDBRANCH   4  33
TORSDOF 6
ENDMDL
MODEL 5
REMARK VINA RESULT:     -10.5      3.393      9.890
REMARK  6 active torsions:
REMARK  status: ('A' for Active; 'I' for Inactive)
REMARK    1  A    between atoms: C_9  and  O_10 
REMARK    2  A    between atoms: O_10  and  C_11 
REMARK    3  A    between atoms: C_11  and  C_12 
REMARK       I    between atoms: C_12  and  N_13 
REMARK    4  A    between atoms: N_13  and  C_14 
REMARK    5  A    between atoms: N_15  and  C_16 
REMARK    6  A    between atoms: C_27  and  C_28 
ROOT
HETATM    1  C   UNL     1      26.469  43.214  50.486  1.00  0.00     0.152 A 
HETATM    2  N   UNL     1      27.345  43.074  51.554  1.00  0.00    -0.044 N 
HETATM    3  N   UNL     1      28.092  41.929  51.469  1.00  0.00    -0.150 NA
HETATM    4  C   UNL     1      27.685  41.351  50.332  1.00  0.00     0.099 A 
HETATM    5  C   UNL     1      26.662  42.093  49.707  1.00  0.00     0.086 A 
ENDROOT
BRANCH   1   6
HETATM    6  N   UNL     1      25.637  44.316  50.312  1.00  0.00    -0.309 N 
HETATM    7  C   UNL     1      26.091  45.509  49.776  1.00  0.00     0.247 C 
HETATM    8  O   UNL     1      27.199  45.692  49.272  1.00  0.00    -0.271 OA
HETATM    9  H   UNL     1      24.659  44.245  50.603  1.00  0.00     0.170 HD
BRANCH   7  10
HETATM   10  C   UNL     1      25.137  46.686  49.966  1.00  0.00     0.278 C 
BRANCH  10  11
HETATM   11  O   UNL     1      25.533  47.884  49.314  1.00  0.00    -0.342 OA
BRANCH  11  12
HETATM   12  C   UNL     1      24.501  48.745  49.024  1.00  0.00     0.070 A 
HETATM   13  C   UNL     1      24.649  50.042  48.529  1.00  0.00     0.037 A 
HETATM   14  C   UNL     1      23.526  50.828  48.252  1.00  0.00     0.015 A 
HETATM   15  C   UNL     1      22.234  50.332  48.469  1.00  0.00    -0.026 A 
HETATM   16  C   UNL     1      21.101  51.110  48.181  1.00  0.00     0.012 A 
HETATM   17  C   UNL     1      22.074  49.026  48.983  1.00  0.00    -0.023 A 
HETATM   18  C   UNL     1      19.818  50.606  48.396  1.00  0.00     0.001 A 
HETATM   19  C   UNL     1      19.656  49.320  48.902  1.00  0.00     0.001 A 
HETATM   20  C   UNL     1      20.774  48.535  49.195  1.00  0.00     0.012 A 
HETATM   21  C   UNL     1      23.215  48.251  49.262  1.00  0.00     0.049 A 
ENDBRANCH  11  12
ENDBRANCH  10  11
ENDBRANCH   7  10
ENDBRANCH   1   6
BRANCH   2  22
HETATM   22  C   UNL     1      27.556  43.941  52.643  1.00  0.00     0.732 A 
HETATM   23  N   UNL     1      26.780  44.944  52.932  1.00  0.00    -0.067 NA
HETATM   24  C   UNL     1      27.178  45.652  54.033  1.00  0.00     0.065 A 
HETATM   25  C   UNL     1      28.245  45.395  54.791  1.00  0.00     0.036 A 
HETATM   26  C   UNL     1      26.435  46.842  54.542  1.00  0.00     0.061 C 
HETATM   27  C   UNL     1      28.418  46.336  55.919  1.00  0.00     0.047 C 
HETATM   28  C   UNL     1      29.107  44.264  54.452  1.00  0.00     0.268 A 
HETATM   29  C   UNL     1      27.432  47.450  55.543  1.00  0.00     0.011 C 
HETATM   30  O   UNL     1      30.101  43.971  55.100  1.00  0.00    -0.267 OA
HETATM   31  N   UNL     1      28.685  43.582  53.347  1.00  0.00    -0.152 N 
HETATM   32  H   UNL     1      29.223  42.780  53.033  1.00  0.00     0.188 HD
ENDBRANCH   2  22
BRANCH   4  33
HETATM   33  C   UNL     1      28.299  40.081  49.820  1.00  0.00     0.035 A 
HETATM   34  S   UNL     1      28.275  39.590  48.182  1.00  0.00    -0.100 SA
HETATM   35  C   UNL     1      29.172  38.174  48.524  1.00  0.00     0.050 A 
HETATM   36  C   UNL     1      29.479  38.069  49.861  1.00  0.00     0.008 A 
HETATM   37  C   UNL     1      28.971  39.172  50.613  1.00  0.00     0.022 A 
ENDBRANCH   4  33
TORSDOF 6
ENDMDL
MODEL 6
REMARK VINA RESULT:     -10.4      3.555      9.891
REMARK  6 active torsions:
REMARK  status: ('A' for Active; 'I' for Inactive)
REMARK    1  A    between atoms: C_9  and  O_10 
REMARK    2  A    between atoms: O_10  and  C_11 
REMARK    3  A    between atoms: C_11  and  C_12 
REMARK       I    between atoms: C_12  and  N_13 
REMARK    4  A    between atoms: N_13  and  C_14 
REMARK    5  A    between atoms: N_15  and  C_16 
REMARK    6  A    between atoms: C_27  and  C_28 
ROOT
HETATM    1  C   UNL     1      27.669  43.188  51.803  1.00  0.00     0.152 A 
HETATM    2  N   UNL     1      28.554  42.702  52.755  1.00  0.00    -0.044 N 
HETATM    3  N   UNL     1      28.931  41.408  52.504  1.00  0.00    -0.150 NA
HETATM    4  C   UNL     1      28.282  41.086  51.379  1.00  0.00     0.099 A 
HETATM    5  C   UNL     1      27.467  42.143  50.926  1.00  0.00     0.086 A 
ENDROOT
BRANCH   1   6
HETATM    6  N   UNL     1      27.177  44.489  51.804  1.00  0.00    -0.309 N 
HETATM    7  C   UNL     1      25.832  44.773  51.965  1.00  0.00     0.247 C 
HETATM    8  O   UNL     1      24.959  43.957  52.259  1.00  0.00    -0.271 OA
HETATM    9  H   UNL     1      27.833  45.264  51.669  1.00  0.00     0.170 HD
BRANCH   7  10
HETATM   10  C   UNL     1      25.446  46.208  51.614  1.00  0.00     0.278 C 
BRANCH  10  11
HETATM   11  O   UNL     1      26.205  46.789  50.564  1.00  0.00    -0.342 OA
BRANCH  11  12
HETATM   12  C   UNL     1      25.545  47.764  49.854  1.00  0.00     0.070 A 
HETATM   13  C   UNL     1      26.158  48.814  49.166  1.00  0.00     0.037 A 
HETATM   14  C   UNL     1      25.388  49.744  48.461  1.00  0.00     0.015 A 
HETATM   15  C   UNL     1      23.992  49.645  48.434  1.00  0.00    -0.026 A 
HETATM   16  C   UNL     1      23.213  50.568  47.717  1.00  0.00     0.012 A 
HETATM   17  C   UNL     1      23.361  48.595  49.139  1.00  0.00    -0.023 A 
HETATM   18  C   UNL     1      21.822  50.458  47.693  1.00  0.00     0.001 A 
HETATM   19  C   UNL     1      21.197  49.426  48.385  1.00  0.00     0.001 A 
HETATM   20  C   UNL     1      21.959  48.502  49.105  1.00  0.00     0.012 A 
HETATM   21  C   UNL     1      24.150  47.670  49.849  1.00  0.00     0.049 A 
ENDBRANCH  11  12
ENDBRANCH  10  11
ENDBRANCH   7  10
ENDBRANCH   1   6
BRANCH   2  22
HETATM   22  C   UNL     1      29.095  43.359  53.877  1.00  0.00     0.732 A 
HETATM   23  N   UNL     1      30.028  42.857  54.631  1.00  0.00    -0.067 NA
HETATM   24  C   UNL     1      30.400  43.670  55.667  1.00  0.00     0.065 A 
HETATM   25  C   UNL     1      29.901  44.877  55.937  1.00  0.00     0.036 A 
HETATM   26  C   UNL     1      31.451  43.293  56.656  1.00  0.00     0.061 C 
HETATM   27  C   UNL     1      30.504  45.520  57.125  1.00  0.00     0.047 C 
HETATM   28  C   UNL     1      28.852  45.427  55.080  1.00  0.00     0.268 A 
HETATM   29  C   UNL     1      31.261  44.346  57.759  1.00  0.00     0.011 C 
HETATM   30  O   UNL     1      28.350  46.525  55.269  1.00  0.00    -0.267 OA
HETATM   31  N   UNL     1      28.502  44.590  54.060  1.00  0.00    -0.152 N 
HETATM   32  H   UNL     1      27.779  44.885  53.412  1.00  0.00     0.188 HD
ENDBRANCH   2  22
BRANCH   4  33
HETATM   33  C   UNL     1      28.461  39.755  50.710  1.00  0.00     0.035 A 
HETATM   34  S   UNL     1      27.449  39.155  49.469  1.00  0.00    -0.100 SA
HETATM   35  C   UNL     1      28.371  37.722  49.317  1.00  0.00     0.050 A 
HETATM   36  C   UNL     1      29.427  37.694  50.200  1.00  0.00     0.008 A 
HETATM   37  C   UNL     1      29.478  38.869  51.008  1.00  0.00     0.022 A 
ENDBRANCH   4  33
TORSDOF 6
ENDMDL
MODEL 7
REMARK VINA RESULT:     -10.4      2.370      5.890
REMARK  6 active torsions:
REMARK  status: ('A' for Active; 'I' for Inactive)
REMARK    1  A    between atoms: C_9  and  O_10 
REMARK    2  A    between atoms: O_10  and  C_11 
REMARK    3  A    between atoms: C_11  and  C_12 
REMARK       I    between atoms: C_12  and  N_13 
REMARK    4  A    between atoms: N_13  and  C_14 
REMARK    5  A    between atoms: N_15  and  C_16 
REMARK    6  A    between atoms: C_27  and  C_28 
ROOT
HETATM    1  C   UNL     1      23.901  45.093  49.559  1.00  0.00     0.152 A 
HETATM    2  N   UNL     1      23.011  45.560  48.599  1.00  0.00    -0.044 N 
HETATM    3  N   UNL     1      22.756  44.628  47.628  1.00  0.00    -0.150 NA
HETATM    4  C   UNL     1      23.486  43.565  47.987  1.00  0.00     0.099 A 
HETATM    5  C   UNL     1      24.232  43.817  49.156  1.00  0.00     0.086 A 
ENDROOT
BRANCH   1   6
HETATM    6  N   UNL     1      24.282  45.829  50.675  1.00  0.00    -0.309 N 
HETATM    7  C   UNL     1      25.419  46.619  50.689  1.00  0.00     0.247 C 
HETATM    8  O   UNL     1      26.125  46.874  49.714  1.00  0.00    -0.271 OA
HETATM    9  H   UNL     1      23.708  45.775  51.521  1.00  0.00     0.170 HD
BRANCH   7  10
HETATM   10  C   UNL     1      25.847  47.080  52.081  1.00  0.00     0.278 C 
BRANCH  10  11
HETATM   11  O   UNL     1      25.755  46.087  53.091  1.00  0.00    -0.342 OA
BRANCH  11  12
HETATM   12  C   UNL     1      26.868  45.981  53.892  1.00  0.00     0.070 A 
HETATM   13  C   UNL     1      27.306  46.953  54.794  1.00  0.00     0.037 A 
HETATM   14  C   UNL     1      28.447  46.733  55.573  1.00  0.00     0.015 A 
HETATM   15  C   UNL     1      29.173  45.541  55.461  1.00  0.00    -0.026 A 
HETATM   16  C   UNL     1      30.311  45.309  56.249  1.00  0.00     0.012 A 
HETATM   17  C   UNL     1      28.745  44.558  54.540  1.00  0.00    -0.023 A 
HETATM   18  C   UNL     1      31.025  44.116  56.133  1.00  0.00     0.001 A 
HETATM   19  C   UNL     1      30.609  43.145  55.228  1.00  0.00     0.001 A 
HETATM   20  C   UNL     1      29.479  43.363  54.436  1.00  0.00     0.012 A 
HETATM   21  C   UNL     1      27.599  44.797  53.759  1.00  0.00     0.049 A 
ENDBRANCH  11  12
ENDBRANCH  10  11
ENDBRANCH   7  10
ENDBRANCH   1   6
BRANCH   2  22
HETATM   22  C   UNL     1      22.362  46.807  48.529  1.00  0.00     0.732 A 
HETATM   23  N   UNL     1      22.959  47.918  48.212  1.00  0.00    -0.067 NA
HETATM   24  C   UNL     1      22.133  49.009  48.208  1.00  0.00     0.065 A 
HETATM   25  C   UNL     1      20.829  49.009  48.487  1.00  0.00     0.036 A 
HETATM   26  C   UNL     1      22.608  50.384  47.875  1.00  0.00     0.061 C 
HETATM   27  C   UNL     1      20.199  50.345  48.399  1.00  0.00     0.047 C 
HETATM   28  C   UNL     1      20.173  47.752  48.842  1.00  0.00     0.268 A 
HETATM   29  C   UNL     1      21.428  51.260  48.327  1.00  0.00     0.011 C 
HETATM   30  O   UNL     1      18.983  47.678  49.110  1.00  0.00    -0.267 OA
HETATM   31  N   UNL     1      21.025  46.685  48.840  1.00  0.00    -0.152 N 
HETATM   32  H   UNL     1      20.660  45.768  49.077  1.00  0.00     0.188 HD
ENDBRANCH   2  22
BRANCH   4  33
HETATM   33  C   UNL     1      23.451  42.278  47.217  1.00  0.00     0.035 A 
HETATM   34  S   UNL     1      23.419  42.177  45.509  1.00  0.00    -0.100 SA
HETATM   35  C   UNL     1      23.432  40.467  45.544  1.00  0.00     0.050 A 
HETATM   36  C   UNL     1      23.452  39.978  46.830  1.00  0.00     0.008 A 
HETATM   37  C   UNL     1      23.461  41.026  47.799  1.00  0.00     0.022 A 
ENDBRANCH   4  33
TORSDOF 6
ENDMDL
MODEL 8
REMARK VINA RESULT:     -10.3      3.562      9.783
REMARK  6 active torsions:
REMARK  status: ('A' for Active; 'I' for Inactive)
REMARK    1  A    between atoms: C_9  and  O_10 
REMARK    2  A    between atoms: O_10  and  C_11 
REMARK    3  A    between atoms: C_11  and  C_12 
REMARK       I    between atoms: C_12  and  N_13 
REMARK    4  A    between atoms: N_13  and  C_14 
REMARK    5  A    between atoms: N_15  and  C_16 
REMARK    6  A    between atoms: C_27  and  C_28 
ROOT
HETATM    1  C   UNL     1      24.088  44.586  50.562  1.00  0.00     0.152 A 
HETATM    2  N   UNL     1      25.111  45.525  50.528  1.00  0.00    -0.044 N 
HETATM    3  N   UNL     1      26.248  45.080  51.150  1.00  0.00    -0.150 NA
HETATM    4  C   UNL     1      25.936  43.848  51.571  1.00  0.00     0.099 A 
HETATM    5  C   UNL     1      24.603  43.513  51.258  1.00  0.00     0.086 A 
ENDROOT
BRANCH   1   6
HETATM    6  N   UNL     1      22.851  44.776  49.957  1.00  0.00    -0.309 N 
HETATM    7  C   UNL     1      22.638  44.526  48.611  1.00  0.00     0.247 C 
HETATM    8  O   UNL     1      23.442  43.992  47.847  1.00  0.00    -0.271 OA
HETATM    9  H   UNL     1      22.072  45.123  50.524  1.00  0.00     0.170 HD
BRANCH   7  10
HETATM   10  C   UNL     1      21.330  45.095  48.066  1.00  0.00     0.278 C 
BRANCH  10  11
HETATM   11  O   UNL     1      20.599  45.894  48.986  1.00  0.00    -0.342 OA
BRANCH  11  12
HETATM   12  C   UNL     1      20.304  47.159  48.535  1.00  0.00     0.070 A 
HETATM   13  C   UNL     1      20.268  47.548  47.195  1.00  0.00     0.037 A 
HETATM   14  C   UNL     1      19.939  48.862  46.847  1.00  0.00     0.015 A 
HETATM   15  C   UNL     1      19.644  49.812  47.833  1.00  0.00    -0.026 A 
HETATM   16  C   UNL     1      19.300  51.129  47.492  1.00  0.00     0.012 A 
HETATM   17  C   UNL     1      19.692  49.431  49.193  1.00  0.00    -0.023 A 
HETATM   18  C   UNL     1      19.004  52.067  48.481  1.00  0.00     0.001 A 
HETATM   19  C   UNL     1      19.050  51.697  49.822  1.00  0.00     0.001 A 
HETATM   20  C   UNL     1      19.393  50.390  50.177  1.00  0.00     0.012 A 
HETATM   21  C   UNL     1      20.031  48.106  49.526  1.00  0.00     0.049 A 
ENDBRANCH  11  12
ENDBRANCH  10  11
ENDBRANCH   7  10
ENDBRANCH   1   6
BRANCH   2  22
HETATM   22  C   UNL     1      25.119  46.803  49.938  1.00  0.00     0.732 A 
HETATM   23  N   UNL     1      24.042  47.472  49.646  1.00  0.00    -0.067 NA
HETATM   24  C   UNL     1      24.287  48.693  49.077  1.00  0.00     0.065 A 
HETATM   25  C   UNL     1      25.487  49.214  48.820  1.00  0.00     0.036 A 
HETATM   26  C   UNL     1      23.198  49.625  48.661  1.00  0.00     0.061 C 
HETATM   27  C   UNL     1      25.434  50.557  48.200  1.00  0.00     0.047 C 
HETATM   28  C   UNL     1      26.686  48.449  49.153  1.00  0.00     0.268 A 
HETATM   29  C   UNL     1      23.954  50.656  47.808  1.00  0.00     0.011 C 
HETATM   30  O   UNL     1      27.816  48.865  48.946  1.00  0.00    -0.267 OA
HETATM   31  N   UNL     1      26.408  47.236  49.715  1.00  0.00    -0.152 N 
HETATM   32  H   UNL     1      27.179  46.631  49.980  1.00  0.00     0.188 HD
ENDBRANCH   2  22
BRANCH   4  33
HETATM   33  C   UNL     1      26.934  42.966  52.263  1.00  0.00     0.035 A 
HETATM   34  S   UNL     1      27.422  41.430  51.692  1.00  0.00    -0.100 SA
HETATM   35  C   UNL     1      28.514  41.219  52.991  1.00  0.00     0.050 A 
HETATM   36  C   UNL     1      28.503  42.294  53.851  1.00  0.00     0.008 A 
HETATM   37  C   UNL     1      27.587  43.304  53.431  1.00  0.00     0.022 A 
ENDBRANCH   4  33
TORSDOF 6
ENDMDL
MODEL 9
REMARK VINA RESULT:     -10.1      3.351      8.616
REMARK  6 active torsions:
REMARK  status: ('A' for Active; 'I' for Inactive)
REMARK    1  A    between atoms: C_9  and  O_10 
REMARK    2  A    between atoms: O_10  and  C_11 
REMARK    3  A    between atoms: C_11  and  C_12 
REMARK       I    between atoms: C_12  and  N_13 
REMARK    4  A    between atoms: N_13  and  C_14 
REMARK    5  A    between atoms: N_15  and  C_16 
REMARK    6  A    between atoms: C_27  and  C_28 
ROOT
HETATM    1  C   UNL     1      27.674  44.740  53.250  1.00  0.00     0.152 A 
HETATM    2  N   UNL     1      28.380  43.555  53.090  1.00  0.00    -0.044 N 
HETATM    3  N   UNL     1      29.303  43.359  54.082  1.00  0.00    -0.150 NA
HETATM    4  C   UNL     1      29.169  44.429  54.876  1.00  0.00     0.099 A 
HETATM    5  C   UNL     1      28.196  45.323  54.385  1.00  0.00     0.086 A 
ENDROOT
BRANCH   1   6
HETATM    6  N   UNL     1      26.646  45.143  52.404  1.00  0.00    -0.309 N 
HETATM    7  C   UNL     1      25.323  44.805  52.632  1.00  0.00     0.247 C 
HETATM    8  O   UNL     1      24.890  44.253  53.643  1.00  0.00    -0.271 OA
HETATM    9  H   UNL     1      26.879  45.700  51.577  1.00  0.00     0.170 HD
BRANCH   7  10
HETATM   10  C   UNL     1      24.398  45.052  51.443  1.00  0.00     0.278 C 
BRANCH  10  11
HETATM   11  O   UNL     1      25.063  45.317  50.216  1.00  0.00    -0.342 OA
BRANCH  11  12
HETATM   12  C   UNL     1      24.916  46.604  49.754  1.00  0.00     0.070 A 
HETATM   13  C   UNL     1      25.950  47.532  49.614  1.00  0.00     0.037 A 
HETATM   14  C   UNL     1      25.690  48.813  49.117  1.00  0.00     0.015 A 
HETATM   15  C   UNL     1      24.392  49.191  48.753  1.00  0.00    -0.026 A 
HETATM   16  C   UNL     1      24.125  50.470  48.241  1.00  0.00     0.012 A 
HETATM   17  C   UNL     1      23.336  48.263  48.904  1.00  0.00    -0.023 A 
HETATM   18  C   UNL     1      22.828  50.835  47.878  1.00  0.00     0.001 A 
HETATM   19  C   UNL     1      21.786  49.926  48.024  1.00  0.00     0.001 A 
HETATM   20  C   UNL     1      22.036  48.649  48.535  1.00  0.00     0.012 A 
HETATM   21  C   UNL     1      23.614  46.980  49.412  1.00  0.00     0.049 A 
ENDBRANCH  11  12
ENDBRANCH  10  11
ENDBRANCH   7  10
ENDBRANCH   1   6
BRANCH   2  22
HETATM   22  C   UNL     1      28.245  42.574  52.088  1.00  0.00     0.732 A 
HETATM   23  N   UNL     1      27.578  42.752  50.985  1.00  0.00    -0.067 NA
HETATM   24  C   UNL     1      27.579  41.662  50.157  1.00  0.00     0.065 A 
HETATM   25  C   UNL     1      28.186  40.498  50.389  1.00  0.00     0.036 A 
HETATM   26  C   UNL     1      26.875  41.646  48.841  1.00  0.00     0.061 C 
HETATM   27  C   UNL     1      28.010  39.506  49.305  1.00  0.00     0.047 C 
HETATM   28  C   UNL     1      28.930  40.314  51.633  1.00  0.00     0.268 A 
HETATM   29  C   UNL     1      26.892  40.152  48.477  1.00  0.00     0.011 C 
HETATM   30  O   UNL     1      29.510  39.275  51.912  1.00  0.00    -0.267 OA
HETATM   31  N   UNL     1      28.907  41.417  52.438  1.00  0.00    -0.152 N 
HETATM   32  H   UNL     1      29.396  41.384  53.327  1.00  0.00     0.188 HD
ENDBRANCH   2  22
BRANCH   4  33
HETATM   33  C   UNL     1      29.964  44.589  56.138  1.00  0.00     0.035 A 
HETATM   34  S   UNL     1      31.238  43.550  56.614  1.00  0.00    -0.100 SA
HETATM   35  C   UNL     1      31.542  44.462  58.029  1.00  0.00     0.050 A 
HETATM   36  C   UNL     1      30.686  45.533  58.145  1.00  0.00     0.008 A 
HETATM   37  C   UNL     1      29.771  45.606  57.052  1.00  0.00     0.022 A 
ENDBRANCH   4  33
TORSDOF 6
ENDMDL
MODEL 10
REMARK VINA RESULT:      -9.9      3.105      3.973
REMARK  6 active torsions:
REMARK  status: ('A' for Active; 'I' for Inactive)
REMARK    1  A    between atoms: C_9  and  O_10 
REMARK    2  A    between atoms: O_10  and  C_11 
REMARK    3  A    between atoms: C_11  and  C_12 
REMARK       I    between atoms: C_12  and  N_13 
REMARK    4  A    between atoms: N_13  and  C_14 
REMARK    5  A    between atoms: N_15  and  C_16 
REMARK    6  A    between atoms: C_27  and  C_28 
ROOT
HETATM    1  C   UNL     1      24.313  43.034  49.634  1.00  0.00     0.152 A 
HETATM    2  N   UNL     1      24.566  42.153  48.591  1.00  0.00    -0.044 N 
HETATM    3  N   UNL     1      23.663  42.282  47.568  1.00  0.00    -0.150 NA
HETATM    4  C   UNL     1      22.842  43.259  47.972  1.00  0.00     0.099 A 
HETATM    5  C   UNL     1      23.187  43.732  49.255  1.00  0.00     0.086 A 
ENDROOT
BRANCH   1   6
HETATM    6  N   UNL     1      25.115  43.135  50.765  1.00  0.00    -0.309 N 
HETATM    7  C   UNL     1      26.424  43.583  50.708  1.00  0.00     0.247 C 
HETATM    8  O   UNL     1      26.973  44.063  49.716  1.00  0.00    -0.271 OA
HETATM    9  H   UNL     1      24.727  42.859  51.671  1.00  0.00     0.170 HD
BRANCH   7  10
HETATM   10  C   UNL     1      27.235  43.318  51.975  1.00  0.00     0.278 C 
BRANCH  10  11
HETATM   11  O   UNL     1      27.807  44.475  52.567  1.00  0.00    -0.342 OA
BRANCH  11  12
HETATM   12  C   UNL     1      28.697  44.216  53.583  1.00  0.00     0.070 A 
HETATM   13  C   UNL     1      29.621  43.169  53.596  1.00  0.00     0.037 A 
HETATM   14  C   UNL     1      30.493  43.008  54.677  1.00  0.00     0.015 A 
HETATM   15  C   UNL     1      30.455  43.887  55.767  1.00  0.00    -0.026 A 
HETATM   16  C   UNL     1      31.335  43.738  56.850  1.00  0.00     0.012 A 
HETATM   17  C   UNL     1      29.513  44.940  55.769  1.00  0.00    -0.023 A 
HETATM   18  C   UNL     1      31.292  44.622  57.929  1.00  0.00     0.001 A 
HETATM   19  C   UNL     1      30.366  45.661  57.936  1.00  0.00     0.001 A 
HETATM   20  C   UNL     1      29.482  45.819  56.866  1.00  0.00     0.012 A 
HETATM   21  C   UNL     1      28.638  45.085  54.676  1.00  0.00     0.049 A 
ENDBRANCH  11  12
ENDBRANCH  10  11
ENDBRANCH   7  10
ENDBRANCH   1   6
BRANCH   2  22
HETATM   22  C   UNL     1      25.602  41.208  48.463  1.00  0.00     0.732 A 
HETATM   23  N   UNL     1      25.625  40.069  49.090  1.00  0.00    -0.067 NA
HETATM   24  C   UNL     1      26.731  39.309  48.817  1.00  0.00     0.065 A 
HETATM   25  C   UNL     1      27.727  39.639  47.994  1.00  0.00     0.036 A 
HETATM   26  C   UNL     1      26.962  37.968  49.428  1.00  0.00     0.061 C 
HETATM   27  C   UNL     1      28.788  38.611  47.899  1.00  0.00     0.047 C 
HETATM   28  C   UNL     1      27.686  40.923  47.297  1.00  0.00     0.268 A 
HETATM   29  C   UNL     1      28.435  37.696  49.080  1.00  0.00     0.011 C 
HETATM   30  O   UNL     1      28.564  41.289  46.530  1.00  0.00    -0.267 OA
HETATM   31  N   UNL     1      26.574  41.657  47.594  1.00  0.00    -0.152 N 
HETATM   32  H   UNL     1      26.458  42.566  47.159  1.00  0.00     0.188 HD
ENDBRANCH   2  22
BRANCH   4  33
HETATM   33  C   UNL     1      21.724  43.768  47.109  1.00  0.00     0.035 A 
HETATM   34  S   UNL     1      20.780  45.148  47.469  1.00  0.00    -0.100 SA
HETATM   35  C   UNL     1      19.873  44.985  46.028  1.00  0.00     0.050 A 
HETATM   36  C   UNL     1      20.274  43.896  45.288  1.00  0.00     0.008 A 
HETATM   37  C   UNL     1      21.344  43.189  45.915  1.00  0.00     0.022 A 
ENDBRANCH   4  33
TORSDOF 6
ENDMDL
