MODEL 1
REMARK VINA RESULT:     -10.2      0.000      0.000
REMARK  7 active torsions:
REMARK  status: ('A' for Active; 'I' for Inactive)
REMARK    1  A    between atoms: C_6  and  O_7 
REMARK    2  A    between atoms: O_7  and  C_8 
REMARK    3  A    between atoms: C_8  and  C_9 
REMARK       I    between atoms: C_9  and  N_10 
REMARK    4  A    between atoms: N_10  and  C_11 
REMARK    5  A    between atoms: C_14  and  N_15 
REMARK    6  A    between atoms: N_18  and  C_20 
REMARK    7  A    between atoms: C_20  and  C_21 
ROOT
HETATM    1  C   UNL     1      26.634  42.728  50.821  1.00  0.00     0.034 A 
HETATM    2  C   UNL     1      25.259  42.779  51.030  1.00  0.00     0.032 A 
HETATM    3  C   UNL     1      24.529  43.899  50.620  1.00  0.00     0.031 A 
HETATM    4  C   UNL     1      25.144  44.980  49.975  1.00  0.00     0.030 A 
HETATM    5  C   UNL     1      26.531  44.931  49.800  1.00  0.00     0.031 A 
HETATM    6  C   UNL     1      27.274  43.828  50.245  1.00  0.00     0.032 A 
ENDROOT
BRANCH   1   7
HETATM    7  N   UNL     1      27.421  41.641  51.224  1.00  0.00    -0.325 N 
HETATM    8  C   UNL     1      28.247  41.500  52.312  1.00  0.00     0.246 C 
HETATM    9  O   UNL     1      29.043  40.557  52.326  1.00  0.00    -0.271 OA
HETATM   10  H   UNL     1      27.410  40.812  50.639  1.00  0.00     0.169 HD
BRANCH   8  11
HETATM   11  C   UNL     1      28.055  42.401  53.535  1.00  0.00     0.278 C 
BRANCH  11  12
HETATM   12  O   UNL     1      28.668  43.672  53.375  1.00  0.00    -0.342 OA
BRANCH  12  13
HETATM   13  C   UNL     1      29.182  44.217  54.527  1.00  0.00     0.075 A 
HETATM   14  C   UNL     1      28.530  45.351  55.038  1.00  0.00    -0.028 A 
HETATM   15  C   UNL     1      28.999  45.942  56.225  1.00  0.00     0.016 A 
HETATM   16  C   UNL     1      27.349  45.950  54.326  1.00  0.00     0.051 C 
HETATM   17  C   UNL     1      30.097  45.410  56.912  1.00  0.00    -0.061 A 
HETATM   18  C   UNL     1      30.618  46.070  58.154  1.00  0.00     0.048 C 
HETATM   19  C   UNL     1      30.736  44.283  56.393  1.00  0.00     0.009 A 
HETATM   20  C   UNL     1      30.277  43.684  55.217  1.00  0.00     0.038 A 
ENDBRANCH  12  13
ENDBRANCH  11  12
ENDBRANCH   8  11
ENDBRANCH   1   7
BRANCH   4  21
HETATM   21  N   UNL     1      24.341  46.036  49.539  1.00  0.00    -0.378 N 
HETATM   22  C   UNL     1      22.983  45.625  49.137  1.00  0.00     0.150 C 
HETATM   23  C   UNL     1      22.365  46.713  48.234  1.00  0.00     0.255 C 
HETATM   24  N   UNL     1      22.420  48.095  48.899  1.00  0.00    -0.064 N 
HETATM   25  H   UNL     1      21.797  48.057  49.714  1.00  0.00     0.280 HD
HETATM   26  C   UNL     1      23.828  48.425  49.400  1.00  0.00     0.255 C 
HETATM   27  C   UNL     1      24.385  47.296  50.293  1.00  0.00     0.150 C 
BRANCH  24  28
HETATM   28  C   UNL     1      21.908  49.189  47.990  1.00  0.00     0.273 C 
BRANCH  28  29
HETATM   29  C   UNL     1      20.825  50.024  48.613  1.00  0.00    -0.033 A 
HETATM   30  C   UNL     1      20.565  51.320  48.141  1.00  0.00     0.009 A 
HETATM   31  C   UNL     1      19.574  52.102  48.737  1.00  0.00     0.001 A 
HETATM   32  C   UNL     1      18.838  51.601  49.809  1.00  0.00     0.000 A 
HETATM   33  C   UNL     1      19.085  50.315  50.283  1.00  0.00     0.001 A 
HETATM   34  C   UNL     1      20.073  49.528  49.689  1.00  0.00     0.009 A 
ENDBRANCH  28  29
ENDBRANCH  24  28
ENDBRANCH   4  21
TORSDOF 7
ENDMDL
MODEL 2
REMARK VINA RESULT:     -10.1      0.733      1.788
REMARK  7 active torsions:
REMARK  status: ('A' for Active; 'I' for Inactive)
REMARK    1  A    between atoms: C_6  and  O_7 
REMARK    2  A    between atoms: O_7  and  C_8 
REMARK    3  A    between atoms: C_8  and  C_9 
REMARK       I    between atoms: C_9  and  N_10 
REMARK    4  A    between atoms: N_10  and  C_11 
REMARK    5  A    between atoms: C_14  and  N_15 
REMARK    6  A    between atoms: N_18  and  C_20 
REMARK    7  A    between atoms: C_20  and  C_21 
ROOT
HETATM    1  C   UNL     1      26.746  42.819  50.909  1.00  0.00     0.034 A 
HETATM    2  C   UNL     1      25.359  42.789  51.024  1.00  0.00     0.032 A 
HETATM    3  C   UNL     1      24.598  43.884  50.601  1.00  0.00     0.031 A 
HETATM    4  C   UNL     1      25.196  45.019  50.037  1.00  0.00     0.030 A 
HETATM    5  C   UNL     1      26.592  45.049  49.958  1.00  0.00     0.031 A 
HETATM    6  C   UNL     1      27.362  43.971  50.417  1.00  0.00     0.032 A 
ENDROOT
BRANCH   1   7
HETATM    7  N   UNL     1      27.562  41.759  51.329  1.00  0.00    -0.325 N 
HETATM    8  C   UNL     1      28.244  41.581  52.508  1.00  0.00     0.246 C 
HETATM    9  O   UNL     1      29.109  40.702  52.557  1.00  0.00    -0.271 OA
HETATM   10  H   UNL     1      27.700  40.989  50.684  1.00  0.00     0.169 HD
BRANCH   8  11
HETATM   11  C   UNL     1      27.815  42.350  53.761  1.00  0.00     0.278 C 
BRANCH  11  12
HETATM   12  O   UNL     1      28.729  43.380  54.106  1.00  0.00    -0.342 OA
BRANCH  12  13
HETATM   13  C   UNL     1      28.151  44.590  54.406  1.00  0.00     0.075 A 
HETATM   14  C   UNL     1      28.836  45.412  55.316  1.00  0.00    -0.028 A 
HETATM   15  C   UNL     1      28.303  46.670  55.647  1.00  0.00     0.016 A 
HETATM   16  C   UNL     1      30.122  44.959  55.950  1.00  0.00     0.051 C 
HETATM   17  C   UNL     1      27.108  47.122  55.076  1.00  0.00    -0.061 A 
HETATM   18  C   UNL     1      26.523  48.447  55.467  1.00  0.00     0.048 C 
HETATM   19  C   UNL     1      26.436  46.295  54.174  1.00  0.00     0.009 A 
HETATM   20  C   UNL     1      26.958  45.044  53.833  1.00  0.00     0.038 A 
ENDBRANCH  12  13
ENDBRANCH  11  12
ENDBRANCH   8  11
ENDBRANCH   1   7
BRANCH   4  21
HETATM   21  N   UNL     1      24.367  46.047  49.582  1.00  0.00    -0.378 N 
HETATM   22  C   UNL     1      23.014  45.598  49.205  1.00  0.00     0.150 C 
HETATM   23  C   UNL     1      22.364  46.649  48.280  1.00  0.00     0.255 C 
HETATM   24  N   UNL     1      22.399  48.050  48.908  1.00  0.00    -0.064 N 
HETATM   25  H   UNL     1      21.785  48.021  49.730  1.00  0.00     0.280 HD
HETATM   26  C   UNL     1      23.805  48.420  49.385  1.00  0.00     0.255 C 
HETATM   27  C   UNL     1      24.393  47.327  50.302  1.00  0.00     0.150 C 
BRANCH  24  28
HETATM   28  C   UNL     1      21.856  49.109  47.976  1.00  0.00     0.273 C 
BRANCH  28  29
HETATM   29  C   UNL     1      20.796  49.969  48.603  1.00  0.00    -0.033 A 
HETATM   30  C   UNL     1      20.589  51.283  48.156  1.00  0.00     0.009 A 
HETATM   31  C   UNL     1      19.619  52.088  48.757  1.00  0.00     0.001 A 
HETATM   32  C   UNL     1      18.852  51.592  49.809  1.00  0.00     0.000 A 
HETATM   33  C   UNL     1      19.047  50.288  50.258  1.00  0.00     0.001 A 
HETATM   34  C   UNL     1      20.013  49.479  49.659  1.00  0.00     0.009 A 
ENDBRANCH  28  29
ENDBRANCH  24  28
ENDBRANCH   4  21
TORSDOF 7
ENDMDL
MODEL 3
REMARK VINA RESULT:      -9.4      1.744      3.387
REMARK  7 active torsions:
REMARK  status: ('A' for Active; 'I' for Inactive)
REMARK    1  A    between atoms: C_6  and  O_7 
REMARK    2  A    between atoms: O_7  and  C_8 
REMARK    3  A    between atoms: C_8  and  C_9 
REMARK       I    between atoms: C_9  and  N_10 
REMARK    4  A    between atoms: N_10  and  C_11 
REMARK    5  A    between atoms: C_14  and  N_15 
REMARK    6  A    between atoms: N_18  and  C_20 
REMARK    7  A    between atoms: C_20  and  C_21 
ROOT
HETATM    1  C   UNL     1      25.020  45.250  49.177  1.00  0.00     0.034 A 
HETATM    2  C   UNL     1      23.689  45.124  48.789  1.00  0.00     0.032 A 
HETATM    3  C   UNL     1      22.851  46.243  48.784  1.00  0.00     0.031 A 
HETATM    4  C   UNL     1      23.323  47.513  49.144  1.00  0.00     0.030 A 
HETATM    5  C   UNL     1      24.653  47.620  49.563  1.00  0.00     0.031 A 
HETATM    6  C   UNL     1      25.486  46.493  49.607  1.00  0.00     0.032 A 
ENDROOT
BRANCH   1   7
HETATM    7  N   UNL     1      25.902  44.161  49.217  1.00  0.00    -0.325 N 
HETATM    8  C   UNL     1      26.696  43.702  50.239  1.00  0.00     0.246 C 
HETATM    9  O   UNL     1      27.587  42.892  49.970  1.00  0.00    -0.271 OA
HETATM   10  H   UNL     1      26.002  43.608  48.373  1.00  0.00     0.169 HD
BRANCH   8  11
HETATM   11  C   UNL     1      26.363  44.071  51.687  1.00  0.00     0.278 C 
BRANCH  11  12
HETATM   12  O   UNL     1      26.728  43.052  52.606  1.00  0.00    -0.342 OA
BRANCH  12  13
HETATM   13  C   UNL     1      27.752  43.384  53.462  1.00  0.00     0.075 A 
HETATM   14  C   UNL     1      28.790  42.448  53.602  1.00  0.00    -0.028 A 
HETATM   15  C   UNL     1      29.872  42.741  54.451  1.00  0.00     0.016 A 
HETATM   16  C   UNL     1      28.751  41.135  52.872  1.00  0.00     0.051 C 
HETATM   17  C   UNL     1      29.939  43.954  55.146  1.00  0.00    -0.061 A 
HETATM   18  C   UNL     1      31.076  44.240  56.082  1.00  0.00     0.048 C 
HETATM   19  C   UNL     1      28.900  44.874  54.998  1.00  0.00     0.009 A 
HETATM   20  C   UNL     1      27.821  44.598  54.155  1.00  0.00     0.038 A 
ENDBRANCH  12  13
ENDBRANCH  11  12
ENDBRANCH   8  11
ENDBRANCH   1   7
BRANCH   4  21
HETATM   21  N   UNL     1      22.444  48.596  49.056  1.00  0.00    -0.378 N 
HETATM   22  C   UNL     1      22.867  49.629  48.092  1.00  0.00     0.150 C 
HETATM   23  C   UNL     1      22.146  50.955  48.415  1.00  0.00     0.255 C 
HETATM   24  N   UNL     1      20.625  50.766  48.490  1.00  0.00    -0.064 N 
HETATM   25  H   UNL     1      20.309  50.529  47.543  1.00  0.00     0.280 HD
HETATM   26  C   UNL     1      20.245  49.607  49.415  1.00  0.00     0.255 C 
HETATM   27  C   UNL     1      21.002  48.316  49.038  1.00  0.00     0.150 C 
BRANCH  24  28
HETATM   28  C   UNL     1      19.909  52.032  48.902  1.00  0.00     0.273 C 
BRANCH  28  29
HETATM   29  C   UNL     1      18.423  51.972  48.692  1.00  0.00    -0.033 A 
HETATM   30  C   UNL     1      17.893  51.736  47.414  1.00  0.00     0.009 A 
HETATM   31  C   UNL     1      16.511  51.705  47.218  1.00  0.00     0.001 A 
HETATM   32  C   UNL     1      15.648  51.913  48.292  1.00  0.00     0.000 A 
HETATM   33  C   UNL     1      16.162  52.145  49.565  1.00  0.00     0.001 A 
HETATM   34  C   UNL     1      17.543  52.174  49.767  1.00  0.00     0.009 A 
ENDBRANCH  28  29
ENDBRANCH  24  28
ENDBRANCH   4  21
TORSDOF 7
ENDMDL
MODEL 4
REMARK VINA RESULT:      -9.3      3.226     10.772
REMARK  7 active torsions:
REMARK  status: ('A' for Active; 'I' for Inactive)
REMARK    1  A    between atoms: C_6  and  O_7 
REMARK    2  A    between atoms: O_7  and  C_8 
REMARK    3  A    between atoms: C_8  and  C_9 
REMARK       I    between atoms: C_9  and  N_10 
REMARK    4  A    between atoms: N_10  and  C_11 
REMARK    5  A    between atoms: C_14  and  N_15 
REMARK    6  A    between atoms: N_18  and  C_20 
REMARK    7  A    between atoms: C_20  and  C_21 
ROOT
HETATM    1  C   UNL     1      24.615  48.549  48.878  1.00  0.00     0.034 A 
HETATM    2  C   UNL     1      23.852  47.436  49.221  1.00  0.00     0.032 A 
HETATM    3  C   UNL     1      24.398  46.433  50.028  1.00  0.00     0.031 A 
HETATM    4  C   UNL     1      25.704  46.525  50.528  1.00  0.00     0.030 A 
HETATM    5  C   UNL     1      26.471  47.632  50.150  1.00  0.00     0.031 A 
HETATM    6  C   UNL     1      25.941  48.620  49.309  1.00  0.00     0.032 A 
ENDROOT
BRANCH   1   7
HETATM    7  N   UNL     1      24.127  49.577  48.061  1.00  0.00    -0.325 N 
HETATM    8  C   UNL     1      22.983  50.329  48.171  1.00  0.00     0.246 C 
HETATM    9  O   UNL     1      22.623  50.994  47.196  1.00  0.00    -0.271 OA
HETATM   10  H   UNL     1      24.675  49.828  47.245  1.00  0.00     0.169 HD
BRANCH   8  11
HETATM   11  C   UNL     1      22.279  50.451  49.525  1.00  0.00     0.278 C 
BRANCH  11  12
HETATM   12  O   UNL     1      21.150  49.597  49.630  1.00  0.00    -0.342 OA
BRANCH  12  13
HETATM   13  C   UNL     1      19.934  50.238  49.597  1.00  0.00     0.075 A 
HETATM   14  C   UNL     1      18.789  49.425  49.570  1.00  0.00    -0.028 A 
HETATM   15  C   UNL     1      17.517  50.025  49.554  1.00  0.00     0.016 A 
HETATM   16  C   UNL     1      18.905  47.927  49.541  1.00  0.00     0.051 C 
HETATM   17  C   UNL     1      17.373  51.417  49.579  1.00  0.00    -0.061 A 
HETATM   18  C   UNL     1      16.015  52.049  49.518  1.00  0.00     0.048 C 
HETATM   19  C   UNL     1      18.520  52.213  49.605  1.00  0.00     0.009 A 
HETATM   20  C   UNL     1      19.789  51.630  49.626  1.00  0.00     0.038 A 
ENDBRANCH  12  13
ENDBRANCH  11  12
ENDBRANCH   8  11
ENDBRANCH   1   7
BRANCH   4  21
HETATM   21  N   UNL     1      26.161  45.515  51.378  1.00  0.00    -0.378 N 
HETATM   22  C   UNL     1      25.098  44.896  52.192  1.00  0.00     0.150 C 
HETATM   23  C   UNL     1      25.731  44.184  53.406  1.00  0.00     0.255 C 
HETATM   24  N   UNL     1      26.829  43.202  52.974  1.00  0.00    -0.064 N 
HETATM   25  H   UNL     1      26.365  42.450  52.452  1.00  0.00     0.280 HD
HETATM   26  C   UNL     1      27.844  43.866  52.039  1.00  0.00     0.255 C 
HETATM   27  C   UNL     1      27.144  44.558  50.851  1.00  0.00     0.150 C 
BRANCH  24  28
HETATM   28  C   UNL     1      27.528  42.568  54.154  1.00  0.00     0.273 C 
BRANCH  28  29
HETATM   29  C   UNL     1      28.599  43.437  54.750  1.00  0.00    -0.033 A 
HETATM   30  C   UNL     1      29.906  42.951  54.904  1.00  0.00     0.009 A 
HETATM   31  C   UNL     1      30.894  43.753  55.481  1.00  0.00     0.001 A 
HETATM   32  C   UNL     1      30.585  45.041  55.910  1.00  0.00     0.000 A 
HETATM   33  C   UNL     1      29.292  45.535  55.760  1.00  0.00     0.001 A 
HETATM   34  C   UNL     1      28.302  44.739  55.182  1.00  0.00     0.009 A 
ENDBRANCH  28  29
ENDBRANCH  24  28
ENDBRANCH   4  21
TORSDOF 7
ENDMDL
MODEL 5
REMARK VINA RESULT:      -9.0      3.628     11.276
REMARK  7 active torsions:
REMARK  status: ('A' for Active; 'I' for Inactive)
REMARK    1  A    between atoms: C_6  and  O_7 
REMARK    2  A    between atoms: O_7  and  C_8 
REMARK    3  A    between atoms: C_8  and  C_9 
REMARK       I    between atoms: C_9  and  N_10 
REMARK    4  A    between atoms: N_10  and  C_11 
REMARK    5  A    between atoms: C_14  and  N_15 
REMARK    6  A    between atoms: N_18  and  C_20 
REMARK    7  A    between atoms: C_20  and  C_21 
ROOT
HETATM    1  C   UNL     1      22.239  46.765  47.894  1.00  0.00     0.034 A 
HETATM    2  C   UNL     1      22.489  45.396  47.932  1.00  0.00     0.032 A 
HETATM    3  C   UNL     1      23.436  44.882  48.823  1.00  0.00     0.031 A 
HETATM    4  C   UNL     1      24.138  45.712  49.707  1.00  0.00     0.030 A 
HETATM    5  C   UNL     1      23.900  47.088  49.636  1.00  0.00     0.031 A 
HETATM    6  C   UNL     1      22.981  47.613  48.717  1.00  0.00     0.032 A 
ENDROOT
BRANCH   1   7
HETATM    7  N   UNL     1      21.313  47.339  47.012  1.00  0.00    -0.325 N 
HETATM    8  C   UNL     1      20.015  47.735  47.225  1.00  0.00     0.246 C 
HETATM    9  O   UNL     1      19.305  47.969  46.243  1.00  0.00    -0.271 OA
HETATM   10  H   UNL     1      21.611  47.495  46.055  1.00  0.00     0.169 HD
BRANCH   8  11
HETATM   11  C   UNL     1      19.532  48.029  48.648  1.00  0.00     0.278 C 
BRANCH  11  12
HETATM   12  O   UNL     1      18.122  48.175  48.725  1.00  0.00    -0.342 OA
BRANCH  12  13
HETATM   13  C   UNL     1      17.684  49.453  48.979  1.00  0.00     0.075 A 
HETATM   14  C   UNL     1      16.406  49.792  48.506  1.00  0.00    -0.028 A 
HETATM   15  C   UNL     1      15.898  51.080  48.752  1.00  0.00     0.016 A 
HETATM   16  C   UNL     1      15.583  48.804  47.727  1.00  0.00     0.051 C 
HETATM   17  C   UNL     1      16.638  52.023  49.473  1.00  0.00    -0.061 A 
HETATM   18  C   UNL     1      16.107  53.409  49.695  1.00  0.00     0.048 C 
HETATM   19  C   UNL     1      17.907  51.674  49.937  1.00  0.00     0.009 A 
HETATM   20  C   UNL     1      18.423  50.397  49.703  1.00  0.00     0.038 A 
ENDBRANCH  12  13
ENDBRANCH  11  12
ENDBRANCH   8  11
ENDBRANCH   1   7
BRANCH   4  21
HETATM   21  N   UNL     1      25.023  45.119  50.611  1.00  0.00    -0.378 N 
HETATM   22  C   UNL     1      26.437  45.205  50.201  1.00  0.00     0.150 C 
HETATM   23  C   UNL     1      27.255  44.137  50.957  1.00  0.00     0.255 C 
HETATM   24  N   UNL     1      27.044  44.235  52.475  1.00  0.00    -0.064 N 
HETATM   25  H   UNL     1      27.454  45.127  52.773  1.00  0.00     0.280 HD
HETATM   26  C   UNL     1      25.557  44.256  52.837  1.00  0.00     0.255 C 
HETATM   27  C   UNL     1      24.801  45.344  52.045  1.00  0.00     0.150 C 
BRANCH  24  28
HETATM   28  C   UNL     1      27.759  43.135  53.225  1.00  0.00     0.273 C 
BRANCH  28  29
HETATM   29  C   UNL     1      28.747  43.646  54.235  1.00  0.00    -0.033 A 
HETATM   30  C   UNL     1      28.588  44.918  54.805  1.00  0.00     0.009 A 
HETATM   31  C   UNL     1      29.521  45.400  55.726  1.00  0.00     0.001 A 
HETATM   32  C   UNL     1      30.619  44.619  56.082  1.00  0.00     0.000 A 
HETATM   33  C   UNL     1      30.784  43.354  55.525  1.00  0.00     0.001 A 
HETATM   34  C   UNL     1      29.854  42.867  54.606  1.00  0.00     0.009 A 
ENDBRANCH  28  29
ENDBRANCH  24  28
ENDBRANCH   4  21
TORSDOF 7
ENDMDL
MODEL 6
REMARK VINA RESULT:      -8.9     11.842     13.760
REMARK  7 active torsions:
REMARK  status: ('A' for Active; 'I' for Inactive)
REMARK    1  A    between atoms: C_6  and  O_7 
REMARK    2  A    between atoms: O_7  and  C_8 
REMARK    3  A    between atoms: C_8  and  C_9 
REMARK       I    between atoms: C_9  and  N_10 
REMARK    4  A    between atoms: N_10  and  C_11 
REMARK    5  A    between atoms: C_14  and  N_15 
REMARK    6  A    between atoms: N_18  and  C_20 
REMARK    7  A    between atoms: C_20  and  C_21 
ROOT
HETATM    1  C   UNL     1      31.683  50.646  38.436  1.00  0.00     0.034 A 
HETATM    2  C   UNL     1      30.662  51.444  37.926  1.00  0.00     0.032 A 
HETATM    3  C   UNL     1      29.327  51.057  38.079  1.00  0.00     0.031 A 
HETATM    4  C   UNL     1      28.977  49.882  38.759  1.00  0.00     0.030 A 
HETATM    5  C   UNL     1      30.013  49.073  39.237  1.00  0.00     0.031 A 
HETATM    6  C   UNL     1      31.354  49.437  39.051  1.00  0.00     0.032 A 
ENDROOT
BRANCH   1   7
HETATM    7  N   UNL     1      33.038  50.974  38.300  1.00  0.00    -0.325 N 
HETATM    8  C   UNL     1      33.952  51.372  39.244  1.00  0.00     0.246 C 
HETATM    9  O   UNL     1      35.017  51.862  38.860  1.00  0.00    -0.271 OA
HETATM   10  H   UNL     1      33.440  50.930  37.370  1.00  0.00     0.169 HD
BRANCH   8  11
HETATM   11  C   UNL     1      33.706  51.057  40.722  1.00  0.00     0.278 C 
BRANCH  11  12
HETATM   12  O   UNL     1      33.210  52.176  41.442  1.00  0.00    -0.342 OA
BRANCH  12  13
HETATM   13  C   UNL     1      31.846  52.339  41.391  1.00  0.00     0.075 A 
HETATM   14  C   UNL     1      31.068  51.388  42.072  1.00  0.00    -0.028 A 
HETATM   15  C   UNL     1      29.667  51.514  42.070  1.00  0.00     0.016 A 
HETATM   16  C   UNL     1      31.710  50.232  42.787  1.00  0.00     0.051 C 
HETATM   17  C   UNL     1      29.038  52.578  41.414  1.00  0.00    -0.061 A 
HETATM   18  C   UNL     1      27.542  52.682  41.381  1.00  0.00     0.048 C 
HETATM   19  C   UNL     1      29.823  53.516  40.741  1.00  0.00     0.009 A 
HETATM   20  C   UNL     1      31.216  53.404  40.738  1.00  0.00     0.038 A 
ENDBRANCH  12  13
ENDBRANCH  11  12
ENDBRANCH   8  11
ENDBRANCH   1   7
BRANCH   4  21
HETATM   21  N   UNL     1      27.621  49.592  38.925  1.00  0.00    -0.378 N 
HETATM   22  C   UNL     1      27.260  49.206  40.302  1.00  0.00     0.150 C 
HETATM   23  C   UNL     1      25.916  48.448  40.284  1.00  0.00     0.255 C 
HETATM   24  N   UNL     1      24.825  49.251  39.561  1.00  0.00    -0.064 N 
HETATM   25  H   UNL     1      24.641  50.082  40.135  1.00  0.00     0.280 HD
HETATM   26  C   UNL     1      25.293  49.725  38.184  1.00  0.00     0.255 C 
HETATM   27  C   UNL     1      26.641  50.471  38.274  1.00  0.00     0.150 C 
BRANCH  24  28
HETATM   28  C   UNL     1      23.528  48.483  39.448  1.00  0.00     0.273 C 
BRANCH  28  29
HETATM   29  C   UNL     1      22.330  49.266  39.905  1.00  0.00    -0.033 A 
HETATM   30  C   UNL     1      22.275  50.655  39.720  1.00  0.00     0.009 A 
HETATM   31  C   UNL     1      21.170  51.383  40.167  1.00  0.00     0.001 A 
HETATM   32  C   UNL     1      20.115  50.732  40.803  1.00  0.00     0.000 A 
HETATM   33  C   UNL     1      20.157  49.353  40.988  1.00  0.00     0.001 A 
HETATM   34  C   UNL     1      21.258  48.621  40.541  1.00  0.00     0.009 A 
ENDBRANCH  28  29
ENDBRANCH  24  28
ENDBRANCH   4  21
TORSDOF 7
ENDMDL
MODEL 7
REMARK VINA RESULT:      -8.9      3.754     11.136
REMARK  7 active torsions:
REMARK  status: ('A' for Active; 'I' for Inactive)
REMARK    1  A    between atoms: C_6  and  O_7 
REMARK    2  A    between atoms: O_7  and  C_8 
REMARK    3  A    between atoms: C_8  and  C_9 
REMARK       I    between atoms: C_9  and  N_10 
REMARK    4  A    between atoms: N_10  and  C_11 
REMARK    5  A    between atoms: C_14  and  N_15 
REMARK    6  A    between atoms: N_18  and  C_20 
REMARK    7  A    between atoms: C_20  and  C_21 
ROOT
HETATM    1  C   UNL     1      21.587  46.872  47.435  1.00  0.00     0.034 A 
HETATM    2  C   UNL     1      21.909  45.598  47.894  1.00  0.00     0.032 A 
HETATM    3  C   UNL     1      22.867  45.437  48.899  1.00  0.00     0.031 A 
HETATM    4  C   UNL     1      23.509  46.537  49.483  1.00  0.00     0.030 A 
HETATM    5  C   UNL     1      23.201  47.809  48.990  1.00  0.00     0.031 A 
HETATM    6  C   UNL     1      22.269  47.973  47.955  1.00  0.00     0.032 A 
ENDROOT
BRANCH   1   7
HETATM    7  N   UNL     1      20.646  47.095  46.420  1.00  0.00    -0.325 N 
HETATM    8  C   UNL     1      19.312  47.408  46.502  1.00  0.00     0.246 C 
HETATM    9  O   UNL     1      18.620  47.297  45.487  1.00  0.00    -0.271 OA
HETATM   10  H   UNL     1      20.963  47.011  45.460  1.00  0.00     0.169 HD
BRANCH   8  11
HETATM   11  C   UNL     1      18.754  48.032  47.785  1.00  0.00     0.278 C 
BRANCH  11  12
HETATM   12  O   UNL     1      19.208  49.362  47.985  1.00  0.00    -0.342 OA
BRANCH  12  13
HETATM   13  C   UNL     1      18.265  50.227  48.488  1.00  0.00     0.075 A 
HETATM   14  C   UNL     1      18.732  51.271  49.302  1.00  0.00    -0.028 A 
HETATM   15  C   UNL     1      17.816  52.198  49.830  1.00  0.00     0.016 A 
HETATM   16  C   UNL     1      20.194  51.402  49.629  1.00  0.00     0.051 C 
HETATM   17  C   UNL     1      16.449  52.105  49.545  1.00  0.00    -0.061 A 
HETATM   18  C   UNL     1      15.472  53.072  50.147  1.00  0.00     0.048 C 
HETATM   19  C   UNL     1      15.998  51.061  48.735  1.00  0.00     0.009 A 
HETATM   20  C   UNL     1      16.898  50.136  48.201  1.00  0.00     0.038 A 
ENDBRANCH  12  13
ENDBRANCH  11  12
ENDBRANCH   8  11
ENDBRANCH   1   7
BRANCH   4  21
HETATM   21  N   UNL     1      24.410  46.303  50.525  1.00  0.00    -0.378 N 
HETATM   22  C   UNL     1      24.632  44.873  50.809  1.00  0.00     0.150 C 
HETATM   23  C   UNL     1      25.213  44.718  52.230  1.00  0.00     0.255 C 
HETATM   24  N   UNL     1      26.463  45.588  52.426  1.00  0.00    -0.064 N 
HETATM   25  H   UNL     1      27.190  45.205  51.811  1.00  0.00     0.280 HD
HETATM   26  C   UNL     1      26.211  47.039  52.009  1.00  0.00     0.255 C 
HETATM   27  C   UNL     1      25.630  47.120  50.582  1.00  0.00     0.150 C 
BRANCH  24  28
HETATM   28  C   UNL     1      26.989  45.525  53.842  1.00  0.00     0.273 C 
BRANCH  28  29
HETATM   29  C   UNL     1      28.218  44.673  53.984  1.00  0.00    -0.033 A 
HETATM   30  C   UNL     1      28.595  43.790  52.961  1.00  0.00     0.009 A 
HETATM   31  C   UNL     1      29.726  42.983  53.106  1.00  0.00     0.001 A 
HETATM   32  C   UNL     1      30.485  43.047  54.272  1.00  0.00     0.000 A 
HETATM   33  C   UNL     1      30.122  43.922  55.293  1.00  0.00     0.001 A 
HETATM   34  C   UNL     1      28.996  44.733  55.151  1.00  0.00     0.009 A 
ENDBRANCH  28  29
ENDBRANCH  24  28
ENDBRANCH   4  21
TORSDOF 7
ENDMDL
MODEL 8
REMARK VINA RESULT:      -8.9      1.615      2.227
REMARK  7 active torsions:
REMARK  status: ('A' for Active; 'I' for Inactive)
REMARK    1  A    between atoms: C_6  and  O_7 
REMARK    2  A    between atoms: O_7  and  C_8 
REMARK    3  A    between atoms: C_8  and  C_9 
REMARK       I    between atoms: C_9  and  N_10 
REMARK    4  A    between atoms: N_10  and  C_11 
REMARK    5  A    between atoms: C_14  and  N_15 
REMARK    6  A    between atoms: N_18  and  C_20 
REMARK    7  A    between atoms: C_20  and  C_21 
ROOT
HETATM    1  C   UNL     1      24.826  42.154  49.747  1.00  0.00     0.034 A 
HETATM    2  C   UNL     1      24.208  42.957  50.701  1.00  0.00     0.032 A 
HETATM    3  C   UNL     1      23.455  44.066  50.302  1.00  0.00     0.031 A 
HETATM    4  C   UNL     1      23.282  44.386  48.948  1.00  0.00     0.030 A 
HETATM    5  C   UNL     1      23.934  43.590  48.002  1.00  0.00     0.031 A 
HETATM    6  C   UNL     1      24.724  42.501  48.399  1.00  0.00     0.032 A 
ENDROOT
BRANCH   1   7
HETATM    7  N   UNL     1      25.606  41.040  50.087  1.00  0.00    -0.325 N 
HETATM    8  C   UNL     1      26.912  40.968  50.507  1.00  0.00     0.246 C 
HETATM    9  O   UNL     1      27.472  39.869  50.495  1.00  0.00    -0.271 OA
HETATM   10  H   UNL     1      25.174  40.126  50.016  1.00  0.00     0.169 HD
BRANCH   8  11
HETATM   11  C   UNL     1      27.583  42.199  51.123  1.00  0.00     0.278 C 
BRANCH  11  12
HETATM   12  O   UNL     1      27.116  42.473  52.435  1.00  0.00    -0.342 OA
BRANCH  12  13
HETATM   13  C   UNL     1      28.060  42.991  53.290  1.00  0.00     0.075 A 
HETATM   14  C   UNL     1      27.701  44.142  54.010  1.00  0.00    -0.028 A 
HETATM   15  C   UNL     1      28.619  44.706  54.913  1.00  0.00     0.016 A 
HETATM   16  C   UNL     1      26.356  44.787  53.817  1.00  0.00     0.051 C 
HETATM   17  C   UNL     1      29.879  44.131  55.116  1.00  0.00    -0.061 A 
HETATM   18  C   UNL     1      30.870  44.763  56.049  1.00  0.00     0.048 C 
HETATM   19  C   UNL     1      30.224  42.988  54.393  1.00  0.00     0.009 A 
HETATM   20  C   UNL     1      29.319  42.415  53.496  1.00  0.00     0.038 A 
ENDBRANCH  12  13
ENDBRANCH  11  12
ENDBRANCH   8  11
ENDBRANCH   1   7
BRANCH   4  21
HETATM   21  N   UNL     1      22.465  45.471  48.624  1.00  0.00    -0.378 N 
HETATM   22  C   UNL     1      21.028  45.224  48.847  1.00  0.00     0.150 C 
HETATM   23  C   UNL     1      20.201  46.234  48.025  1.00  0.00     0.255 C 
HETATM   24  N   UNL     1      20.630  47.680  48.311  1.00  0.00    -0.064 N 
HETATM   25  H   UNL     1      20.376  47.876  49.286  1.00  0.00     0.280 HD
HETATM   26  C   UNL     1      22.145  47.856  48.176  1.00  0.00     0.255 C 
HETATM   27  C   UNL     1      22.909  46.814  49.020  1.00  0.00     0.150 C 
BRANCH  24  28
HETATM   28  C   UNL     1      19.899  48.678  47.443  1.00  0.00     0.273 C 
BRANCH  28  29
HETATM   29  C   UNL     1      19.416  49.884  48.198  1.00  0.00    -0.033 A 
HETATM   30  C   UNL     1      18.458  49.751  49.215  1.00  0.00     0.009 A 
HETATM   31  C   UNL     1      17.994  50.877  49.898  1.00  0.00     0.001 A 
HETATM   32  C   UNL     1      18.478  52.142  49.570  1.00  0.00     0.000 A 
HETATM   33  C   UNL     1      19.430  52.285  48.565  1.00  0.00     0.001 A 
HETATM   34  C   UNL     1      19.900  51.163  47.881  1.00  0.00     0.009 A 
ENDBRANCH  28  29
ENDBRANCH  24  28
ENDBRANCH   4  21
TORSDOF 7
ENDMDL
MODEL 9
REMARK VINA RESULT:      -8.8     12.745     15.745
REMARK  7 active torsions:
REMARK  status: ('A' for Active; 'I' for Inactive)
REMARK    1  A    between atoms: C_6  and  O_7 
REMARK    2  A    between atoms: O_7  and  C_8 
REMARK    3  A    between atoms: C_8  and  C_9 
REMARK       I    between atoms: C_9  and  N_10 
REMARK    4  A    between atoms: N_10  and  C_11 
REMARK    5  A    between atoms: C_14  and  N_15 
REMARK    6  A    between atoms: N_18  and  C_20 
REMARK    7  A    between atoms: C_20  and  C_21 
ROOT
HETATM    1  C   UNL     1      30.471  48.372  39.604  1.00  0.00     0.034 A 
HETATM    2  C   UNL     1      30.947  47.870  40.811  1.00  0.00     0.032 A 
HETATM    3  C   UNL     1      31.933  48.564  41.520  1.00  0.00     0.031 A 
HETATM    4  C   UNL     1      32.451  49.780  41.054  1.00  0.00     0.030 A 
HETATM    5  C   UNL     1      31.988  50.257  39.824  1.00  0.00     0.031 A 
HETATM    6  C   UNL     1      31.028  49.545  39.091  1.00  0.00     0.032 A 
ENDROOT
BRANCH   1   7
HETATM    7  N   UNL     1      29.495  47.714  38.843  1.00  0.00    -0.325 N 
HETATM    8  C   UNL     1      28.287  47.182  39.221  1.00  0.00     0.246 C 
HETATM    9  O   UNL     1      27.713  46.418  38.441  1.00  0.00    -0.271 OA
HETATM   10  H   UNL     1      29.681  47.583  37.855  1.00  0.00     0.169 HD
BRANCH   8  11
HETATM   11  C   UNL     1      27.611  47.666  40.507  1.00  0.00     0.278 C 
BRANCH  11  12
HETATM   12  O   UNL     1      26.839  48.840  40.308  1.00  0.00    -0.342 OA
BRANCH  12  13
HETATM   13  C   UNL     1      27.551  50.016  40.351  1.00  0.00     0.075 A 
HETATM   14  C   UNL     1      27.539  50.808  39.191  1.00  0.00    -0.028 A 
HETATM   15  C   UNL     1      28.234  52.030  39.182  1.00  0.00     0.016 A 
HETATM   16  C   UNL     1      26.807  50.360  37.956  1.00  0.00     0.051 C 
HETATM   17  C   UNL     1      28.926  52.476  40.314  1.00  0.00    -0.061 A 
HETATM   18  C   UNL     1      29.701  53.760  40.283  1.00  0.00     0.048 C 
HETATM   19  C   UNL     1      28.931  51.679  41.460  1.00  0.00     0.009 A 
HETATM   20  C   UNL     1      28.240  50.465  41.483  1.00  0.00     0.038 A 
ENDBRANCH  12  13
ENDBRANCH  11  12
ENDBRANCH   8  11
ENDBRANCH   1   7
BRANCH   4  21
HETATM   21  N   UNL     1      33.389  50.447  41.846  1.00  0.00    -0.378 N 
HETATM   22  C   UNL     1      34.650  50.751  41.145  1.00  0.00     0.150 C 
HETATM   23  C   UNL     1      35.761  51.015  42.183  1.00  0.00     0.255 C 
HETATM   24  N   UNL     1      35.343  52.089  43.197  1.00  0.00    -0.064 N 
HETATM   25  H   UNL     1      35.265  52.971  42.677  1.00  0.00     0.280 HD
HETATM   26  C   UNL     1      33.974  51.784  43.810  1.00  0.00     0.255 C 
HETATM   27  C   UNL     1      32.913  51.529  42.719  1.00  0.00     0.150 C 
BRANCH  24  28
HETATM   28  C   UNL     1      36.378  52.291  44.279  1.00  0.00     0.273 C 
BRANCH  28  29
HETATM   29  C   UNL     1      37.093  53.609  44.183  1.00  0.00    -0.033 A 
HETATM   30  C   UNL     1      37.449  54.136  42.932  1.00  0.00     0.009 A 
HETATM   31  C   UNL     1      38.135  55.350  42.847  1.00  0.00     0.001 A 
HETATM   32  C   UNL     1      38.472  56.044  44.006  1.00  0.00     0.000 A 
HETATM   33  C   UNL     1      38.120  55.533  45.253  1.00  0.00     0.001 A 
HETATM   34  C   UNL     1      37.433  54.322  45.343  1.00  0.00     0.009 A 
ENDBRANCH  28  29
ENDBRANCH  24  28
ENDBRANCH   4  21
TORSDOF 7
ENDMDL
MODEL 10
REMARK VINA RESULT:      -8.8     11.608     13.288
REMARK  7 active torsions:
REMARK  status: ('A' for Active; 'I' for Inactive)
REMARK    1  A    between atoms: C_6  and  O_7 
REMARK    2  A    between atoms: O_7  and  C_8 
REMARK    3  A    between atoms: C_8  and  C_9 
REMARK       I    between atoms: C_9  and  N_10 
REMARK    4  A    between atoms: N_10  and  C_11 
REMARK    5  A    between atoms: C_14  and  N_15 
REMARK    6  A    between atoms: N_18  and  C_20 
REMARK    7  A    between atoms: C_20  and  C_21 
ROOT
HETATM    1  C   UNL     1      31.521  48.604  40.735  1.00  0.00     0.034 A 
HETATM    2  C   UNL     1      30.601  48.627  41.778  1.00  0.00     0.032 A 
HETATM    3  C   UNL     1      29.232  48.704  41.504  1.00  0.00     0.031 A 
HETATM    4  C   UNL     1      28.748  48.738  40.189  1.00  0.00     0.030 A 
HETATM    5  C   UNL     1      29.685  48.747  39.150  1.00  0.00     0.031 A 
HETATM    6  C   UNL     1      31.060  48.710  39.421  1.00  0.00     0.032 A 
ENDROOT
BRANCH   1   7
HETATM    7  N   UNL     1      32.905  48.543  40.948  1.00  0.00    -0.325 N 
HETATM    8  C   UNL     1      33.761  49.477  41.480  1.00  0.00     0.246 C 
HETATM    9  O   UNL     1      34.974  49.313  41.328  1.00  0.00    -0.271 OA
HETATM   10  H   UNL     1      33.385  47.694  40.671  1.00  0.00     0.169 HD
BRANCH   8  11
HETATM   11  C   UNL     1      33.211  50.594  42.371  1.00  0.00     0.278 C 
BRANCH  11  12
HETATM   12  O   UNL     1      33.179  51.850  41.710  1.00  0.00    -0.342 OA
BRANCH  12  13
HETATM   13  C   UNL     1      32.055  52.077  40.951  1.00  0.00     0.075 A 
HETATM   14  C   UNL     1      32.220  52.070  39.556  1.00  0.00    -0.028 A 
HETATM   15  C   UNL     1      31.103  52.278  38.728  1.00  0.00     0.016 A 
HETATM   16  C   UNL     1      33.575  51.859  38.939  1.00  0.00     0.051 C 
HETATM   17  C   UNL     1      29.828  52.478  39.270  1.00  0.00    -0.061 A 
HETATM   18  C   UNL     1      28.649  52.742  38.382  1.00  0.00     0.048 C 
HETATM   19  C   UNL     1      29.678  52.483  40.658  1.00  0.00     0.009 A 
HETATM   20  C   UNL     1      30.779  52.274  41.492  1.00  0.00     0.038 A 
ENDBRANCH  12  13
ENDBRANCH  11  12
ENDBRANCH   8  11
ENDBRANCH   1   7
BRANCH   4  21
HETATM   21  N   UNL     1      27.366  48.752  39.991  1.00  0.00    -0.378 N 
HETATM   22  C   UNL     1      26.614  47.962  40.983  1.00  0.00     0.150 C 
HETATM   23  C   UNL     1      25.216  47.630  40.421  1.00  0.00     0.255 C 
HETATM   24  N   UNL     1      24.481  48.895  39.955  1.00  0.00    -0.064 N 
HETATM   25  H   UNL     1      24.292  49.454  40.795  1.00  0.00     0.280 HD
HETATM   26  C   UNL     1      25.349  49.738  39.016  1.00  0.00     0.255 C 
HETATM   27  C   UNL     1      26.730  50.029  39.639  1.00  0.00     0.150 C 
BRANCH  24  28
HETATM   28  C   UNL     1      23.151  48.581  39.311  1.00  0.00     0.273 C 
BRANCH  28  29
HETATM   29  C   UNL     1      22.008  49.366  39.889  1.00  0.00    -0.033 A 
HETATM   30  C   UNL     1      21.983  50.766  39.789  1.00  0.00     0.009 A 
HETATM   31  C   UNL     1      20.931  51.495  40.349  1.00  0.00     0.001 A 
HETATM   32  C   UNL     1      19.900  50.835  41.014  1.00  0.00     0.000 A 
HETATM   33  C   UNL     1      19.913  49.446  41.116  1.00  0.00     0.001 A 
HETATM   34  C   UNL     1      20.960  48.713  40.556  1.00  0.00     0.009 A 
ENDBRANCH  28  29
ENDBRANCH  24  28
ENDBRANCH   4  21
TORSDOF 7
ENDMDL
