MODEL 1
REMARK VINA RESULT:      -8.6      0.000      0.000
REMARK  6 active torsions:
REMARK  status: ('A' for Active; 'I' for Inactive)
REMARK    1  A    between atoms: C_2  and  C_3 
REMARK    2  A    between atoms: C_3  and  C_4 
REMARK    3  A    between atoms: C_5  and  O_6 
REMARK    4  A    between atoms: C_7  and  C_8 
REMARK    5  A    between atoms: N_9  and  N_10 
REMARK       I    between atoms: N_10  and  C_11 
REMARK    6  A    between atoms: C_11  and  C_12 
ROOT
HETATM    1  N   UNL     1      25.414  46.597  51.466  1.00  0.00    -0.243 N 
HETATM    2  C   UNL     1      25.898  46.624  52.766  1.00  0.00     0.274 C 
HETATM    3  O   UNL     1      25.765  47.580  53.531  1.00  0.00    -0.266 OA
HETATM    4  H   UNL     1      25.539  45.801  50.857  1.00  0.00     0.192 HD
ENDROOT
BRANCH   1   5
HETATM    5  N   UNL     1      24.764  47.691  50.972  1.00  0.00    -0.183 NA
HETATM    6  C   UNL     1      24.624  47.732  49.684  1.00  0.00     0.153 C 
BRANCH   6   7
HETATM    7  C   UNL     1      23.948  48.865  49.016  1.00  0.00     0.017 A 
HETATM    8  C   UNL     1      22.548  48.963  49.028  1.00  0.00     0.084 A 
HETATM    9  C   UNL     1      21.904  50.044  48.400  1.00  0.00    -0.021 A 
HETATM   10  C   UNL     1      22.695  51.003  47.739  1.00  0.00     0.010 A 
HETATM   11  C   UNL     1      24.086  50.899  47.718  1.00  0.00     0.002 A 
HETATM   12  C   UNL     1      24.713  49.834  48.359  1.00  0.00     0.016 A 
BRANCH   8  13
HETATM   13  O   UNL     1      21.834  47.983  49.666  1.00  0.00    -0.359 OA
HETATM   14  H   UNL     1      20.886  48.183  49.591  1.00  0.00     0.218 HD
ENDBRANCH   8  13
BRANCH   9  15
HETATM   15  C   UNL     1      20.403  50.236  48.416  1.00  0.00     0.067 C 
BRANCH  15  16
HETATM   16  C   UNL     1      19.994  51.580  48.953  1.00  0.00    -0.032 C 
HETATM   17  C   UNL     1      19.058  52.362  48.397  1.00  0.00     0.007 C 
ENDBRANCH  15  16
ENDBRANCH   9  15
ENDBRANCH   6   7
ENDBRANCH   1   5
BRANCH   2  18
HETATM   18  C   UNL     1      26.630  45.410  53.249  1.00  0.00     0.061 A 
HETATM   19  C   UNL     1      27.650  45.567  54.210  1.00  0.00     0.058 A 
HETATM   20  C   UNL     1      28.395  44.504  54.721  1.00  0.00    -0.007 A 
HETATM   21  N   UNL     1      28.117  46.712  54.825  1.00  0.00    -0.364 N 
HETATM   22  C   UNL     1      29.320  45.047  55.656  1.00  0.00     0.030 A 
HETATM   23  C   UNL     1      28.123  43.204  54.260  1.00  0.00     0.014 A 
HETATM   24  C   UNL     1      29.125  46.409  55.699  1.00  0.00     0.089 A 
HETATM   25  C   UNL     1      27.116  43.013  53.309  1.00  0.00     0.002 A 
HETATM   26  C   UNL     1      26.382  44.095  52.813  1.00  0.00     0.019 A 
HETATM   27  H   UNL     1      27.738  47.633  54.629  1.00  0.00     0.165 HD
ENDBRANCH   2  18
TORSDOF 6
ENDMDL
MODEL 2
REMARK VINA RESULT:      -8.4      1.997      9.144
REMARK  6 active torsions:
REMARK  status: ('A' for Active; 'I' for Inactive)
REMARK    1  A    between atoms: C_2  and  C_3 
REMARK    2  A    between atoms: C_3  and  C_4 
REMARK    3  A    between atoms: C_5  and  O_6 
REMARK    4  A    between atoms: C_7  and  C_8 
REMARK    5  A    between atoms: N_9  and  N_10 
REMARK       I    between atoms: N_10  and  C_11 
REMARK    6  A    between atoms: C_11  and  C_12 
ROOT
HETATM    1  N   UNL     1      24.437  46.393  50.513  1.00  0.00    -0.243 N 
HETATM    2  C   UNL     1      24.229  47.548  49.773  1.00  0.00     0.274 C 
HETATM    3  O   UNL     1      25.028  48.484  49.717  1.00  0.00    -0.266 OA
HETATM    4  H   UNL     1      23.764  45.641  50.544  1.00  0.00     0.192 HD
ENDROOT
BRANCH   1   5
HETATM    5  N   UNL     1      25.579  46.268  51.249  1.00  0.00    -0.183 NA
HETATM    6  C   UNL     1      25.424  46.253  52.535  1.00  0.00     0.153 C 
BRANCH   6   7
HETATM    7  C   UNL     1      26.578  46.132  53.452  1.00  0.00     0.017 A 
HETATM    8  C   UNL     1      27.259  44.912  53.579  1.00  0.00     0.084 A 
HETATM    9  C   UNL     1      28.362  44.797  54.444  1.00  0.00    -0.021 A 
HETATM   10  C   UNL     1      28.744  45.925  55.196  1.00  0.00     0.010 A 
HETATM   11  C   UNL     1      28.060  47.135  55.077  1.00  0.00     0.002 A 
HETATM   12  C   UNL     1      26.981  47.241  54.203  1.00  0.00     0.016 A 
BRANCH   8  13
HETATM   13  O   UNL     1      26.822  43.844  52.839  1.00  0.00    -0.359 OA
HETATM   14  H   UNL     1      25.896  43.658  53.069  1.00  0.00     0.218 HD
ENDBRANCH   8  13
BRANCH   9  15
HETATM   15  C   UNL     1      29.169  43.526  54.592  1.00  0.00     0.067 C 
BRANCH  15  16
HETATM   16  C   UNL     1      30.558  43.776  55.113  1.00  0.00    -0.032 C 
HETATM   17  C   UNL     1      31.035  43.277  56.262  1.00  0.00     0.007 C 
ENDBRANCH  15  16
ENDBRANCH   9  15
ENDBRANCH   6   7
ENDBRANCH   1   5
BRANCH   2  18
HETATM   18  C   UNL     1      22.945  47.648  49.007  1.00  0.00     0.061 A 
HETATM   19  C   UNL     1      22.156  48.809  49.148  1.00  0.00     0.058 A 
HETATM   20  C   UNL     1      20.944  48.999  48.486  1.00  0.00    -0.007 A 
HETATM   21  N   UNL     1      22.375  49.939  49.911  1.00  0.00    -0.364 N 
HETATM   22  C   UNL     1      20.444  50.273  48.876  1.00  0.00     0.030 A 
HETATM   23  C   UNL     1      20.475  47.988  47.629  1.00  0.00     0.014 A 
HETATM   24  C   UNL     1      21.348  50.829  49.755  1.00  0.00     0.089 A 
HETATM   25  C   UNL     1      21.235  46.826  47.464  1.00  0.00     0.002 A 
HETATM   26  C   UNL     1      22.448  46.659  48.139  1.00  0.00     0.019 A 
HETATM   27  H   UNL     1      23.198  50.056  50.495  1.00  0.00     0.165 HD
ENDBRANCH   2  18
TORSDOF 6
ENDMDL
MODEL 3
REMARK VINA RESULT:      -8.3      1.849      2.955
REMARK  6 active torsions:
REMARK  status: ('A' for Active; 'I' for Inactive)
REMARK    1  A    between atoms: C_2  and  C_3 
REMARK    2  A    between atoms: C_3  and  C_4 
REMARK    3  A    between atoms: C_5  and  O_6 
REMARK    4  A    between atoms: C_7  and  C_8 
REMARK    5  A    between atoms: N_9  and  N_10 
REMARK       I    between atoms: N_10  and  C_11 
REMARK    6  A    between atoms: C_11  and  C_12 
ROOT
HETATM    1  N   UNL     1      25.982  46.216  51.926  1.00  0.00    -0.243 N 
HETATM    2  C   UNL     1      25.835  45.087  52.720  1.00  0.00     0.274 C 
HETATM    3  O   UNL     1      24.767  44.494  52.882  1.00  0.00    -0.266 OA
HETATM    4  H   UNL     1      26.869  46.685  51.812  1.00  0.00     0.192 HD
ENDROOT
BRANCH   1   5
HETATM    5  N   UNL     1      24.891  46.734  51.292  1.00  0.00    -0.183 NA
HETATM    6  C   UNL     1      24.817  46.508  50.018  1.00  0.00     0.153 C 
BRANCH   6   7
HETATM    7  C   UNL     1      23.692  47.020  49.206  1.00  0.00     0.017 A 
HETATM    8  C   UNL     1      23.573  48.393  48.945  1.00  0.00     0.084 A 
HETATM    9  C   UNL     1      22.508  48.881  48.166  1.00  0.00    -0.021 A 
HETATM   10  C   UNL     1      21.555  47.962  47.684  1.00  0.00     0.010 A 
HETATM   11  C   UNL     1      21.668  46.598  47.954  1.00  0.00     0.002 A 
HETATM   12  C   UNL     1      22.737  46.125  48.710  1.00  0.00     0.016 A 
BRANCH   8  13
HETATM   13  O   UNL     1      24.518  49.238  49.464  1.00  0.00    -0.359 OA
HETATM   14  H   UNL     1      25.266  48.711  49.793  1.00  0.00     0.218 HD
ENDBRANCH   8  13
BRANCH   9  15
HETATM   15  C   UNL     1      22.347  50.341  47.806  1.00  0.00     0.067 C 
BRANCH  15  16
HETATM   16  C   UNL     1      21.489  51.091  48.788  1.00  0.00    -0.032 C 
HETATM   17  C   UNL     1      20.291  51.617  48.497  1.00  0.00     0.007 C 
ENDBRANCH  15  16
ENDBRANCH   9  15
ENDBRANCH   6   7
ENDBRANCH   1   5
BRANCH   2  18
HETATM   18  C   UNL     1      27.057  44.576  53.418  1.00  0.00     0.061 A 
HETATM   19  C   UNL     1      27.496  43.262  53.152  1.00  0.00     0.058 A 
HETATM   20  C   UNL     1      28.616  42.689  53.751  1.00  0.00    -0.007 A 
HETATM   21  N   UNL     1      26.967  42.308  52.304  1.00  0.00    -0.364 N 
HETATM   22  C   UNL     1      28.740  41.367  53.241  1.00  0.00     0.030 A 
HETATM   23  C   UNL     1      29.356  43.453  54.672  1.00  0.00     0.014 A 
HETATM   24  C   UNL     1      27.710  41.161  52.351  1.00  0.00     0.089 A 
HETATM   25  C   UNL     1      28.950  44.760  54.957  1.00  0.00     0.002 A 
HETATM   26  C   UNL     1      27.822  45.313  54.341  1.00  0.00     0.019 A 
HETATM   27  H   UNL     1      26.138  42.475  51.740  1.00  0.00     0.165 HD
ENDBRANCH   2  18
TORSDOF 6
ENDMDL
MODEL 4
REMARK VINA RESULT:      -8.2      1.625      2.434
REMARK  6 active torsions:
REMARK  status: ('A' for Active; 'I' for Inactive)
REMARK    1  A    between atoms: C_2  and  C_3 
REMARK    2  A    between atoms: C_3  and  C_4 
REMARK    3  A    between atoms: C_5  and  O_6 
REMARK    4  A    between atoms: C_7  and  C_8 
REMARK    5  A    between atoms: N_9  and  N_10 
REMARK       I    between atoms: N_10  and  C_11 
REMARK    6  A    between atoms: C_11  and  C_12 
ROOT
HETATM    1  N   UNL     1      26.599  45.267  51.731  1.00  0.00    -0.243 N 
HETATM    2  C   UNL     1      26.816  45.127  53.094  1.00  0.00     0.274 C 
HETATM    3  O   UNL     1      26.061  45.570  53.960  1.00  0.00    -0.266 OA
HETATM    4  H   UNL     1      27.236  44.896  51.040  1.00  0.00     0.192 HD
ENDROOT
BRANCH   1   5
HETATM    5  N   UNL     1      25.501  45.950  51.294  1.00  0.00    -0.183 NA
HETATM    6  C   UNL     1      25.218  45.821  50.037  1.00  0.00     0.153 C 
BRANCH   6   7
HETATM    7  C   UNL     1      24.060  46.514  49.431  1.00  0.00     0.017 A 
HETATM    8  C   UNL     1      24.024  47.915  49.369  1.00  0.00     0.084 A 
HETATM    9  C   UNL     1      22.928  48.575  48.785  1.00  0.00    -0.021 A 
HETATM   10  C   UNL     1      21.862  47.797  48.295  1.00  0.00     0.010 A 
HETATM   11  C   UNL     1      21.893  46.404  48.366  1.00  0.00     0.002 A 
HETATM   12  C   UNL     1      22.993  45.762  48.929  1.00  0.00     0.016 A 
BRANCH   8  13
HETATM   13  O   UNL     1      25.081  48.615  49.889  1.00  0.00    -0.359 OA
HETATM   14  H   UNL     1      25.861  48.471  49.328  1.00  0.00     0.218 HD
ENDBRANCH   8  13
BRANCH   9  15
HETATM   15  C   UNL     1      22.847  50.079  48.644  1.00  0.00     0.067 C 
BRANCH  15  16
HETATM   16  C   UNL     1      21.561  50.535  48.011  1.00  0.00    -0.032 C 
HETATM   17  C   UNL     1      20.713  51.410  48.569  1.00  0.00     0.007 C 
ENDBRANCH  15  16
ENDBRANCH   9  15
ENDBRANCH   6   7
ENDBRANCH   1   5
BRANCH   2  18
HETATM   18  C   UNL     1      28.052  44.396  53.520  1.00  0.00     0.061 A 
HETATM   19  C   UNL     1      28.730  44.823  54.680  1.00  0.00     0.058 A 
HETATM   20  C   UNL     1      29.891  44.216  55.159  1.00  0.00    -0.007 A 
HETATM   21  N   UNL     1      28.435  45.856  55.548  1.00  0.00    -0.364 N 
HETATM   22  C   UNL     1      30.281  44.916  56.335  1.00  0.00     0.030 A 
HETATM   23  C   UNL     1      30.420  43.119  54.455  1.00  0.00     0.014 A 
HETATM   24  C   UNL     1      29.365  45.921  56.549  1.00  0.00     0.089 A 
HETATM   25  C   UNL     1      29.770  42.669  53.303  1.00  0.00     0.002 A 
HETATM   26  C   UNL     1      28.607  43.294  52.843  1.00  0.00     0.019 A 
HETATM   27  H   UNL     1      27.629  46.462  55.425  1.00  0.00     0.165 HD
ENDBRANCH   2  18
TORSDOF 6
ENDMDL
MODEL 5
REMARK VINA RESULT:      -8.1      1.912      9.291
REMARK  6 active torsions:
REMARK  status: ('A' for Active; 'I' for Inactive)
REMARK    1  A    between atoms: C_2  and  C_3 
REMARK    2  A    between atoms: C_3  and  C_4 
REMARK    3  A    between atoms: C_5  and  O_6 
REMARK    4  A    between atoms: C_7  and  C_8 
REMARK    5  A    between atoms: N_9  and  N_10 
REMARK       I    between atoms: N_10  and  C_11 
REMARK    6  A    between atoms: C_11  and  C_12 
ROOT
HETATM    1  N   UNL     1      23.757  48.246  49.918  1.00  0.00    -0.243 N 
HETATM    2  C   UNL     1      22.634  48.108  49.115  1.00  0.00     0.274 C 
HETATM    3  O   UNL     1      22.354  47.084  48.492  1.00  0.00    -0.266 OA
HETATM    4  H   UNL     1      23.965  49.099  50.417  1.00  0.00     0.192 HD
ENDROOT
BRANCH   1   5
HETATM    5  N   UNL     1      24.633  47.205  50.026  1.00  0.00    -0.183 NA
HETATM    6  C   UNL     1      25.054  46.942  51.223  1.00  0.00     0.153 C 
BRANCH   6   7
HETATM    7  C   UNL     1      26.013  45.847  51.481  1.00  0.00     0.017 A 
HETATM    8  C   UNL     1      26.417  45.552  52.792  1.00  0.00     0.084 A 
HETATM    9  C   UNL     1      27.323  44.505  53.041  1.00  0.00    -0.021 A 
HETATM   10  C   UNL     1      27.832  43.785  51.943  1.00  0.00     0.010 A 
HETATM   11  C   UNL     1      27.438  44.086  50.639  1.00  0.00     0.002 A 
HETATM   12  C   UNL     1      26.526  45.112  50.407  1.00  0.00     0.016 A 
BRANCH   8  13
HETATM   13  O   UNL     1      25.905  46.307  53.815  1.00  0.00    -0.359 OA
HETATM   14  H   UNL     1      25.656  47.180  53.470  1.00  0.00     0.218 HD
ENDBRANCH   8  13
BRANCH   9  15
HETATM   15  C   UNL     1      27.763  44.104  54.431  1.00  0.00     0.067 C 
BRANCH  15  16
HETATM   16  C   UNL     1      29.248  44.233  54.632  1.00  0.00    -0.032 C 
HETATM   17  C   UNL     1      30.080  43.197  54.805  1.00  0.00     0.007 C 
ENDBRANCH  15  16
ENDBRANCH   9  15
ENDBRANCH   6   7
ENDBRANCH   1   5
BRANCH   2  18
HETATM   18  C   UNL     1      21.720  49.291  49.007  1.00  0.00     0.061 A 
HETATM   19  C   UNL     1      20.399  49.176  49.486  1.00  0.00     0.058 A 
HETATM   20  C   UNL     1      19.468  50.213  49.428  1.00  0.00    -0.007 A 
HETATM   21  N   UNL     1      19.762  48.103  50.078  1.00  0.00    -0.364 N 
HETATM   22  C   UNL     1      18.258  49.728  50.000  1.00  0.00     0.030 A 
HETATM   23  C   UNL     1      19.857  51.441  48.864  1.00  0.00     0.014 A 
HETATM   24  C   UNL     1      18.470  48.425  50.391  1.00  0.00     0.089 A 
HETATM   25  C   UNL     1      21.161  51.588  48.382  1.00  0.00     0.002 A 
HETATM   26  C   UNL     1      22.076  50.534  48.452  1.00  0.00     0.019 A 
HETATM   27  H   UNL     1      20.224  47.213  50.242  1.00  0.00     0.165 HD
ENDBRANCH   2  18
TORSDOF 6
ENDMDL
MODEL 6
REMARK VINA RESULT:      -8.0      1.903      3.004
REMARK  6 active torsions:
REMARK  status: ('A' for Active; 'I' for Inactive)
REMARK    1  A    between atoms: C_2  and  C_3 
REMARK    2  A    between atoms: C_3  and  C_4 
REMARK    3  A    between atoms: C_5  and  O_6 
REMARK    4  A    between atoms: C_7  and  C_8 
REMARK    5  A    between atoms: N_9  and  N_10 
REMARK       I    between atoms: N_10  and  C_11 
REMARK    6  A    between atoms: C_11  and  C_12 
ROOT
HETATM    1  N   UNL     1      26.072  46.558  51.861  1.00  0.00    -0.243 N 
HETATM    2  C   UNL     1      25.790  45.352  52.487  1.00  0.00     0.274 C 
HETATM    3  O   UNL     1      24.679  44.820  52.488  1.00  0.00    -0.266 OA
HETATM    4  H   UNL     1      26.991  46.975  51.878  1.00  0.00     0.192 HD
ENDROOT
BRANCH   1   5
HETATM    5  N   UNL     1      25.072  47.228  51.217  1.00  0.00    -0.183 NA
HETATM    6  C   UNL     1      25.368  47.696  50.046  1.00  0.00     0.153 C 
BRANCH   6   7
HETATM    7  C   UNL     1      24.381  48.449  49.243  1.00  0.00     0.017 A 
HETATM    8  C   UNL     1      23.116  47.903  48.979  1.00  0.00     0.084 A 
HETATM    9  C   UNL     1      22.172  48.622  48.223  1.00  0.00    -0.021 A 
HETATM   10  C   UNL     1      22.541  49.883  47.716  1.00  0.00     0.010 A 
HETATM   11  C   UNL     1      23.803  50.420  47.969  1.00  0.00     0.002 A 
HETATM   12  C   UNL     1      24.721  49.708  48.736  1.00  0.00     0.016 A 
BRANCH   8  13
HETATM   13  O   UNL     1      22.827  46.660  49.479  1.00  0.00    -0.359 OA
HETATM   14  H   UNL     1      22.067  46.295  48.997  1.00  0.00     0.218 HD
ENDBRANCH   8  13
BRANCH   9  15
HETATM   15  C   UNL     1      20.775  48.114  47.942  1.00  0.00     0.067 C 
BRANCH  15  16
HETATM   16  C   UNL     1      20.723  47.173  46.770  1.00  0.00    -0.032 C 
HETATM   17  C   UNL     1      20.126  45.973  46.790  1.00  0.00     0.007 C 
ENDBRANCH  15  16
ENDBRANCH   9  15
ENDBRANCH   6   7
ENDBRANCH   1   5
BRANCH   2  18
HETATM   18  C   UNL     1      26.915  44.674  53.205  1.00  0.00     0.061 A 
HETATM   19  C   UNL     1      27.235  43.342  52.866  1.00  0.00     0.058 A 
HETATM   20  C   UNL     1      28.259  42.619  53.477  1.00  0.00    -0.007 A 
HETATM   21  N   UNL     1      26.662  42.506  51.928  1.00  0.00    -0.364 N 
HETATM   22  C   UNL     1      28.279  41.327  52.879  1.00  0.00     0.030 A 
HETATM   23  C   UNL     1      29.019  43.240  54.485  1.00  0.00     0.014 A 
HETATM   24  C   UNL     1      27.284  41.288  51.929  1.00  0.00     0.089 A 
HETATM   25  C   UNL     1      28.729  44.560  54.842  1.00  0.00     0.002 A 
HETATM   26  C   UNL     1      27.698  45.265  54.214  1.00  0.00     0.019 A 
HETATM   27  H   UNL     1      25.886  42.794  51.339  1.00  0.00     0.165 HD
ENDBRANCH   2  18
TORSDOF 6
ENDMDL
MODEL 7
REMARK VINA RESULT:      -7.9      2.054      9.189
REMARK  6 active torsions:
REMARK  status: ('A' for Active; 'I' for Inactive)
REMARK    1  A    between atoms: C_2  and  C_3 
REMARK    2  A    between atoms: C_3  and  C_4 
REMARK    3  A    between atoms: C_5  and  O_6 
REMARK    4  A    between atoms: C_7  and  C_8 
REMARK    5  A    between atoms: N_9  and  N_10 
REMARK       I    between atoms: N_10  and  C_11 
REMARK    6  A    between atoms: C_11  and  C_12 
ROOT
HETATM    1  N   UNL     1      25.736  45.668  50.482  1.00  0.00    -0.243 N 
HETATM    2  C   UNL     1      24.902  46.777  50.501  1.00  0.00     0.274 C 
HETATM    3  O   UNL     1      25.016  47.712  51.294  1.00  0.00    -0.266 OA
HETATM    4  H   UNL     1      25.619  44.913  49.822  1.00  0.00     0.192 HD
ENDROOT
BRANCH   1   5
HETATM    5  N   UNL     1      26.741  45.573  51.400  1.00  0.00    -0.183 NA
HETATM    6  C   UNL     1      26.931  44.397  51.910  1.00  0.00     0.153 C 
BRANCH   6   7
HETATM    7  C   UNL     1      27.981  44.155  52.924  1.00  0.00     0.017 A 
HETATM    8  C   UNL     1      28.088  44.987  54.048  1.00  0.00     0.084 A 
HETATM    9  C   UNL     1      29.080  44.753  55.017  1.00  0.00    -0.021 A 
HETATM   10  C   UNL     1      29.976  43.685  54.814  1.00  0.00     0.010 A 
HETATM   11  C   UNL     1      29.875  42.864  53.690  1.00  0.00     0.002 A 
HETATM   12  C   UNL     1      28.877  43.095  52.748  1.00  0.00     0.016 A 
BRANCH   8  13
HETATM   13  O   UNL     1      27.202  46.026  54.174  1.00  0.00    -0.359 OA
HETATM   14  H   UNL     1      27.157  46.290  55.107  1.00  0.00     0.218 HD
ENDBRANCH   8  13
BRANCH   9  15
HETATM   15  C   UNL     1      29.221  45.582  56.274  1.00  0.00     0.067 C 
BRANCH  15  16
HETATM   16  C   UNL     1      30.461  45.246  57.056  1.00  0.00    -0.032 C 
HETATM   17  C   UNL     1      30.558  45.326  58.391  1.00  0.00     0.007 C 
ENDBRANCH  15  16
ENDBRANCH   9  15
ENDBRANCH   6   7
ENDBRANCH   1   5
BRANCH   2  18
HETATM   18  C   UNL     1      23.796  46.818  49.491  1.00  0.00     0.061 A 
HETATM   19  C   UNL     1      23.394  48.067  48.971  1.00  0.00     0.058 A 
HETATM   20  C   UNL     1      22.373  48.216  48.034  1.00  0.00    -0.007 A 
HETATM   21  N   UNL     1      23.874  49.333  49.242  1.00  0.00    -0.364 N 
HETATM   22  C   UNL     1      22.256  49.606  47.754  1.00  0.00     0.030 A 
HETATM   23  C   UNL     1      21.702  47.068  47.575  1.00  0.00     0.014 A 
HETATM   24  C   UNL     1      23.194  50.269  48.513  1.00  0.00     0.089 A 
HETATM   25  C   UNL     1      22.078  45.815  48.068  1.00  0.00     0.002 A 
HETATM   26  C   UNL     1      23.106  45.691  49.008  1.00  0.00     0.019 A 
HETATM   27  H   UNL     1      24.630  49.504  49.899  1.00  0.00     0.165 HD
ENDBRANCH   2  18
TORSDOF 6
ENDMDL
MODEL 8
REMARK VINA RESULT:      -7.8      3.540      6.354
REMARK  6 active torsions:
REMARK  status: ('A' for Active; 'I' for Inactive)
REMARK    1  A    between atoms: C_2  and  C_3 
REMARK    2  A    between atoms: C_3  and  C_4 
REMARK    3  A    between atoms: C_5  and  O_6 
REMARK    4  A    between atoms: C_7  and  C_8 
REMARK    5  A    between atoms: N_9  and  N_10 
REMARK       I    between atoms: N_10  and  C_11 
REMARK    6  A    between atoms: C_11  and  C_12 
ROOT
HETATM    1  N   UNL     1      22.023  50.149  49.135  1.00  0.00    -0.243 N 
HETATM    2  C   UNL     1      22.735  49.223  48.386  1.00  0.00     0.274 C 
HETATM    3  O   UNL     1      22.224  48.458  47.569  1.00  0.00    -0.266 OA
HETATM    4  H   UNL     1      22.466  50.764  49.801  1.00  0.00     0.192 HD
ENDROOT
BRANCH   1   5
HETATM    5  N   UNL     1      20.667  50.223  48.991  1.00  0.00    -0.183 NA
HETATM    6  C   UNL     1      20.162  51.416  49.004  1.00  0.00     0.153 C 
BRANCH   6   7
HETATM    7  C   UNL     1      18.706  51.640  48.867  1.00  0.00     0.017 A 
HETATM    8  C   UNL     1      18.005  51.103  47.778  1.00  0.00     0.084 A 
HETATM    9  C   UNL     1      16.619  51.308  47.651  1.00  0.00    -0.021 A 
HETATM   10  C   UNL     1      15.965  52.087  48.625  1.00  0.00     0.010 A 
HETATM   11  C   UNL     1      16.666  52.630  49.702  1.00  0.00     0.002 A 
HETATM   12  C   UNL     1      18.033  52.404  49.827  1.00  0.00     0.016 A 
BRANCH   8  13
HETATM   13  O   UNL     1      18.704  50.376  46.849  1.00  0.00    -0.359 OA
HETATM   14  H   UNL     1      19.244  50.981  46.316  1.00  0.00     0.218 HD
ENDBRANCH   8  13
BRANCH   9  15
HETATM   15  C   UNL     1      15.794  50.717  46.529  1.00  0.00     0.067 C 
BRANCH  15  16
HETATM   16  C   UNL     1      15.098  49.444  46.925  1.00  0.00    -0.032 C 
HETATM   17  C   UNL     1      15.603  48.541  47.777  1.00  0.00     0.007 C 
ENDBRANCH  15  16
ENDBRANCH   9  15
ENDBRANCH   6   7
ENDBRANCH   1   5
BRANCH   2  18
HETATM   18  C   UNL     1      24.216  49.162  48.604  1.00  0.00     0.061 A 
HETATM   19  C   UNL     1      24.736  48.185  49.478  1.00  0.00     0.058 A 
HETATM   20  C   UNL     1      26.096  48.046  49.754  1.00  0.00    -0.007 A 
HETATM   21  N   UNL     1      24.081  47.214  50.210  1.00  0.00    -0.364 N 
HETATM   22  C   UNL     1      26.234  46.967  50.672  1.00  0.00     0.030 A 
HETATM   23  C   UNL     1      27.005  48.921  49.133  1.00  0.00     0.014 A 
HETATM   24  C   UNL     1      24.975  46.474  50.934  1.00  0.00     0.089 A 
HETATM   25  C   UNL     1      26.523  49.898  48.257  1.00  0.00     0.002 A 
HETATM   26  C   UNL     1      25.154  50.017  47.996  1.00  0.00     0.019 A 
HETATM   27  H   UNL     1      23.072  47.097  50.186  1.00  0.00     0.165 HD
ENDBRANCH   2  18
TORSDOF 6
ENDMDL
MODEL 9
REMARK VINA RESULT:      -7.4      5.536      8.744
REMARK  6 active torsions:
REMARK  status: ('A' for Active; 'I' for Inactive)
REMARK    1  A    between atoms: C_2  and  C_3 
REMARK    2  A    between atoms: C_3  and  C_4 
REMARK    3  A    between atoms: C_5  and  O_6 
REMARK    4  A    between atoms: C_7  and  C_8 
REMARK    5  A    between atoms: N_9  and  N_10 
REMARK       I    between atoms: N_10  and  C_11 
REMARK    6  A    between atoms: C_11  and  C_12 
ROOT
HETATM    1  N   UNL     1      27.640  42.106  51.873  1.00  0.00    -0.243 N 
HETATM    2  C   UNL     1      27.696  43.491  51.809  1.00  0.00     0.274 C 
HETATM    3  O   UNL     1      27.531  44.140  50.776  1.00  0.00    -0.266 OA
HETATM    4  H   UNL     1      27.782  41.597  52.733  1.00  0.00     0.192 HD
ENDROOT
BRANCH   1   5
HETATM    5  N   UNL     1      27.410  41.393  50.732  1.00  0.00    -0.183 NA
HETATM    6  C   UNL     1      28.422  40.733  50.264  1.00  0.00     0.153 C 
BRANCH   6   7
HETATM    7  C   UNL     1      28.314  39.926  49.029  1.00  0.00     0.017 A 
HETATM    8  C   UNL     1      27.932  40.527  47.820  1.00  0.00     0.084 A 
HETATM    9  C   UNL     1      27.837  39.763  46.643  1.00  0.00    -0.021 A 
HETATM   10  C   UNL     1      28.106  38.382  46.718  1.00  0.00     0.010 A 
HETATM   11  C   UNL     1      28.475  37.784  47.923  1.00  0.00     0.002 A 
HETATM   12  C   UNL     1      28.584  38.554  49.077  1.00  0.00     0.016 A 
BRANCH   8  13
HETATM   13  O   UNL     1      27.659  41.870  47.820  1.00  0.00    -0.359 OA
HETATM   14  H   UNL     1      27.339  42.127  46.939  1.00  0.00     0.218 HD
ENDBRANCH   8  13
BRANCH   9  15
HETATM   15  C   UNL     1      27.478  40.355  45.298  1.00  0.00     0.067 C 
BRANCH  15  16
HETATM   16  C   UNL     1      28.447  39.969  44.215  1.00  0.00    -0.032 C 
HETATM   17  C   UNL     1      29.202  40.840  43.531  1.00  0.00     0.007 C 
ENDBRANCH  15  16
ENDBRANCH   9  15
ENDBRANCH   6   7
ENDBRANCH   1   5
BRANCH   2  18
HETATM   18  C   UNL     1      27.982  44.224  53.084  1.00  0.00     0.061 A 
HETATM   19  C   UNL     1      27.223  45.372  53.394  1.00  0.00     0.058 A 
HETATM   20  C   UNL     1      27.412  46.129  54.550  1.00  0.00    -0.007 A 
HETATM   21  N   UNL     1      26.198  45.972  52.689  1.00  0.00    -0.364 N 
HETATM   22  C   UNL     1      26.473  47.198  54.514  1.00  0.00     0.030 A 
HETATM   23  C   UNL     1      28.408  45.735  55.461  1.00  0.00     0.014 A 
HETATM   24  C   UNL     1      25.739  47.074  53.356  1.00  0.00     0.089 A 
HETATM   25  C   UNL     1      29.176  44.600  55.185  1.00  0.00     0.002 A 
HETATM   26  C   UNL     1      28.967  43.858  54.019  1.00  0.00     0.019 A 
HETATM   27  H   UNL     1      25.860  45.613  51.801  1.00  0.00     0.165 HD
ENDBRANCH   2  18
TORSDOF 6
ENDMDL
MODEL 10
REMARK VINA RESULT:      -7.3     12.568     15.528
REMARK  6 active torsions:
REMARK  status: ('A' for Active; 'I' for Inactive)
REMARK    1  A    between atoms: C_2  and  C_3 
REMARK    2  A    between atoms: C_3  and  C_4 
REMARK    3  A    between atoms: C_5  and  O_6 
REMARK    4  A    between atoms: C_7  and  C_8 
REMARK    5  A    between atoms: N_9  and  N_10 
REMARK       I    between atoms: N_10  and  C_11 
REMARK    6  A    between atoms: C_11  and  C_12 
ROOT
HETATM    1  N   UNL     1      34.140  51.714  43.007  1.00  0.00    -0.243 N 
HETATM    2  C   UNL     1      32.912  51.539  43.629  1.00  0.00     0.274 C 
HETATM    3  O   UNL     1      32.644  51.959  44.756  1.00  0.00    -0.266 OA
HETATM    4  H   UNL     1      34.335  51.358  42.083  1.00  0.00     0.192 HD
ENDROOT
BRANCH   1   5
HETATM    5  N   UNL     1      35.137  52.372  43.669  1.00  0.00    -0.183 NA
HETATM    6  C   UNL     1      36.212  52.604  42.984  1.00  0.00     0.153 C 
BRANCH   6   7
HETATM    7  C   UNL     1      37.373  53.300  43.581  1.00  0.00     0.017 A 
HETATM    8  C   UNL     1      38.010  52.772  44.714  1.00  0.00     0.084 A 
HETATM    9  C   UNL     1      39.120  53.427  45.278  1.00  0.00    -0.021 A 
HETATM   10  C   UNL     1      39.551  54.635  44.696  1.00  0.00     0.010 A 
HETATM   11  C   UNL     1      38.909  55.165  43.577  1.00  0.00     0.002 A 
HETATM   12  C   UNL     1      37.824  54.497  43.016  1.00  0.00     0.016 A 
BRANCH   8  13
HETATM   13  O   UNL     1      37.526  51.607  45.248  1.00  0.00    -0.359 OA
HETATM   14  H   UNL     1      37.697  51.603  46.205  1.00  0.00     0.218 HD
ENDBRANCH   8  13
BRANCH   9  15
HETATM   15  C   UNL     1      39.882  52.889  46.468  1.00  0.00     0.067 C 
BRANCH  15  16
HETATM   16  C   UNL     1      39.721  53.741  47.697  1.00  0.00    -0.032 C 
HETATM   17  C   UNL     1      38.574  53.877  48.376  1.00  0.00     0.007 C 
ENDBRANCH  15  16
ENDBRANCH   9  15
ENDBRANCH   6   7
ENDBRANCH   1   5
BRANCH   2  18
HETATM   18  C   UNL     1      31.863  50.784  42.872  1.00  0.00     0.061 A 
HETATM   19  C   UNL     1      31.010  51.493  42.000  1.00  0.00     0.058 A 
HETATM   20  C   UNL     1      29.999  50.889  41.254  1.00  0.00    -0.007 A 
HETATM   21  N   UNL     1      30.974  52.841  41.700  1.00  0.00    -0.364 N 
HETATM   22  C   UNL     1      29.357  51.913  40.503  1.00  0.00     0.030 A 
HETATM   23  C   UNL     1      29.811  49.500  41.370  1.00  0.00     0.014 A 
HETATM   24  C   UNL     1      29.980  53.105  40.798  1.00  0.00     0.089 A 
HETATM   25  C   UNL     1      30.641  48.767  42.223  1.00  0.00     0.002 A 
HETATM   26  C   UNL     1      31.649  49.396  42.960  1.00  0.00     0.019 A 
HETATM   27  H   UNL     1      31.615  53.512  42.113  1.00  0.00     0.165 HD
ENDBRANCH   2  18
TORSDOF 6
ENDMDL
