MODEL 1
REMARK VINA RESULT:      -8.2      0.000      0.000
REMARK  5 active torsions:
REMARK  status: ('A' for Active; 'I' for Inactive)
REMARK    1  A    between atoms: C_8  and  C_9 
REMARK       I    between atoms: N_10  and  C_11 
REMARK       I    between atoms: C_11  and  N_12 
REMARK    2  A    between atoms: N_12  and  C_13 
REMARK    3  A    between atoms: C_15  and  O_16 
REMARK    4  A    between atoms: O_16  and  C_17 
REMARK    5  A    between atoms: C_17  and  C_18 
ROOT
HETATM    1  C   UNL     1      22.711  47.543  48.028  1.00  0.00     0.126 C 
HETATM    2  N   UNL     1      23.107  46.623  49.089  1.00  0.00    -0.325 N 
HETATM    3  C   UNL     1      24.200  46.903  49.899  1.00  0.00     0.323 C 
HETATM    4  N   UNL     1      24.249  46.077  51.004  1.00  0.00    -0.309 N 
HETATM    5  O   UNL     1      24.976  47.822  49.660  1.00  0.00    -0.247 OA
HETATM    6  C   UNL     1      22.668  45.265  48.796  1.00  0.00     0.128 C 
HETATM    7  C   UNL     1      22.307  45.295  47.319  1.00  0.00     0.022 C 
HETATM    8  C   UNL     1      21.783  46.711  47.132  1.00  0.00     0.032 C 
HETATM    9  H   UNL     1      23.354  45.688  51.257  1.00  0.00     0.170 HD
ENDROOT
BRANCH   4  10
HETATM   10  C   UNL     1      25.239  46.071  52.002  1.00  0.00     0.039 A 
HETATM   11  C   UNL     1      25.998  44.906  52.153  1.00  0.00     0.066 A 
HETATM   12  C   UNL     1      26.972  44.809  53.151  1.00  0.00     0.071 A 
HETATM   13  C   UNL     1      27.247  45.915  53.953  1.00  0.00     0.037 A 
HETATM   14  C   UNL     1      26.511  47.091  53.789  1.00  0.00     0.005 A 
HETATM   15  C   UNL     1      25.503  47.165  52.826  1.00  0.00     0.030 A 
BRANCH  12  16
HETATM   16  O   UNL     1      27.585  43.589  53.238  1.00  0.00    -0.347 OA
BRANCH  16  17
HETATM   17  C   UNL     1      28.212  43.283  54.485  1.00  0.00     0.208 C 
BRANCH  17  18
HETATM   18  C   UNL     1      29.691  43.094  54.243  1.00  0.00    -0.069 C 
HETATM   19  C   UNL     1      30.592  43.289  55.429  1.00  0.00     0.044 C 
HETATM   20  C   UNL     1      30.181  42.762  53.036  1.00  0.00     0.016 C 
ENDBRANCH  17  18
ENDBRANCH  16  17
ENDBRANCH  12  16
ENDBRANCH   4  10
BRANCH   1  21
HETATM   21  C   UNL     1      22.020  48.763  48.566  1.00  0.00     0.014 A 
HETATM   22  C   UNL     1      22.500  50.063  48.526  1.00  0.00     0.034 A 
HETATM   23  C   UNL     1      23.761  50.631  47.997  1.00  0.00     0.070 C 
HETATM   24  N   UNL     1      21.550  50.840  49.123  1.00  0.00    -0.282 N 
HETATM   25  H   UNL     1      21.572  51.841  49.289  1.00  0.00     0.189 HD
HETATM   26  N   UNL     1      20.463  50.164  49.505  1.00  0.00    -0.179 NA
HETATM   27  C   UNL     1      20.741  48.893  49.193  1.00  0.00     0.061 A 
HETATM   28  C   UNL     1      19.743  47.841  49.512  1.00  0.00     0.073 C 
ENDBRANCH   1  21
TORSDOF 5
ENDMDL
MODEL 2
REMARK VINA RESULT:      -7.9      3.090      8.270
REMARK  5 active torsions:
REMARK  status: ('A' for Active; 'I' for Inactive)
REMARK    1  A    between atoms: C_8  and  C_9 
REMARK       I    between atoms: N_10  and  C_11 
REMARK       I    between atoms: C_11  and  N_12 
REMARK    2  A    between atoms: N_12  and  C_13 
REMARK    3  A    between atoms: C_15  and  O_16 
REMARK    4  A    between atoms: O_16  and  C_17 
REMARK    5  A    between atoms: C_17  and  C_18 
ROOT
HETATM    1  C   UNL     1      27.357  43.368  51.534  1.00  0.00     0.126 C 
HETATM    2  N   UNL     1      26.834  44.727  51.625  1.00  0.00    -0.325 N 
HETATM    3  C   UNL     1      26.930  45.598  50.548  1.00  0.00     0.323 C 
HETATM    4  N   UNL     1      26.144  46.720  50.720  1.00  0.00    -0.309 N 
HETATM    5  O   UNL     1      27.599  45.341  49.553  1.00  0.00    -0.247 OA
HETATM    6  C   UNL     1      26.797  45.182  53.009  1.00  0.00     0.128 C 
HETATM    7  C   UNL     1      27.677  44.193  53.756  1.00  0.00     0.022 C 
HETATM    8  C   UNL     1      27.446  42.897  52.992  1.00  0.00     0.032 C 
HETATM    9  H   UNL     1      25.375  46.581  51.357  1.00  0.00     0.170 HD
ENDROOT
BRANCH   4  10
HETATM   10  C   UNL     1      26.036  47.810  49.838  1.00  0.00     0.039 A 
HETATM   11  C   UNL     1      24.769  48.100  49.320  1.00  0.00     0.066 A 
HETATM   12  C   UNL     1      24.589  49.141  48.406  1.00  0.00     0.071 A 
HETATM   13  C   UNL     1      25.670  49.952  48.066  1.00  0.00     0.037 A 
HETATM   14  C   UNL     1      26.932  49.685  48.600  1.00  0.00     0.005 A 
HETATM   15  C   UNL     1      27.118  48.611  49.473  1.00  0.00     0.030 A 
BRANCH  12  16
HETATM   16  O   UNL     1      23.316  49.265  47.920  1.00  0.00    -0.347 OA
BRANCH  16  17
HETATM   17  C   UNL     1      22.845  50.597  47.709  1.00  0.00     0.208 C 
BRANCH  17  18
HETATM   18  C   UNL     1      21.820  50.917  48.772  1.00  0.00    -0.069 C 
HETATM   19  C   UNL     1      20.478  51.388  48.287  1.00  0.00     0.044 C 
HETATM   20  C   UNL     1      22.086  50.783  50.083  1.00  0.00     0.016 C 
ENDBRANCH  17  18
ENDBRANCH  16  17
ENDBRANCH  12  16
ENDBRANCH   4  10
BRANCH   1  21
HETATM   21  C   UNL     1      26.473  42.476  50.712  1.00  0.00     0.014 A 
HETATM   22  C   UNL     1      26.860  41.319  50.052  1.00  0.00     0.034 A 
HETATM   23  C   UNL     1      28.173  40.645  49.934  1.00  0.00     0.070 C 
HETATM   24  N   UNL     1      25.740  40.835  49.441  1.00  0.00    -0.282 N 
HETATM   25  H   UNL     1      25.652  40.013  48.852  1.00  0.00     0.189 HD
HETATM   26  N   UNL     1      24.639  41.550  49.689  1.00  0.00    -0.179 NA
HETATM   27  C   UNL     1      25.072  42.565  50.445  1.00  0.00     0.061 A 
HETATM   28  C   UNL     1      24.097  43.594  50.889  1.00  0.00     0.073 C 
ENDBRANCH   1  21
TORSDOF 5
ENDMDL
MODEL 3
REMARK VINA RESULT:      -7.9      2.037      3.350
REMARK  5 active torsions:
REMARK  status: ('A' for Active; 'I' for Inactive)
REMARK    1  A    between atoms: C_8  and  C_9 
REMARK       I    between atoms: N_10  and  C_11 
REMARK       I    between atoms: C_11  and  N_12 
REMARK    2  A    between atoms: N_12  and  C_13 
REMARK    3  A    between atoms: C_15  and  O_16 
REMARK    4  A    between atoms: O_16  and  C_17 
REMARK    5  A    between atoms: C_17  and  C_18 
ROOT
HETATM    1  C   UNL     1      21.333  48.310  47.839  1.00  0.00     0.126 C 
HETATM    2  N   UNL     1      21.884  47.065  48.363  1.00  0.00    -0.325 N 
HETATM    3  C   UNL     1      23.174  47.020  48.876  1.00  0.00     0.323 C 
HETATM    4  N   UNL     1      23.413  45.851  49.570  1.00  0.00    -0.309 N 
HETATM    5  O   UNL     1      23.961  47.953  48.757  1.00  0.00    -0.247 OA
HETATM    6  C   UNL     1      21.233  45.909  47.761  1.00  0.00     0.128 C 
HETATM    7  C   UNL     1      20.507  46.473  46.550  1.00  0.00     0.022 C 
HETATM    8  C   UNL     1      20.117  47.868  47.014  1.00  0.00     0.032 C 
HETATM    9  H   UNL     1      22.576  45.409  49.917  1.00  0.00     0.170 HD
ENDROOT
BRANCH   4  10
HETATM   10  C   UNL     1      24.621  45.474  50.184  1.00  0.00     0.039 A 
HETATM   11  C   UNL     1      24.786  45.791  51.536  1.00  0.00     0.066 A 
HETATM   12  C   UNL     1      25.975  45.486  52.205  1.00  0.00     0.071 A 
HETATM   13  C   UNL     1      26.978  44.785  51.538  1.00  0.00     0.037 A 
HETATM   14  C   UNL     1      26.809  44.442  50.195  1.00  0.00     0.005 A 
HETATM   15  C   UNL     1      25.641  44.795  49.516  1.00  0.00     0.030 A 
BRANCH  12  16
HETATM   16  O   UNL     1      26.033  45.922  53.500  1.00  0.00    -0.347 OA
BRANCH  16  17
HETATM   17  C   UNL     1      25.901  47.330  53.702  1.00  0.00     0.208 C 
BRANCH  17  18
HETATM   18  C   UNL     1      26.762  47.727  54.879  1.00  0.00    -0.069 C 
HETATM   19  C   UNL     1      28.128  47.106  54.947  1.00  0.00     0.044 C 
HETATM   20  C   UNL     1      26.337  48.594  55.814  1.00  0.00     0.016 C 
ENDBRANCH  17  18
ENDBRANCH  16  17
ENDBRANCH  12  16
ENDBRANCH   4  10
BRANCH   1  21
HETATM   21  C   UNL     1      20.949  49.263  48.933  1.00  0.00     0.014 A 
HETATM   22  C   UNL     1      19.894  49.113  49.821  1.00  0.00     0.034 A 
HETATM   23  C   UNL     1      18.868  48.054  49.960  1.00  0.00     0.070 C 
HETATM   24  N   UNL     1      19.921  50.207  50.637  1.00  0.00    -0.282 N 
HETATM   25  H   UNL     1      19.285  50.442  51.391  1.00  0.00     0.189 HD
HETATM   26  N   UNL     1      20.939  51.037  50.391  1.00  0.00    -0.179 NA
HETATM   27  C   UNL     1      21.563  50.488  49.342  1.00  0.00     0.061 A 
HETATM   28  C   UNL     1      22.749  51.177  48.773  1.00  0.00     0.073 C 
ENDBRANCH   1  21
TORSDOF 5
ENDMDL
MODEL 4
REMARK VINA RESULT:      -7.9      1.406      1.956
REMARK  5 active torsions:
REMARK  status: ('A' for Active; 'I' for Inactive)
REMARK    1  A    between atoms: C_8  and  C_9 
REMARK       I    between atoms: N_10  and  C_11 
REMARK       I    between atoms: C_11  and  N_12 
REMARK    2  A    between atoms: N_12  and  C_13 
REMARK    3  A    between atoms: C_15  and  O_16 
REMARK    4  A    between atoms: O_16  and  C_17 
REMARK    5  A    between atoms: C_17  and  C_18 
ROOT
HETATM    1  C   UNL     1      24.134  47.042  48.840  1.00  0.00     0.126 C 
HETATM    2  N   UNL     1      24.259  46.501  50.189  1.00  0.00    -0.325 N 
HETATM    3  C   UNL     1      25.300  46.896  51.018  1.00  0.00     0.323 C 
HETATM    4  N   UNL     1      25.097  46.503  52.326  1.00  0.00    -0.309 N 
HETATM    5  O   UNL     1      26.245  47.565  50.613  1.00  0.00    -0.247 OA
HETATM    6  C   UNL     1      23.619  45.196  50.291  1.00  0.00     0.128 C 
HETATM    7  C   UNL     1      23.413  44.762  48.849  1.00  0.00     0.022 C 
HETATM    8  C   UNL     1      23.165  46.083  48.135  1.00  0.00     0.032 C 
HETATM    9  H   UNL     1      24.127  46.347  52.554  1.00  0.00     0.170 HD
ENDROOT
BRANCH   4  10
HETATM   10  C   UNL     1      25.970  46.712  53.409  1.00  0.00     0.039 A 
HETATM   11  C   UNL     1      26.914  45.715  53.678  1.00  0.00     0.066 A 
HETATM   12  C   UNL     1      27.789  45.831  54.762  1.00  0.00     0.071 A 
HETATM   13  C   UNL     1      27.775  46.990  55.536  1.00  0.00     0.037 A 
HETATM   14  C   UNL     1      26.852  48.000  55.255  1.00  0.00     0.005 A 
HETATM   15  C   UNL     1      25.945  47.857  54.203  1.00  0.00     0.030 A 
BRANCH  12  16
HETATM   16  O   UNL     1      28.606  44.752  54.958  1.00  0.00    -0.347 OA
BRANCH  16  17
HETATM   17  C   UNL     1      29.755  44.967  55.780  1.00  0.00     0.208 C 
BRANCH  17  18
HETATM   18  C   UNL     1      30.648  43.753  55.682  1.00  0.00    -0.069 C 
HETATM   19  C   UNL     1      30.551  42.952  54.414  1.00  0.00     0.044 C 
HETATM   20  C   UNL     1      31.492  43.405  56.668  1.00  0.00     0.016 C 
ENDBRANCH  17  18
ENDBRANCH  16  17
ENDBRANCH  12  16
ENDBRANCH   4  10
BRANCH   1  21
HETATM   21  C   UNL     1      23.619  48.453  48.842  1.00  0.00     0.014 A 
HETATM   22  C   UNL     1      24.369  49.600  48.631  1.00  0.00     0.034 A 
HETATM   23  C   UNL     1      25.813  49.800  48.372  1.00  0.00     0.070 C 
HETATM   24  N   UNL     1      23.498  50.648  48.718  1.00  0.00    -0.282 N 
HETATM   25  H   UNL     1      23.698  51.639  48.636  1.00  0.00     0.189 HD
HETATM   26  N   UNL     1      22.229  50.278  48.917  1.00  0.00    -0.179 NA
HETATM   27  C   UNL     1      22.288  48.945  49.016  1.00  0.00     0.061 A 
HETATM   28  C   UNL     1      21.036  48.188  49.274  1.00  0.00     0.073 C 
ENDBRANCH   1  21
TORSDOF 5
ENDMDL
MODEL 5
REMARK VINA RESULT:      -7.4      2.391      3.443
REMARK  5 active torsions:
REMARK  status: ('A' for Active; 'I' for Inactive)
REMARK    1  A    between atoms: C_8  and  C_9 
REMARK       I    between atoms: N_10  and  C_11 
REMARK       I    between atoms: C_11  and  N_12 
REMARK    2  A    between atoms: N_12  and  C_13 
REMARK    3  A    between atoms: C_15  and  O_16 
REMARK    4  A    between atoms: O_16  and  C_17 
REMARK    5  A    between atoms: C_17  and  C_18 
ROOT
HETATM    1  C   UNL     1      21.287  48.316  47.837  1.00  0.00     0.126 C 
HETATM    2  N   UNL     1      21.777  47.040  48.348  1.00  0.00    -0.325 N 
HETATM    3  C   UNL     1      23.055  46.932  48.879  1.00  0.00     0.323 C 
HETATM    4  N   UNL     1      23.234  45.743  49.557  1.00  0.00    -0.309 N 
HETATM    5  O   UNL     1      23.883  47.832  48.787  1.00  0.00    -0.247 OA
HETATM    6  C   UNL     1      21.086  45.923  47.717  1.00  0.00     0.128 C 
HETATM    7  C   UNL     1      20.403  46.537  46.505  1.00  0.00     0.022 C 
HETATM    8  C   UNL     1      20.066  47.940  46.987  1.00  0.00     0.032 C 
HETATM    9  H   UNL     1      22.374  45.331  49.884  1.00  0.00     0.170 HD
ENDROOT
BRANCH   4  10
HETATM   10  C   UNL     1      24.416  45.304  50.181  1.00  0.00     0.039 A 
HETATM   11  C   UNL     1      25.299  44.531  49.421  1.00  0.00     0.066 A 
HETATM   12  C   UNL     1      26.474  44.024  49.983  1.00  0.00     0.071 A 
HETATM   13  C   UNL     1      26.809  44.359  51.294  1.00  0.00     0.037 A 
HETATM   14  C   UNL     1      25.944  45.153  52.050  1.00  0.00     0.005 A 
HETATM   15  C   UNL     1      24.746  45.614  51.500  1.00  0.00     0.030 A 
BRANCH  12  16
HETATM   16  O   UNL     1      27.207  43.220  49.154  1.00  0.00    -0.347 OA
BRANCH  16  17
HETATM   17  C   UNL     1      26.591  41.996  48.749  1.00  0.00     0.208 C 
BRANCH  17  18
HETATM   18  C   UNL     1      27.102  40.886  49.637  1.00  0.00    -0.069 C 
HETATM   19  C   UNL     1      26.149  40.369  50.677  1.00  0.00     0.044 C 
HETATM   20  C   UNL     1      28.340  40.379  49.506  1.00  0.00     0.016 C 
ENDBRANCH  17  18
ENDBRANCH  16  17
ENDBRANCH  12  16
ENDBRANCH   4  10
BRANCH   1  21
HETATM   21  C   UNL     1      20.927  49.267  48.942  1.00  0.00     0.014 A 
HETATM   22  C   UNL     1      19.882  49.122  49.842  1.00  0.00     0.034 A 
HETATM   23  C   UNL     1      18.846  48.074  49.988  1.00  0.00     0.070 C 
HETATM   24  N   UNL     1      19.931  50.211  50.663  1.00  0.00    -0.282 N 
HETATM   25  H   UNL     1      19.307  50.449  51.427  1.00  0.00     0.189 HD
HETATM   26  N   UNL     1      20.954  51.032  50.409  1.00  0.00    -0.179 NA
HETATM   27  C   UNL     1      21.559  50.483  49.349  1.00  0.00     0.061 A 
HETATM   28  C   UNL     1      22.745  51.163  48.769  1.00  0.00     0.073 C 
ENDBRANCH   1  21
TORSDOF 5
ENDMDL
MODEL 6
REMARK VINA RESULT:      -7.4      8.187     12.420
REMARK  5 active torsions:
REMARK  status: ('A' for Active; 'I' for Inactive)
REMARK    1  A    between atoms: C_8  and  C_9 
REMARK       I    between atoms: N_10  and  C_11 
REMARK       I    between atoms: C_11  and  N_12 
REMARK    2  A    between atoms: N_12  and  C_13 
REMARK    3  A    between atoms: C_15  and  O_16 
REMARK    4  A    between atoms: O_16  and  C_17 
REMARK    5  A    between atoms: C_17  and  C_18 
ROOT
HETATM    1  C   UNL     1      17.782  50.117  47.284  1.00  0.00     0.126 C 
HETATM    2  N   UNL     1      17.251  51.473  47.353  1.00  0.00    -0.325 N 
HETATM    3  C   UNL     1      16.182  51.776  48.185  1.00  0.00     0.323 C 
HETATM    4  N   UNL     1      16.006  53.139  48.326  1.00  0.00    -0.309 N 
HETATM    5  O   UNL     1      15.530  50.910  48.759  1.00  0.00    -0.247 OA
HETATM    6  C   UNL     1      17.527  52.206  46.123  1.00  0.00     0.128 C 
HETATM    7  C   UNL     1      17.924  51.132  45.124  1.00  0.00     0.022 C 
HETATM    8  C   UNL     1      18.621  50.102  46.000  1.00  0.00     0.032 C 
HETATM    9  H   UNL     1      16.841  53.674  48.144  1.00  0.00     0.170 HD
ENDROOT
BRANCH   4  10
HETATM   10  C   UNL     1      15.000  53.781  49.069  1.00  0.00     0.039 A 
HETATM   11  C   UNL     1      15.283  54.097  50.402  1.00  0.00     0.066 A 
HETATM   12  C   UNL     1      14.320  54.699  51.217  1.00  0.00     0.071 A 
HETATM   13  C   UNL     1      13.089  55.061  50.672  1.00  0.00     0.037 A 
HETATM   14  C   UNL     1      12.810  54.772  49.335  1.00  0.00     0.005 A 
HETATM   15  C   UNL     1      13.756  54.124  48.539  1.00  0.00     0.030 A 
BRANCH  12  16
HETATM   16  O   UNL     1      14.701  54.882  52.517  1.00  0.00    -0.347 OA
BRANCH  16  17
HETATM   17  C   UNL     1      14.118  55.993  53.199  1.00  0.00     0.208 C 
BRANCH  17  18
HETATM   18  C   UNL     1      15.144  57.100  53.276  1.00  0.00    -0.069 C 
HETATM   19  C   UNL     1      16.069  57.072  54.459  1.00  0.00     0.044 C 
HETATM   20  C   UNL     1      15.234  58.057  52.336  1.00  0.00     0.016 C 
ENDBRANCH  17  18
ENDBRANCH  16  17
ENDBRANCH  12  16
ENDBRANCH   4  10
BRANCH   1  21
HETATM   21  C   UNL     1      18.604  49.770  48.492  1.00  0.00     0.014 A 
HETATM   22  C   UNL     1      18.453  48.648  49.293  1.00  0.00     0.034 A 
HETATM   23  C   UNL     1      17.496  47.520  49.238  1.00  0.00     0.070 C 
HETATM   24  N   UNL     1      19.408  48.740  50.264  1.00  0.00    -0.282 N 
HETATM   25  H   UNL     1      19.582  48.105  51.036  1.00  0.00     0.189 HD
HETATM   26  N   UNL     1      20.208  49.804  50.134  1.00  0.00    -0.179 NA
HETATM   27  C   UNL     1      19.718  50.453  49.072  1.00  0.00     0.061 A 
HETATM   28  C   UNL     1      20.360  51.725  48.651  1.00  0.00     0.073 C 
ENDBRANCH   1  21
TORSDOF 5
ENDMDL
MODEL 7
REMARK VINA RESULT:      -7.3      5.725      8.250
REMARK  5 active torsions:
REMARK  status: ('A' for Active; 'I' for Inactive)
REMARK    1  A    between atoms: C_8  and  C_9 
REMARK       I    between atoms: N_10  and  C_11 
REMARK       I    between atoms: C_11  and  N_12 
REMARK    2  A    between atoms: N_12  and  C_13 
REMARK    3  A    between atoms: C_15  and  O_16 
REMARK    4  A    between atoms: O_16  and  C_17 
REMARK    5  A    between atoms: C_17  and  C_18 
ROOT
HETATM    1  C   UNL     1      28.432  39.139  47.972  1.00  0.00     0.126 C 
HETATM    2  N   UNL     1      28.279  39.603  49.347  1.00  0.00    -0.325 N 
HETATM    3  C   UNL     1      27.876  40.904  49.617  1.00  0.00     0.323 C 
HETATM    4  N   UNL     1      27.520  41.071  50.940  1.00  0.00    -0.309 N 
HETATM    5  O   UNL     1      27.801  41.763  48.744  1.00  0.00    -0.247 OA
HETATM    6  C   UNL     1      29.115  38.830  50.257  1.00  0.00     0.128 C 
HETATM    7  C   UNL     1      30.094  38.106  49.346  1.00  0.00     0.022 C 
HETATM    8  C   UNL     1      29.265  37.857  48.095  1.00  0.00     0.032 C 
HETATM    9  H   UNL     1      27.246  40.214  51.395  1.00  0.00     0.170 HD
ENDROOT
BRANCH   4  10
HETATM   10  C   UNL     1      27.099  42.266  51.550  1.00  0.00     0.039 A 
HETATM   11  C   UNL     1      28.002  42.907  52.405  1.00  0.00     0.066 A 
HETATM   12  C   UNL     1      27.643  44.076  53.081  1.00  0.00     0.071 A 
HETATM   13  C   UNL     1      26.399  44.656  52.837  1.00  0.00     0.037 A 
HETATM   14  C   UNL     1      25.504  44.036  51.964  1.00  0.00     0.005 A 
HETATM   15  C   UNL     1      25.847  42.839  51.332  1.00  0.00     0.030 A 
BRANCH  12  16
HETATM   16  O   UNL     1      28.590  44.555  53.944  1.00  0.00    -0.347 OA
BRANCH  16  17
HETATM   17  C   UNL     1      29.516  43.598  54.462  1.00  0.00     0.208 C 
BRANCH  17  18
HETATM   18  C   UNL     1      30.248  44.223  55.627  1.00  0.00    -0.069 C 
HETATM   19  C   UNL     1      29.862  45.631  55.981  1.00  0.00     0.044 C 
HETATM   20  C   UNL     1      31.190  43.558  56.318  1.00  0.00     0.016 C 
ENDBRANCH  17  18
ENDBRANCH  16  17
ENDBRANCH  12  16
ENDBRANCH   4  10
BRANCH   1  21
HETATM   21  C   UNL     1      27.109  38.884  47.311  1.00  0.00     0.014 A 
HETATM   22  C   UNL     1      26.573  39.592  46.245  1.00  0.00     0.034 A 
HETATM   23  C   UNL     1      27.082  40.753  45.480  1.00  0.00     0.070 C 
HETATM   24  N   UNL     1      25.366  39.018  45.972  1.00  0.00    -0.282 N 
HETATM   25  H   UNL     1      24.687  39.288  45.268  1.00  0.00     0.189 HD
HETATM   26  N   UNL     1      25.088  37.957  46.737  1.00  0.00    -0.179 NA
HETATM   27  C   UNL     1      26.130  37.875  47.573  1.00  0.00     0.061 A 
HETATM   28  C   UNL     1      26.141  36.805  48.603  1.00  0.00     0.073 C 
ENDBRANCH   1  21
TORSDOF 5
ENDMDL
MODEL 8
REMARK VINA RESULT:      -7.2      2.520      4.384
REMARK  5 active torsions:
REMARK  status: ('A' for Active; 'I' for Inactive)
REMARK    1  A    between atoms: C_8  and  C_9 
REMARK       I    between atoms: N_10  and  C_11 
REMARK       I    between atoms: C_11  and  N_12 
REMARK    2  A    between atoms: N_12  and  C_13 
REMARK    3  A    between atoms: C_15  and  O_16 
REMARK    4  A    between atoms: O_16  and  C_17 
REMARK    5  A    between atoms: C_17  and  C_18 
ROOT
HETATM    1  C   UNL     1      20.507  48.905  47.671  1.00  0.00     0.126 C 
HETATM    2  N   UNL     1      20.383  47.500  48.043  1.00  0.00    -0.325 N 
HETATM    3  C   UNL     1      21.499  46.676  48.087  1.00  0.00     0.323 C 
HETATM    4  N   UNL     1      21.233  45.478  48.720  1.00  0.00    -0.309 N 
HETATM    5  O   UNL     1      22.592  47.028  47.657  1.00  0.00    -0.247 OA
HETATM    6  C   UNL     1      19.043  47.000  47.761  1.00  0.00     0.128 C 
HETATM    7  C   UNL     1      18.435  48.047  46.841  1.00  0.00     0.022 C 
HETATM    8  C   UNL     1      19.073  49.337  47.335  1.00  0.00     0.032 C 
HETATM    9  H   UNL     1      20.450  45.522  49.355  1.00  0.00     0.170 HD
ENDROOT
BRANCH   4  10
HETATM   10  C   UNL     1      22.129  44.411  48.904  1.00  0.00     0.039 A 
HETATM   11  C   UNL     1      22.835  44.361  50.111  1.00  0.00     0.066 A 
HETATM   12  C   UNL     1      23.774  43.354  50.352  1.00  0.00     0.071 A 
HETATM   13  C   UNL     1      23.952  42.342  49.411  1.00  0.00     0.037 A 
HETATM   14  C   UNL     1      23.231  42.371  48.215  1.00  0.00     0.005 A 
HETATM   15  C   UNL     1      22.332  43.407  47.957  1.00  0.00     0.030 A 
BRANCH  12  16
HETATM   16  O   UNL     1      24.448  43.469  51.537  1.00  0.00    -0.347 OA
BRANCH  16  17
HETATM   17  C   UNL     1      25.167  44.687  51.742  1.00  0.00     0.208 C 
BRANCH  17  18
HETATM   18  C   UNL     1      26.477  44.601  50.995  1.00  0.00    -0.069 C 
HETATM   19  C   UNL     1      27.481  43.613  51.517  1.00  0.00     0.044 C 
HETATM   20  C   UNL     1      26.735  45.360  49.916  1.00  0.00     0.016 C 
ENDBRANCH  17  18
ENDBRANCH  16  17
ENDBRANCH  12  16
ENDBRANCH   4  10
BRANCH   1  21
HETATM   21  C   UNL     1      21.094  49.733  48.778  1.00  0.00     0.014 A 
HETATM   22  C   UNL     1      20.496  50.016  49.997  1.00  0.00     0.034 A 
HETATM   23  C   UNL     1      19.178  49.642  50.558  1.00  0.00     0.070 C 
HETATM   24  N   UNL     1      21.383  50.791  50.687  1.00  0.00    -0.282 N 
HETATM   25  H   UNL     1      21.273  51.201  51.608  1.00  0.00     0.189 HD
HETATM   26  N   UNL     1      22.536  50.995  50.042  1.00  0.00    -0.179 NA
HETATM   27  C   UNL     1      22.368  50.375  48.868  1.00  0.00     0.061 A 
HETATM   28  C   UNL     1      23.465  50.425  47.868  1.00  0.00     0.073 C 
ENDBRANCH   1  21
TORSDOF 5
ENDMDL
MODEL 9
REMARK VINA RESULT:      -7.1      2.507      3.840
REMARK  5 active torsions:
REMARK  status: ('A' for Active; 'I' for Inactive)
REMARK    1  A    between atoms: C_8  and  C_9 
REMARK       I    between atoms: N_10  and  C_11 
REMARK       I    between atoms: C_11  and  N_12 
REMARK    2  A    between atoms: N_12  and  C_13 
REMARK    3  A    between atoms: C_15  and  O_16 
REMARK    4  A    between atoms: O_16  and  C_17 
REMARK    5  A    between atoms: C_17  and  C_18 
ROOT
HETATM    1  C   UNL     1      19.273  48.231  47.609  1.00  0.00     0.126 C 
HETATM    2  N   UNL     1      20.317  47.624  48.427  1.00  0.00    -0.325 N 
HETATM    3  C   UNL     1      21.636  48.046  48.324  1.00  0.00     0.323 C 
HETATM    4  N   UNL     1      22.415  47.564  49.357  1.00  0.00    -0.309 N 
HETATM    5  O   UNL     1      22.015  48.805  47.438  1.00  0.00    -0.247 OA
HETATM    6  C   UNL     1      19.950  46.271  48.826  1.00  0.00     0.128 C 
HETATM    7  C   UNL     1      18.794  45.907  47.907  1.00  0.00     0.022 C 
HETATM    8  C   UNL     1      18.101  47.245  47.697  1.00  0.00     0.032 C 
HETATM    9  H   UNL     1      21.888  47.324  50.182  1.00  0.00     0.170 HD
ENDROOT
BRANCH   4  10
HETATM   10  C   UNL     1      23.795  47.773  49.533  1.00  0.00     0.039 A 
HETATM   11  C   UNL     1      24.486  46.871  50.348  1.00  0.00     0.066 A 
HETATM   12  C   UNL     1      25.850  47.036  50.605  1.00  0.00     0.071 A 
HETATM   13  C   UNL     1      26.547  48.067  49.977  1.00  0.00     0.037 A 
HETATM   14  C   UNL     1      25.868  48.955  49.141  1.00  0.00     0.005 A 
HETATM   15  C   UNL     1      24.495  48.817  48.929  1.00  0.00     0.030 A 
BRANCH  12  16
HETATM   16  O   UNL     1      26.383  46.130  51.480  1.00  0.00    -0.347 OA
BRANCH  16  17
HETATM   17  C   UNL     1      25.453  45.309  52.188  1.00  0.00     0.208 C 
BRANCH  17  18
HETATM   18  C   UNL     1      25.767  45.394  53.664  1.00  0.00    -0.069 C 
HETATM   19  C   UNL     1      26.031  46.767  54.213  1.00  0.00     0.044 C 
HETATM   20  C   UNL     1      25.801  44.304  54.450  1.00  0.00     0.016 C 
ENDBRANCH  17  18
ENDBRANCH  16  17
ENDBRANCH  12  16
ENDBRANCH   4  10
BRANCH   1  21
HETATM   21  C   UNL     1      18.892  49.597  48.102  1.00  0.00     0.014 A 
HETATM   22  C   UNL     1      18.612  50.705  47.316  1.00  0.00     0.034 A 
HETATM   23  C   UNL     1      18.614  50.896  45.848  1.00  0.00     0.070 C 
HETATM   24  N   UNL     1      18.313  51.720  48.178  1.00  0.00    -0.282 N 
HETATM   25  H   UNL     1      18.078  52.682  47.957  1.00  0.00     0.189 HD
HETATM   26  N   UNL     1      18.323  51.355  49.464  1.00  0.00    -0.179 NA
HETATM   27  C   UNL     1      18.695  50.070  49.436  1.00  0.00     0.061 A 
HETATM   28  C   UNL     1      18.841  49.339  50.721  1.00  0.00     0.073 C 
ENDBRANCH   1  21
TORSDOF 5
ENDMDL
MODEL 10
REMARK VINA RESULT:      -7.1     12.543     13.927
REMARK  5 active torsions:
REMARK  status: ('A' for Active; 'I' for Inactive)
REMARK    1  A    between atoms: C_8  and  C_9 
REMARK       I    between atoms: N_10  and  C_11 
REMARK       I    between atoms: C_11  and  N_12 
REMARK    2  A    between atoms: N_12  and  C_13 
REMARK    3  A    between atoms: C_15  and  O_16 
REMARK    4  A    between atoms: O_16  and  C_17 
REMARK    5  A    between atoms: C_17  and  C_18 
ROOT
HETATM    1  C   UNL     1      30.047  49.816  39.298  1.00  0.00     0.126 C 
HETATM    2  N   UNL     1      31.153  49.431  40.167  1.00  0.00    -0.325 N 
HETATM    3  C   UNL     1      32.103  50.363  40.562  1.00  0.00     0.323 C 
HETATM    4  N   UNL     1      32.895  49.890  41.590  1.00  0.00    -0.309 N 
HETATM    5  O   UNL     1      32.163  51.487  40.074  1.00  0.00    -0.247 OA
HETATM    6  C   UNL     1      31.447  48.009  40.042  1.00  0.00     0.128 C 
HETATM    7  C   UNL     1      30.727  47.585  38.772  1.00  0.00     0.022 C 
HETATM    8  C   UNL     1      29.500  48.484  38.767  1.00  0.00     0.032 C 
HETATM    9  H   UNL     1      32.461  49.158  42.130  1.00  0.00     0.170 HD
ENDROOT
BRANCH   4  10
HETATM   10  C   UNL     1      33.968  50.565  42.198  1.00  0.00     0.039 A 
HETATM   11  C   UNL     1      35.251  50.328  41.692  1.00  0.00     0.066 A 
HETATM   12  C   UNL     1      36.372  50.929  42.270  1.00  0.00     0.071 A 
HETATM   13  C   UNL     1      36.204  51.838  43.314  1.00  0.00     0.037 A 
HETATM   14  C   UNL     1      34.923  52.100  43.806  1.00  0.00     0.005 A 
HETATM   15  C   UNL     1      33.811  51.457  43.259  1.00  0.00     0.030 A 
BRANCH  12  16
HETATM   16  O   UNL     1      37.570  50.551  41.729  1.00  0.00    -0.347 OA
BRANCH  16  17
HETATM   17  C   UNL     1      38.656  51.464  41.892  1.00  0.00     0.208 C 
BRANCH  17  18
HETATM   18  C   UNL     1      39.139  51.883  40.522  1.00  0.00    -0.069 C 
HETATM   19  C   UNL     1      38.394  51.315  39.348  1.00  0.00     0.044 C 
HETATM   20  C   UNL     1      40.174  52.724  40.357  1.00  0.00     0.016 C 
ENDBRANCH  17  18
ENDBRANCH  16  17
ENDBRANCH  12  16
ENDBRANCH   4  10
BRANCH   1  21
HETATM   21  C   UNL     1      28.997  50.598  40.032  1.00  0.00     0.014 A 
HETATM   22  C   UNL     1      28.465  51.820  39.649  1.00  0.00     0.034 A 
HETATM   23  C   UNL     1      28.747  52.698  38.490  1.00  0.00     0.070 C 
HETATM   24  N   UNL     1      27.548  52.154  40.604  1.00  0.00    -0.282 N 
HETATM   25  H   UNL     1      26.978  52.992  40.660  1.00  0.00     0.189 HD
HETATM   26  N   UNL     1      27.396  51.226  41.554  1.00  0.00    -0.179 NA
HETATM   27  C   UNL     1      28.287  50.281  41.232  1.00  0.00     0.061 A 
HETATM   28  C   UNL     1      28.415  49.089  42.109  1.00  0.00     0.073 C 
ENDBRANCH   1  21
TORSDOF 5
ENDMDL
