MODEL 1
REMARK VINA RESULT:      -9.1      0.000      0.000
REMARK  5 active torsions:
REMARK  status: ('A' for Active; 'I' for Inactive)
REMARK    1  A    between atoms: C_4  and  C_5 
REMARK       I    between atoms: C_5  and  N_6 
REMARK    2  A    between atoms: C_9  and  C_10 
REMARK    3  A    between atoms: C_10  and  C_11 
REMARK    4  A    between atoms: N_20  and  C_21 
REMARK    5  A    between atoms: C_21  and  C_22 
ROOT
HETATM    1  C   UNL     1      26.975  43.689  51.664  1.00  0.00     0.148 A 
HETATM    2  N   UNL     1      27.535  44.222  50.425  1.00  0.00    -0.320 N 
HETATM    3  C   UNL     1      27.057  45.466  50.101  1.00  0.00     0.326 A 
HETATM    4  O   UNL     1      27.459  46.120  49.155  1.00  0.00    -0.247 OA
HETATM    5  N   UNL     1      26.073  45.789  50.972  1.00  0.00    -0.263 N 
HETATM    6  C   UNL     1      25.921  44.806  51.904  1.00  0.00     0.262 A 
HETATM    7  O   UNL     1      25.076  44.813  52.790  1.00  0.00    -0.270 OA
HETATM    8  H   UNL     1      28.369  43.884  49.963  1.00  0.00     0.166 HD
ENDROOT
BRANCH   1   9
HETATM    9  C   UNL     1      26.372  42.265  51.397  1.00  0.00     0.031 C 
HETATM   10  C   UNL     1      25.040  42.214  50.623  1.00  0.00     0.028 C 
HETATM   11  C   UNL     1      25.162  42.241  49.104  1.00  0.00     0.126 C 
HETATM   12  N   UNL     1      26.185  41.336  48.568  1.00  0.00    -0.350 N 
HETATM   13  C   UNL     1      26.071  41.041  47.209  1.00  0.00     0.251 C 
HETATM   14  C   UNL     1      27.467  41.308  49.270  1.00  0.00     0.126 C 
HETATM   15  O   UNL     1      25.113  41.415  46.521  1.00  0.00    -0.271 OA
HETATM   16  C   UNL     1      27.333  41.229  50.784  1.00  0.00     0.028 C 
BRANCH  13  17
HETATM   17  C   UNL     1      27.150  40.169  46.515  1.00  0.00     0.279 C 
HETATM   18  N   UNL     1      26.560  38.780  46.154  1.00  0.00    -0.062 N 
HETATM   19  C   UNL     1      26.128  38.003  47.376  1.00  0.00     0.270 C 
HETATM   20  H   UNL     1      25.683  38.996  45.651  1.00  0.00     0.280 HD
HETATM   21  C   UNL     1      27.448  37.936  45.283  1.00  0.00     0.235 C 
HETATM   22  C   UNL     1      27.836  38.689  44.026  1.00  0.00     0.028 C 
HETATM   23  C   UNL     1      28.507  40.009  44.366  1.00  0.00     0.004 C 
HETATM   24  C   UNL     1      27.591  40.869  45.223  1.00  0.00     0.043 C 
ENDBRANCH  13  17
ENDBRANCH   1   9
BRANCH   1  25
HETATM   25  C   UNL     1      28.079  43.655  52.719  1.00  0.00    -0.003 A 
HETATM   26  C   UNL     1      27.958  44.271  53.965  1.00  0.00     0.126 A 
HETATM   27  N   UNL     1      28.907  44.237  54.929  1.00  0.00    -0.272 NA
HETATM   28  C   UNL     1      30.046  43.572  54.655  1.00  0.00     0.116 A 
HETATM   29  C   UNL     1      30.276  42.919  53.459  1.00  0.00     0.020 A 
HETATM   30  C   UNL     1      29.279  42.958  52.488  1.00  0.00     0.013 A 
ENDBRANCH   1  25
BRANCH   5  31
HETATM   31  C   UNL     1      25.324  47.026  50.943  1.00  0.00     0.175 C 
BRANCH  31  32
HETATM   32  C   UNL     1      24.255  47.008  49.878  1.00  0.00    -0.040 A 
HETATM   33  C   UNL     1      23.739  48.212  49.373  1.00  0.00     0.012 A 
HETATM   34  C   UNL     1      22.740  48.196  48.398  1.00  0.00     0.043 A 
HETATM   35  C   UNL     1      22.248  46.982  47.937  1.00  0.00     0.116 A 
HETATM   36  F   UNL     1      21.291  46.968  47.002  1.00  0.00    -0.206 F 
HETATM   37  C   UNL     1      22.734  45.779  48.435  1.00  0.00     0.043 A 
HETATM   38  C   UNL     1      23.736  45.791  49.407  1.00  0.00     0.012 A 
ENDBRANCH  31  32
ENDBRANCH   5  31
TORSDOF 5
ENDMDL
MODEL 2
REMARK VINA RESULT:      -9.1      3.257      5.167
REMARK  5 active torsions:
REMARK  status: ('A' for Active; 'I' for Inactive)
REMARK    1  A    between atoms: C_4  and  C_5 
REMARK       I    between atoms: C_5  and  N_6 
REMARK    2  A    between atoms: C_9  and  C_10 
REMARK    3  A    between atoms: C_10  and  C_11 
REMARK    4  A    between atoms: N_20  and  C_21 
REMARK    5  A    between atoms: C_21  and  C_22 
ROOT
HETATM    1  C   UNL     1      25.957  43.705  50.438  1.00  0.00     0.148 A 
HETATM    2  N   UNL     1      26.921  44.301  49.518  1.00  0.00    -0.320 N 
HETATM    3  C   UNL     1      27.024  45.664  49.640  1.00  0.00     0.326 A 
HETATM    4  O   UNL     1      27.829  46.340  49.025  1.00  0.00    -0.247 OA
HETATM    5  N   UNL     1      26.073  46.090  50.504  1.00  0.00    -0.263 N 
HETATM    6  C   UNL     1      25.373  45.031  51.001  1.00  0.00     0.262 A 
HETATM    7  O   UNL     1      24.428  45.124  51.774  1.00  0.00    -0.270 OA
HETATM    8  H   UNL     1      27.645  43.801  49.018  1.00  0.00     0.166 HD
ENDROOT
BRANCH   1   9
HETATM    9  C   UNL     1      24.935  42.828  49.633  1.00  0.00     0.031 C 
HETATM   10  C   UNL     1      23.584  42.542  50.316  1.00  0.00     0.028 C 
HETATM   11  C   UNL     1      22.517  43.616  50.138  1.00  0.00     0.126 C 
HETATM   12  N   UNL     1      22.383  44.106  48.761  1.00  0.00    -0.350 N 
HETATM   13  C   UNL     1      21.195  44.780  48.478  1.00  0.00     0.251 C 
HETATM   14  C   UNL     1      23.626  44.372  48.038  1.00  0.00     0.126 C 
HETATM   15  O   UNL     1      20.263  44.863  49.287  1.00  0.00    -0.271 OA
HETATM   16  C   UNL     1      24.664  43.269  48.182  1.00  0.00     0.028 C 
BRANCH  13  17
HETATM   17  C   UNL     1      20.986  45.422  47.082  1.00  0.00     0.279 C 
HETATM   18  N   UNL     1      20.111  44.495  46.196  1.00  0.00    -0.062 N 
HETATM   19  C   UNL     1      20.766  43.158  45.939  1.00  0.00     0.270 C 
HETATM   20  H   UNL     1      19.287  44.281  46.784  1.00  0.00     0.280 HD
HETATM   21  C   UNL     1      19.662  45.116  44.903  1.00  0.00     0.235 C 
HETATM   22  C   UNL     1      18.950  46.430  45.159  1.00  0.00     0.028 C 
HETATM   23  C   UNL     1      19.835  47.386  45.940  1.00  0.00     0.004 C 
HETATM   24  C   UNL     1      20.262  46.762  47.259  1.00  0.00     0.043 C 
ENDBRANCH  13  17
ENDBRANCH   1   9
BRANCH   1  25
HETATM   25  C   UNL     1      26.721  42.886  51.477  1.00  0.00    -0.003 A 
HETATM   26  C   UNL     1      27.164  41.584  51.242  1.00  0.00     0.126 A 
HETATM   27  N   UNL     1      27.864  40.842  52.131  1.00  0.00    -0.272 NA
HETATM   28  C   UNL     1      28.138  41.403  53.326  1.00  0.00     0.116 A 
HETATM   29  C   UNL     1      27.757  42.685  53.668  1.00  0.00     0.020 A 
HETATM   30  C   UNL     1      27.047  43.433  52.731  1.00  0.00     0.013 A 
ENDBRANCH   1  25
BRANCH   5  31
HETATM   31  C   UNL     1      25.866  47.470  50.881  1.00  0.00     0.175 C 
BRANCH  31  32
HETATM   32  C   UNL     1      25.066  48.220  49.843  1.00  0.00    -0.040 A 
HETATM   33  C   UNL     1      25.684  49.192  49.040  1.00  0.00     0.012 A 
HETATM   34  C   UNL     1      24.941  49.896  48.090  1.00  0.00     0.043 A 
HETATM   35  C   UNL     1      23.583  49.639  47.951  1.00  0.00     0.116 A 
HETATM   36  F   UNL     1      22.873  50.314  47.039  1.00  0.00    -0.206 F 
HETATM   37  C   UNL     1      22.950  48.692  48.747  1.00  0.00     0.043 A 
HETATM   38  C   UNL     1      23.690  47.983  49.695  1.00  0.00     0.012 A 
ENDBRANCH  31  32
ENDBRANCH   5  31
TORSDOF 5
ENDMDL
MODEL 3
REMARK VINA RESULT:      -8.9      3.484      8.669
REMARK  5 active torsions:
REMARK  status: ('A' for Active; 'I' for Inactive)
REMARK    1  A    between atoms: C_4  and  C_5 
REMARK       I    between atoms: C_5  and  N_6 
REMARK    2  A    between atoms: C_9  and  C_10 
REMARK    3  A    between atoms: C_10  and  C_11 
REMARK    4  A    between atoms: N_20  and  C_21 
REMARK    5  A    between atoms: C_21  and  C_22 
ROOT
HETATM    1  C   UNL     1      25.729  42.402  49.037  1.00  0.00     0.148 A 
HETATM    2  N   UNL     1      26.803  42.447  48.049  1.00  0.00    -0.320 N 
HETATM    3  C   UNL     1      27.683  41.399  48.152  1.00  0.00     0.326 A 
HETATM    4  O   UNL     1      28.598  41.205  47.371  1.00  0.00    -0.247 OA
HETATM    5  N   UNL     1      27.373  40.684  49.258  1.00  0.00    -0.263 N 
HETATM    6  C   UNL     1      26.270  41.205  49.867  1.00  0.00     0.262 A 
HETATM    7  O   UNL     1      25.789  40.783  50.911  1.00  0.00    -0.270 OA
HETATM    8  H   UNL     1      26.803  43.002  47.203  1.00  0.00     0.166 HD
ENDROOT
BRANCH   1   9
HETATM    9  C   UNL     1      25.673  43.765  49.812  1.00  0.00     0.031 C 
HETATM   10  C   UNL     1      24.778  43.808  51.066  1.00  0.00     0.028 C 
HETATM   11  C   UNL     1      25.429  43.317  52.354  1.00  0.00     0.126 C 
HETATM   12  N   UNL     1      26.779  43.842  52.583  1.00  0.00    -0.350 N 
HETATM   13  C   UNL     1      27.248  43.740  53.892  1.00  0.00     0.251 C 
HETATM   14  C   UNL     1      27.678  43.859  51.429  1.00  0.00     0.126 C 
HETATM   15  O   UNL     1      26.542  43.345  54.828  1.00  0.00    -0.271 OA
HETATM   16  C   UNL     1      27.033  44.401  50.161  1.00  0.00     0.028 C 
BRANCH  13  17
HETATM   17  C   UNL     1      28.698  44.177  54.230  1.00  0.00     0.279 C 
HETATM   18  N   UNL     1      28.688  45.198  55.399  1.00  0.00    -0.062 N 
HETATM   19  C   UNL     1      27.948  46.468  55.047  1.00  0.00     0.270 C 
HETATM   20  H   UNL     1      28.112  44.746  56.130  1.00  0.00     0.280 HD
HETATM   21  C   UNL     1      30.047  45.521  55.953  1.00  0.00     0.235 C 
HETATM   22  C   UNL     1      30.772  44.254  56.364  1.00  0.00     0.028 C 
HETATM   23  C   UNL     1      30.878  43.285  55.199  1.00  0.00     0.004 C 
HETATM   24  C   UNL     1      29.497  42.941  54.661  1.00  0.00     0.043 C 
ENDBRANCH  13  17
ENDBRANCH   1   9
BRANCH   1  25
HETATM   25  C   UNL     1      24.418  42.101  48.314  1.00  0.00    -0.003 A 
HETATM   26  C   UNL     1      23.931  40.806  48.132  1.00  0.00     0.126 A 
HETATM   27  N   UNL     1      22.762  40.509  47.519  1.00  0.00    -0.272 NA
HETATM   28  C   UNL     1      22.031  41.537  47.045  1.00  0.00     0.116 A 
HETATM   29  C   UNL     1      22.409  42.859  47.171  1.00  0.00     0.020 A 
HETATM   30  C   UNL     1      23.611  43.140  47.817  1.00  0.00     0.013 A 
ENDBRANCH   1  25
BRANCH   5  31
HETATM   31  C   UNL     1      28.085  39.506  49.701  1.00  0.00     0.175 C 
BRANCH  31  32
HETATM   32  C   UNL     1      27.689  38.282  48.910  1.00  0.00    -0.040 A 
HETATM   33  C   UNL     1      26.606  37.491  49.325  1.00  0.00     0.012 A 
HETATM   34  C   UNL     1      26.249  36.352  48.602  1.00  0.00     0.043 A 
HETATM   35  C   UNL     1      26.979  35.996  47.475  1.00  0.00     0.116 A 
HETATM   36  F   UNL     1      26.635  34.903  46.782  1.00  0.00    -0.206 F 
HETATM   37  C   UNL     1      28.063  36.757  47.057  1.00  0.00     0.043 A 
HETATM   38  C   UNL     1      28.421  37.900  47.774  1.00  0.00     0.012 A 
ENDBRANCH  31  32
ENDBRANCH   5  31
TORSDOF 5
ENDMDL
MODEL 4
REMARK VINA RESULT:      -8.8     14.447     16.685
REMARK  5 active torsions:
REMARK  status: ('A' for Active; 'I' for Inactive)
REMARK    1  A    between atoms: C_4  and  C_5 
REMARK       I    between atoms: C_5  and  N_6 
REMARK    2  A    between atoms: C_9  and  C_10 
REMARK    3  A    between atoms: C_10  and  C_11 
REMARK    4  A    between atoms: N_20  and  C_21 
REMARK    5  A    between atoms: C_21  and  C_22 
ROOT
HETATM    1  C   UNL     1      37.360  52.093  40.589  1.00  0.00     0.148 A 
HETATM    2  N   UNL     1      36.622  53.325  40.854  1.00  0.00    -0.320 N 
HETATM    3  C   UNL     1      37.303  54.209  41.652  1.00  0.00     0.326 A 
HETATM    4  O   UNL     1      36.900  55.326  41.921  1.00  0.00    -0.247 OA
HETATM    5  N   UNL     1      38.434  53.609  42.090  1.00  0.00    -0.263 N 
HETATM    6  C   UNL     1      38.546  52.359  41.557  1.00  0.00     0.262 A 
HETATM    7  O   UNL     1      39.450  51.573  41.812  1.00  0.00    -0.270 OA
HETATM    8  H   UNL     1      35.824  53.658  40.329  1.00  0.00     0.166 HD
ENDROOT
BRANCH   1   9
HETATM    9  C   UNL     1      36.470  50.857  40.967  1.00  0.00     0.031 C 
HETATM   10  C   UNL     1      36.035  50.745  42.441  1.00  0.00     0.028 C 
HETATM   11  C   UNL     1      34.782  51.526  42.818  1.00  0.00     0.126 C 
HETATM   12  N   UNL     1      33.673  51.375  41.869  1.00  0.00    -0.350 N 
HETATM   13  C   UNL     1      32.417  51.740  42.353  1.00  0.00     0.251 C 
HETATM   14  C   UNL     1      34.014  51.441  40.449  1.00  0.00     0.126 C 
HETATM   15  O   UNL     1      32.219  52.058  43.532  1.00  0.00    -0.271 OA
HETATM   16  C   UNL     1      35.237  50.615  40.075  1.00  0.00     0.028 C 
BRANCH  13  17
HETATM   17  C   UNL     1      31.187  51.709  41.408  1.00  0.00     0.279 C 
HETATM   18  N   UNL     1      30.064  50.831  42.024  1.00  0.00    -0.062 N 
HETATM   19  C   UNL     1      30.488  49.390  42.192  1.00  0.00     0.270 C 
HETATM   20  H   UNL     1      29.954  51.192  42.987  1.00  0.00     0.280 HD
HETATM   21  C   UNL     1      28.749  50.909  41.301  1.00  0.00     0.235 C 
HETATM   22  C   UNL     1      28.288  52.348  41.182  1.00  0.00     0.028 C 
HETATM   23  C   UNL     1      29.338  53.201  40.489  1.00  0.00     0.004 C 
HETATM   24  C   UNL     1      30.658  53.139  41.241  1.00  0.00     0.043 C 
ENDBRANCH  13  17
ENDBRANCH   1   9
BRANCH   1  25
HETATM   25  C   UNL     1      37.765  52.078  39.117  1.00  0.00    -0.003 A 
HETATM   26  C   UNL     1      37.363  53.057  38.208  1.00  0.00     0.126 A 
HETATM   27  N   UNL     1      37.726  53.085  36.904  1.00  0.00    -0.272 NA
HETATM   28  C   UNL     1      38.521  52.091  36.461  1.00  0.00     0.116 A 
HETATM   29  C   UNL     1      38.986  51.072  37.269  1.00  0.00     0.020 A 
HETATM   30  C   UNL     1      38.608  51.072  38.609  1.00  0.00     0.013 A 
ENDBRANCH   1  25
BRANCH   5  31
HETATM   31  C   UNL     1      39.407  54.227  42.962  1.00  0.00     0.175 C 
BRANCH  31  32
HETATM   32  C   UNL     1      39.061  54.029  44.418  1.00  0.00    -0.040 A 
HETATM   33  C   UNL     1      38.274  54.975  45.094  1.00  0.00     0.012 A 
HETATM   34  C   UNL     1      37.965  54.800  46.444  1.00  0.00     0.043 A 
HETATM   35  C   UNL     1      38.452  53.689  47.121  1.00  0.00     0.116 A 
HETATM   36  F   UNL     1      38.154  53.522  48.416  1.00  0.00    -0.206 F 
HETATM   37  C   UNL     1      39.245  52.749  46.475  1.00  0.00     0.043 A 
HETATM   38  C   UNL     1      39.552  52.919  45.124  1.00  0.00     0.012 A 
ENDBRANCH  31  32
ENDBRANCH   5  31
TORSDOF 5
ENDMDL
MODEL 5
REMARK VINA RESULT:      -8.6      2.354      2.593
REMARK  5 active torsions:
REMARK  status: ('A' for Active; 'I' for Inactive)
REMARK    1  A    between atoms: C_4  and  C_5 
REMARK       I    between atoms: C_5  and  N_6 
REMARK    2  A    between atoms: C_9  and  C_10 
REMARK    3  A    between atoms: C_10  and  C_11 
REMARK    4  A    between atoms: N_20  and  C_21 
REMARK    5  A    between atoms: C_21  and  C_22 
ROOT
HETATM    1  C   UNL     1      26.911  43.983  51.476  1.00  0.00     0.148 A 
HETATM    2  N   UNL     1      27.525  44.479  50.248  1.00  0.00    -0.320 N 
HETATM    3  C   UNL     1      27.187  45.776  49.953  1.00  0.00     0.326 A 
HETATM    4  O   UNL     1      27.658  46.403  49.021  1.00  0.00    -0.247 OA
HETATM    5  N   UNL     1      26.244  46.185  50.834  1.00  0.00    -0.263 N 
HETATM    6  C   UNL     1      25.986  45.203  51.744  1.00  0.00     0.262 A 
HETATM    7  O   UNL     1      25.148  45.283  52.633  1.00  0.00    -0.270 OA
HETATM    8  H   UNL     1      28.318  44.063  49.776  1.00  0.00     0.166 HD
ENDROOT
BRANCH   1   9
HETATM    9  C   UNL     1      26.156  42.640  51.179  1.00  0.00     0.031 C 
HETATM   10  C   UNL     1      24.636  42.633  51.435  1.00  0.00     0.028 C 
HETATM   11  C   UNL     1      23.775  43.152  50.290  1.00  0.00     0.126 C 
HETATM   12  N   UNL     1      24.148  42.626  48.972  1.00  0.00    -0.350 N 
HETATM   13  C   UNL     1      23.178  42.758  47.978  1.00  0.00     0.251 C 
HETATM   14  C   UNL     1      25.577  42.575  48.669  1.00  0.00     0.126 C 
HETATM   15  O   UNL     1      22.038  43.179  48.207  1.00  0.00    -0.271 OA
HETATM   16  C   UNL     1      26.421  42.006  49.801  1.00  0.00     0.028 C 
BRANCH  13  17
HETATM   17  C   UNL     1      23.498  42.321  46.525  1.00  0.00     0.279 C 
HETATM   18  N   UNL     1      22.586  41.135  46.112  1.00  0.00    -0.062 N 
HETATM   19  C   UNL     1      22.813  39.910  46.968  1.00  0.00     0.270 C 
HETATM   20  H   UNL     1      21.630  41.452  46.347  1.00  0.00     0.280 HD
HETATM   21  C   UNL     1      22.656  40.776  44.654  1.00  0.00     0.235 C 
HETATM   22  C   UNL     1      22.370  41.988  43.790  1.00  0.00     0.028 C 
HETATM   23  C   UNL     1      23.324  43.126  44.114  1.00  0.00     0.004 C 
HETATM   24  C   UNL     1      23.227  43.502  45.584  1.00  0.00     0.043 C 
ENDBRANCH  13  17
ENDBRANCH   1   9
BRANCH   1  25
HETATM   25  C   UNL     1      28.005  43.805  52.527  1.00  0.00    -0.003 A 
HETATM   26  C   UNL     1      27.976  44.438  53.770  1.00  0.00     0.126 A 
HETATM   27  N   UNL     1      28.916  44.281  54.730  1.00  0.00    -0.272 NA
HETATM   28  C   UNL     1      29.952  43.464  54.456  1.00  0.00     0.116 A 
HETATM   29  C   UNL     1      30.084  42.779  53.264  1.00  0.00     0.020 A 
HETATM   30  C   UNL     1      29.097  42.949  52.296  1.00  0.00     0.013 A 
ENDBRANCH   1  25
BRANCH   5  31
HETATM   31  C   UNL     1      25.636  47.496  50.835  1.00  0.00     0.175 C 
BRANCH  31  32
HETATM   32  C   UNL     1      24.518  47.596  49.826  1.00  0.00    -0.040 A 
HETATM   33  C   UNL     1      24.220  48.825  49.217  1.00  0.00     0.012 A 
HETATM   34  C   UNL     1      23.177  48.920  48.295  1.00  0.00     0.043 A 
HETATM   35  C   UNL     1      22.425  47.793  47.990  1.00  0.00     0.116 A 
HETATM   36  F   UNL     1      21.425  47.886  47.104  1.00  0.00    -0.206 F 
HETATM   37  C   UNL     1      22.692  46.571  48.592  1.00  0.00     0.043 A 
HETATM   38  C   UNL     1      23.738  46.470  49.513  1.00  0.00     0.012 A 
ENDBRANCH  31  32
ENDBRANCH   5  31
TORSDOF 5
ENDMDL
MODEL 6
REMARK VINA RESULT:      -8.6      3.006      7.837
REMARK  5 active torsions:
REMARK  status: ('A' for Active; 'I' for Inactive)
REMARK    1  A    between atoms: C_4  and  C_5 
REMARK       I    between atoms: C_5  and  N_6 
REMARK    2  A    between atoms: C_9  and  C_10 
REMARK    3  A    between atoms: C_10  and  C_11 
REMARK    4  A    between atoms: N_20  and  C_21 
REMARK    5  A    between atoms: C_21  and  C_22 
ROOT
HETATM    1  C   UNL     1      26.850  41.566  50.953  1.00  0.00     0.148 A 
HETATM    2  N   UNL     1      25.401  41.501  51.123  1.00  0.00    -0.320 N 
HETATM    3  C   UNL     1      24.788  42.727  51.053  1.00  0.00     0.326 A 
HETATM    4  O   UNL     1      23.580  42.882  51.085  1.00  0.00    -0.247 OA
HETATM    5  N   UNL     1      25.744  43.683  50.986  1.00  0.00    -0.263 N 
HETATM    6  C   UNL     1      26.983  43.114  50.956  1.00  0.00     0.262 A 
HETATM    7  O   UNL     1      28.034  43.741  50.937  1.00  0.00    -0.270 OA
HETATM    8  H   UNL     1      24.834  40.667  51.037  1.00  0.00     0.166 HD
ENDROOT
BRANCH   1   9
HETATM    9  C   UNL     1      27.552  40.844  52.157  1.00  0.00     0.031 C 
HETATM   10  C   UNL     1      29.088  40.743  52.098  1.00  0.00     0.028 C 
HETATM   11  C   UNL     1      29.847  41.955  52.626  1.00  0.00     0.126 C 
HETATM   12  N   UNL     1      29.344  42.469  53.905  1.00  0.00    -0.350 N 
HETATM   13  C   UNL     1      30.218  43.303  54.601  1.00  0.00     0.251 C 
HETATM   14  C   UNL     1      27.891  42.565  54.044  1.00  0.00     0.126 C 
HETATM   15  O   UNL     1      31.381  43.509  54.235  1.00  0.00    -0.271 OA
HETATM   16  C   UNL     1      27.148  41.328  53.562  1.00  0.00     0.028 C 
BRANCH  13  17
HETATM   17  C   UNL     1      29.756  43.977  55.920  1.00  0.00     0.279 C 
HETATM   18  N   UNL     1      30.942  44.066  56.917  1.00  0.00    -0.062 N 
HETATM   19  C   UNL     1      31.463  42.704  57.313  1.00  0.00     0.270 C 
HETATM   20  H   UNL     1      31.706  44.496  56.369  1.00  0.00     0.280 HD
HETATM   21  C   UNL     1      30.665  44.897  58.138  1.00  0.00     0.235 C 
HETATM   22  C   UNL     1      30.199  46.285  57.746  1.00  0.00     0.028 C 
HETATM   23  C   UNL     1      28.974  46.216  56.849  1.00  0.00     0.004 C 
HETATM   24  C   UNL     1      29.270  45.397  55.602  1.00  0.00     0.043 C 
ENDBRANCH  13  17
ENDBRANCH   1   9
BRANCH   1  25
HETATM   25  C   UNL     1      27.210  40.926  49.613  1.00  0.00    -0.003 A 
HETATM   26  C   UNL     1      27.533  41.670  48.478  1.00  0.00     0.126 A 
HETATM   27  N   UNL     1      27.879  41.133  47.286  1.00  0.00    -0.272 NA
HETATM   28  C   UNL     1      27.901  39.788  47.194  1.00  0.00     0.116 A 
HETATM   29  C   UNL     1      27.606  38.950  48.252  1.00  0.00     0.020 A 
HETATM   30  C   UNL     1      27.264  39.527  49.472  1.00  0.00     0.013 A 
ENDBRANCH   1  25
BRANCH   5  31
HETATM   31  C   UNL     1      25.482  45.102  50.908  1.00  0.00     0.175 C 
BRANCH  31  32
HETATM   32  C   UNL     1      25.745  45.793  52.224  1.00  0.00    -0.040 A 
HETATM   33  C   UNL     1      25.469  45.140  53.435  1.00  0.00     0.012 A 
HETATM   34  C   UNL     1      25.699  45.784  54.652  1.00  0.00     0.043 A 
HETATM   35  C   UNL     1      26.191  47.083  54.659  1.00  0.00     0.116 A 
HETATM   36  F   UNL     1      26.412  47.700  55.827  1.00  0.00    -0.206 F 
HETATM   37  C   UNL     1      26.456  47.754  53.472  1.00  0.00     0.043 A 
HETATM   38  C   UNL     1      26.232  47.111  52.253  1.00  0.00     0.012 A 
ENDBRANCH  31  32
ENDBRANCH   5  31
TORSDOF 5
ENDMDL
MODEL 7
REMARK VINA RESULT:      -8.6     18.570     21.698
REMARK  5 active torsions:
REMARK  status: ('A' for Active; 'I' for Inactive)
REMARK    1  A    between atoms: C_4  and  C_5 
REMARK       I    between atoms: C_5  and  N_6 
REMARK    2  A    between atoms: C_9  and  C_10 
REMARK    3  A    between atoms: C_10  and  C_11 
REMARK    4  A    between atoms: N_20  and  C_21 
REMARK    5  A    between atoms: C_21  and  C_22 
ROOT
HETATM    1  C   UNL     1      38.518  48.540  65.636  1.00  0.00     0.148 A 
HETATM    2  N   UNL     1      38.040  48.768  64.276  1.00  0.00    -0.320 N 
HETATM    3  C   UNL     1      37.085  47.868  63.874  1.00  0.00     0.326 A 
HETATM    4  O   UNL     1      36.498  47.935  62.809  1.00  0.00    -0.247 OA
HETATM    5  N   UNL     1      36.961  46.918  64.830  1.00  0.00    -0.263 N 
HETATM    6  C   UNL     1      37.777  47.196  65.886  1.00  0.00     0.262 A 
HETATM    7  O   UNL     1      37.901  46.485  66.875  1.00  0.00    -0.270 OA
HETATM    8  H   UNL     1      38.160  49.621  63.745  1.00  0.00     0.166 HD
ENDROOT
BRANCH   1   9
HETATM    9  C   UNL     1      40.084  48.435  65.631  1.00  0.00     0.031 C 
HETATM   10  C   UNL     1      40.769  48.296  67.004  1.00  0.00     0.028 C 
HETATM   11  C   UNL     1      40.863  46.876  67.551  1.00  0.00     0.126 C 
HETATM   12  N   UNL     1      41.314  45.884  66.570  1.00  0.00    -0.350 N 
HETATM   13  C   UNL     1      41.779  44.681  67.104  1.00  0.00     0.251 C 
HETATM   14  C   UNL     1      40.728  45.972  65.233  1.00  0.00     0.126 C 
HETATM   15  O   UNL     1      41.916  44.497  68.319  1.00  0.00    -0.271 OA
HETATM   16  C   UNL     1      40.687  47.387  64.676  1.00  0.00     0.028 C 
BRANCH  13  17
HETATM   17  C   UNL     1      42.194  43.525  66.156  1.00  0.00     0.279 C 
HETATM   18  N   UNL     1      43.536  42.905  66.629  1.00  0.00    -0.062 N 
HETATM   19  C   UNL     1      44.674  43.898  66.588  1.00  0.00     0.270 C 
HETATM   20  H   UNL     1      43.388  42.709  67.634  1.00  0.00     0.280 HD
HETATM   21  C   UNL     1      43.919  41.639  65.917  1.00  0.00     0.235 C 
HETATM   22  C   UNL     1      42.803  40.616  66.006  1.00  0.00     0.028 C 
HETATM   23  C   UNL     1      41.505  41.176  65.452  1.00  0.00     0.004 C 
HETATM   24  C   UNL     1      41.108  42.442  66.196  1.00  0.00     0.043 C 
ENDBRANCH  13  17
ENDBRANCH   1   9
BRANCH   1  25
HETATM   25  C   UNL     1      38.024  49.682  66.522  1.00  0.00    -0.003 A 
HETATM   26  C   UNL     1      37.399  49.475  67.752  1.00  0.00     0.126 A 
HETATM   27  N   UNL     1      36.973  50.465  68.569  1.00  0.00    -0.272 NA
HETATM   28  C   UNL     1      37.159  51.734  68.155  1.00  0.00     0.116 A 
HETATM   29  C   UNL     1      37.771  52.061  66.960  1.00  0.00     0.020 A 
HETATM   30  C   UNL     1      38.211  51.024  66.142  1.00  0.00     0.013 A 
ENDBRANCH   1  25
BRANCH   5  31
HETATM   31  C   UNL     1      36.054  45.795  64.759  1.00  0.00     0.175 C 
BRANCH  31  32
HETATM   32  C   UNL     1      36.767  44.523  64.367  1.00  0.00    -0.040 A 
HETATM   33  C   UNL     1      36.508  43.326  65.052  1.00  0.00     0.012 A 
HETATM   34  C   UNL     1      37.178  42.153  64.699  1.00  0.00     0.043 A 
HETATM   35  C   UNL     1      38.113  42.178  63.672  1.00  0.00     0.116 A 
HETATM   36  F   UNL     1      38.754  41.053  63.334  1.00  0.00    -0.206 F 
HETATM   37  C   UNL     1      38.395  43.356  62.991  1.00  0.00     0.043 A 
HETATM   38  C   UNL     1      37.724  44.530  63.339  1.00  0.00     0.012 A 
ENDBRANCH  31  32
ENDBRANCH   5  31
TORSDOF 5
ENDMDL
MODEL 8
REMARK VINA RESULT:      -8.6      3.911      6.324
REMARK  5 active torsions:
REMARK  status: ('A' for Active; 'I' for Inactive)
REMARK    1  A    between atoms: C_4  and  C_5 
REMARK       I    between atoms: C_5  and  N_6 
REMARK    2  A    between atoms: C_9  and  C_10 
REMARK    3  A    between atoms: C_10  and  C_11 
REMARK    4  A    between atoms: N_20  and  C_21 
REMARK    5  A    between atoms: C_21  and  C_22 
ROOT
HETATM    1  C   UNL     1      25.103  43.150  49.844  1.00  0.00     0.148 A 
HETATM    2  N   UNL     1      25.694  44.243  49.078  1.00  0.00    -0.320 N 
HETATM    3  C   UNL     1      26.305  45.191  49.860  1.00  0.00     0.326 A 
HETATM    4  O   UNL     1      26.930  46.136  49.414  1.00  0.00    -0.247 OA
HETATM    5  N   UNL     1      26.054  44.903  51.159  1.00  0.00    -0.263 N 
HETATM    6  C   UNL     1      25.331  43.751  51.259  1.00  0.00     0.262 A 
HETATM    7  O   UNL     1      24.928  43.274  52.312  1.00  0.00    -0.270 OA
HETATM    8  H   UNL     1      25.896  44.226  48.087  1.00  0.00     0.166 HD
ENDROOT
BRANCH   1   9
HETATM    9  C   UNL     1      23.597  42.980  49.439  1.00  0.00     0.031 C 
HETATM   10  C   UNL     1      22.740  44.261  49.420  1.00  0.00     0.028 C 
HETATM   11  C   UNL     1      22.801  45.073  48.131  1.00  0.00     0.126 C 
HETATM   12  N   UNL     1      22.678  44.269  46.910  1.00  0.00    -0.350 N 
HETATM   13  C   UNL     1      22.344  44.979  45.756  1.00  0.00     0.251 C 
HETATM   14  C   UNL     1      23.441  43.023  46.868  1.00  0.00     0.126 C 
HETATM   15  O   UNL     1      22.053  46.182  45.771  1.00  0.00    -0.271 OA
HETATM   16  C   UNL     1      23.331  42.196  48.141  1.00  0.00     0.028 C 
BRANCH  13  17
HETATM   17  C   UNL     1      22.278  44.247  44.391  1.00  0.00     0.279 C 
HETATM   18  N   UNL     1      20.825  44.264  43.846  1.00  0.00    -0.062 N 
HETATM   19  C   UNL     1      19.862  43.531  44.751  1.00  0.00     0.270 C 
HETATM   20  H   UNL     1      20.541  45.258  43.902  1.00  0.00     0.280 HD
HETATM   21  C   UNL     1      20.686  43.778  42.431  1.00  0.00     0.235 C 
HETATM   22  C   UNL     1      21.607  44.552  41.507  1.00  0.00     0.028 C 
HETATM   23  C   UNL     1      23.050  44.459  41.973  1.00  0.00     0.004 C 
HETATM   24  C   UNL     1      23.187  44.979  43.395  1.00  0.00     0.043 C 
ENDBRANCH  13  17
ENDBRANCH   1   9
BRANCH   1  25
HETATM   25  C   UNL     1      25.913  41.882  49.583  1.00  0.00    -0.003 A 
HETATM   26  C   UNL     1      26.917  41.807  48.617  1.00  0.00     0.126 A 
HETATM   27  N   UNL     1      27.668  40.707  48.379  1.00  0.00    -0.272 NA
HETATM   28  C   UNL     1      27.414  39.611  49.122  1.00  0.00     0.116 A 
HETATM   29  C   UNL     1      26.450  39.569  50.109  1.00  0.00     0.020 A 
HETATM   30  C   UNL     1      25.698  40.718  50.343  1.00  0.00     0.013 A 
ENDBRANCH   1  25
BRANCH   5  31
HETATM   31  C   UNL     1      26.529  45.683  52.279  1.00  0.00     0.175 C 
BRANCH  31  32
HETATM   32  C   UNL     1      27.630  44.972  53.030  1.00  0.00    -0.040 A 
HETATM   33  C   UNL     1      28.346  43.931  52.418  1.00  0.00     0.012 A 
HETATM   34  C   UNL     1      29.354  43.265  53.116  1.00  0.00     0.043 A 
HETATM   35  C   UNL     1      29.638  43.628  54.426  1.00  0.00     0.116 A 
HETATM   36  F   UNL     1      30.606  42.988  55.095  1.00  0.00    -0.206 F 
HETATM   37  C   UNL     1      28.931  44.645  55.056  1.00  0.00     0.043 A 
HETATM   38  C   UNL     1      27.925  45.317  54.359  1.00  0.00     0.012 A 
ENDBRANCH  31  32
ENDBRANCH   5  31
TORSDOF 5
ENDMDL
MODEL 9
REMARK VINA RESULT:      -8.3      3.642      7.275
REMARK  5 active torsions:
REMARK  status: ('A' for Active; 'I' for Inactive)
REMARK    1  A    between atoms: C_4  and  C_5 
REMARK       I    between atoms: C_5  and  N_6 
REMARK    2  A    between atoms: C_9  and  C_10 
REMARK    3  A    between atoms: C_10  and  C_11 
REMARK    4  A    between atoms: N_20  and  C_21 
REMARK    5  A    between atoms: C_21  and  C_22 
ROOT
HETATM    1  C   UNL     1      25.039  43.748  49.571  1.00  0.00     0.148 A 
HETATM    2  N   UNL     1      25.902  44.761  48.969  1.00  0.00    -0.320 N 
HETATM    3  C   UNL     1      26.109  45.852  49.775  1.00  0.00     0.326 A 
HETATM    4  O   UNL     1      26.863  46.766  49.496  1.00  0.00    -0.247 OA
HETATM    5  N   UNL     1      25.319  45.735  50.868  1.00  0.00    -0.263 N 
HETATM    6  C   UNL     1      24.628  44.560  50.831  1.00  0.00     0.262 A 
HETATM    7  O   UNL     1      23.807  44.210  51.670  1.00  0.00    -0.270 OA
HETATM    8  H   UNL     1      26.515  44.617  48.177  1.00  0.00     0.166 HD
ENDROOT
BRANCH   1   9
HETATM    9  C   UNL     1      23.860  43.415  48.591  1.00  0.00     0.031 C 
HETATM   10  C   UNL     1      22.482  43.160  49.233  1.00  0.00     0.028 C 
HETATM   11  C   UNL     1      21.648  44.404  49.515  1.00  0.00     0.126 C 
HETATM   12  N   UNL     1      21.607  45.362  48.405  1.00  0.00    -0.350 N 
HETATM   13  C   UNL     1      20.575  46.299  48.460  1.00  0.00     0.251 C 
HETATM   14  C   UNL     1      22.874  45.633  47.727  1.00  0.00     0.126 C 
HETATM   15  O   UNL     1      19.682  46.262  49.316  1.00  0.00    -0.271 OA
HETATM   16  C   UNL     1      23.674  44.379  47.405  1.00  0.00     0.028 C 
BRANCH  13  17
HETATM   17  C   UNL     1      20.489  47.418  47.389  1.00  0.00     0.279 C 
HETATM   18  N   UNL     1      19.151  47.309  46.610  1.00  0.00    -0.062 N 
HETATM   19  C   UNL     1      19.031  46.006  45.853  1.00  0.00     0.270 C 
HETATM   20  H   UNL     1      18.428  47.257  47.348  1.00  0.00     0.280 HD
HETATM   21  C   UNL     1      18.865  48.471  45.702  1.00  0.00     0.235 C 
HETATM   22  C   UNL     1      18.925  49.778  46.469  1.00  0.00     0.028 C 
HETATM   23  C   UNL     1      20.270  49.945  47.156  1.00  0.00     0.004 C 
HETATM   24  C   UNL     1      20.540  48.780  48.095  1.00  0.00     0.043 C 
ENDBRANCH  13  17
ENDBRANCH   1   9
BRANCH   1  25
HETATM   25  C   UNL     1      25.885  42.517  49.888  1.00  0.00    -0.003 A 
HETATM   26  C   UNL     1      27.119  42.589  50.536  1.00  0.00     0.126 A 
HETATM   27  N   UNL     1      27.879  41.516  50.853  1.00  0.00    -0.272 NA
HETATM   28  C   UNL     1      27.412  40.300  50.507  1.00  0.00     0.116 A 
HETATM   29  C   UNL     1      26.203  40.106  49.868  1.00  0.00     0.020 A 
HETATM   30  C   UNL     1      25.433  41.225  49.563  1.00  0.00     0.013 A 
ENDBRANCH   1  25
BRANCH   5  31
HETATM   31  C   UNL     1      25.257  46.698  51.943  1.00  0.00     0.175 C 
BRANCH  31  32
HETATM   32  C   UNL     1      26.301  46.427  52.999  1.00  0.00    -0.040 A 
HETATM   33  C   UNL     1      26.719  47.452  53.862  1.00  0.00     0.012 A 
HETATM   34  C   UNL     1      27.695  47.205  54.828  1.00  0.00     0.043 A 
HETATM   35  C   UNL     1      28.261  45.940  54.926  1.00  0.00     0.116 A 
HETATM   36  F   UNL     1      29.196  45.704  55.855  1.00  0.00    -0.206 F 
HETATM   37  C   UNL     1      27.872  44.915  54.073  1.00  0.00     0.043 A 
HETATM   38  C   UNL     1      26.893  45.158  53.107  1.00  0.00     0.012 A 
ENDBRANCH  31  32
ENDBRANCH   5  31
TORSDOF 5
ENDMDL
MODEL 10
REMARK VINA RESULT:      -8.3      2.848      7.131
REMARK  5 active torsions:
REMARK  status: ('A' for Active; 'I' for Inactive)
REMARK    1  A    between atoms: C_4  and  C_5 
REMARK       I    between atoms: C_5  and  N_6 
REMARK    2  A    between atoms: C_9  and  C_10 
REMARK    3  A    between atoms: C_10  and  C_11 
REMARK    4  A    between atoms: N_20  and  C_21 
REMARK    5  A    between atoms: C_21  and  C_22 
ROOT
HETATM    1  C   UNL     1      26.852  43.802  51.999  1.00  0.00     0.148 A 
HETATM    2  N   UNL     1      26.085  42.560  52.047  1.00  0.00    -0.320 N 
HETATM    3  C   UNL     1      26.055  41.891  50.849  1.00  0.00     0.326 A 
HETATM    4  O   UNL     1      25.542  40.796  50.699  1.00  0.00    -0.247 OA
HETATM    5  N   UNL     1      26.642  42.666  49.908  1.00  0.00    -0.263 N 
HETATM    6  C   UNL     1      27.111  43.818  50.467  1.00  0.00     0.262 A 
HETATM    7  O   UNL     1      27.652  44.723  49.843  1.00  0.00    -0.270 OA
HETATM    8  H   UNL     1      25.814  42.067  52.888  1.00  0.00     0.166 HD
ENDROOT
BRANCH   1   9
HETATM    9  C   UNL     1      25.968  44.985  52.528  1.00  0.00     0.031 C 
HETATM   10  C   UNL     1      26.449  46.409  52.189  1.00  0.00     0.028 C 
HETATM   11  C   UNL     1      26.016  46.942  50.827  1.00  0.00     0.126 C 
HETATM   12  N   UNL     1      24.601  46.713  50.515  1.00  0.00    -0.350 N 
HETATM   13  C   UNL     1      24.079  47.500  49.489  1.00  0.00     0.251 C 
HETATM   14  C   UNL     1      24.066  45.391  50.837  1.00  0.00     0.126 C 
HETATM   15  O   UNL     1      24.720  48.412  48.951  1.00  0.00    -0.271 OA
HETATM   16  C   UNL     1      24.461  44.892  52.220  1.00  0.00     0.028 C 
BRANCH  13  17
HETATM   17  C   UNL     1      22.620  47.278  49.012  1.00  0.00     0.279 C 
HETATM   18  N   UNL     1      22.034  48.604  48.457  1.00  0.00    -0.062 N 
HETATM   19  C   UNL     1      21.961  49.686  49.509  1.00  0.00     0.270 C 
HETATM   20  H   UNL     1      22.743  48.935  47.780  1.00  0.00     0.280 HD
HETATM   21  C   UNL     1      20.707  48.455  47.766  1.00  0.00     0.235 C 
HETATM   22  C   UNL     1      20.789  47.412  46.669  1.00  0.00     0.028 C 
HETATM   23  C   UNL     1      21.266  46.079  47.218  1.00  0.00     0.004 C 
HETATM   24  C   UNL     1      22.622  46.232  47.890  1.00  0.00     0.043 C 
ENDBRANCH  13  17
ENDBRANCH   1   9
BRANCH   1  25
HETATM   25  C   UNL     1      28.121  43.619  52.830  1.00  0.00    -0.003 A 
HETATM   26  C   UNL     1      28.281  44.167  54.103  1.00  0.00     0.126 A 
HETATM   27  N   UNL     1      29.381  44.002  54.873  1.00  0.00    -0.272 NA
HETATM   28  C   UNL     1      30.390  43.268  54.364  1.00  0.00     0.116 A 
HETATM   29  C   UNL     1      30.343  42.672  53.118  1.00  0.00     0.020 A 
HETATM   30  C   UNL     1      29.194  42.847  52.350  1.00  0.00     0.013 A 
ENDBRANCH   1  25
BRANCH   5  31
HETATM   31  C   UNL     1      26.792  42.299  48.518  1.00  0.00     0.175 C 
BRANCH  31  32
HETATM   32  C   UNL     1      27.443  40.946  48.364  1.00  0.00    -0.040 A 
HETATM   33  C   UNL     1      26.890  39.988  47.499  1.00  0.00     0.012 A 
HETATM   34  C   UNL     1      27.483  38.732  47.368  1.00  0.00     0.043 A 
HETATM   35  C   UNL     1      28.620  38.428  48.106  1.00  0.00     0.116 A 
HETATM   36  F   UNL     1      29.189  37.222  47.978  1.00  0.00    -0.206 F 
HETATM   37  C   UNL     1      29.174  39.355  48.979  1.00  0.00     0.043 A 
HETATM   38  C   UNL     1      28.586  40.615  49.111  1.00  0.00     0.012 A 
ENDBRANCH  31  32
ENDBRANCH   5  31
TORSDOF 5
ENDMDL
