MODEL 1
REMARK VINA RESULT:      -7.6      0.000      0.000
REMARK  6 active torsions:
REMARK  status: ('A' for Active; 'I' for Inactive)
REMARK    1  A    between atoms: C_4  and  C_5 
REMARK    2  A    between atoms: C_7  and  N_8 
REMARK    3  A    between atoms: N_8  and  C_9 
REMARK    4  A    between atoms: C_9  and  C_10 
REMARK    5  A    between atoms: C_10  and  C_11 
REMARK    6  A    between atoms: C_11  and  N_12 
ROOT
HETATM    1  C   UNL     1      28.957  43.767  53.914  1.00  0.00     0.162 C 
HETATM    2  N   UNL     1      28.404  44.962  54.227  1.00  0.00    -0.216 NA
HETATM    3  C   UNL     1      28.748  45.486  55.426  1.00  0.00     0.118 C 
HETATM    4  C   UNL     1      29.794  44.956  56.212  1.00  0.00     0.033 A 
HETATM    5  C   UNL     1      30.347  43.764  55.741  1.00  0.00     0.072 A 
HETATM    6  N   UNL     1      29.922  43.170  54.625  1.00  0.00    -0.228 NA
HETATM    7  C   UNL     1      30.308  45.532  57.405  1.00  0.00     0.017 A 
HETATM    8  C   UNL     1      31.343  44.919  58.108  1.00  0.00     0.001 A 
HETATM    9  C   UNL     1      31.877  43.729  57.635  1.00  0.00     0.002 A 
HETATM   10  C   UNL     1      31.375  43.166  56.460  1.00  0.00     0.032 A 
ENDROOT
BRANCH   3  11
HETATM   11  N   UNL     1      28.105  46.675  55.846  1.00  0.00    -0.277 NA
HETATM   12  H   UNL     1      27.222  46.401  56.286  1.00  0.00     0.129 HD
BRANCH  11  13
HETATM   13  C   UNL     1      27.847  47.704  54.842  1.00  0.00     0.095 C 
BRANCH  13  14
HETATM   14  C   UNL     1      26.342  47.918  54.682  1.00  0.00     0.042 C 
BRANCH  14  15
HETATM   15  C   UNL     1      25.685  47.124  53.560  1.00  0.00     0.230 C 
BRANCH  15  16
HETATM   16  N   UNL     1      25.513  45.705  53.926  1.00  0.00    -0.079 N 
HETATM   17  H   UNL     1      24.614  45.584  54.437  1.00  0.00     0.274 HD
HETATM   18  H   UNL     1      25.499  45.080  53.114  1.00  0.00     0.274 HD
HETATM   19  H   UNL     1      26.248  45.389  54.569  1.00  0.00     0.274 HD
ENDBRANCH  15  16
ENDBRANCH  14  15
ENDBRANCH  13  14
ENDBRANCH  11  13
ENDBRANCH   3  11
BRANCH   1  20
HETATM   20  C   UNL     1      28.484  43.061  52.704  1.00  0.00     0.012 A 
HETATM   21  C   UNL     1      28.745  41.697  52.473  1.00  0.00     0.015 A 
HETATM   22  C   UNL     1      28.275  41.044  51.327  1.00  0.00     0.001 A 
HETATM   23  C   UNL     1      27.549  41.747  50.371  1.00  0.00     0.000 A 
HETATM   24  C   UNL     1      27.292  43.101  50.560  1.00  0.00     0.001 A 
HETATM   25  C   UNL     1      27.750  43.745  51.713  1.00  0.00     0.015 A 
ENDBRANCH   1  20
TORSDOF 6
ENDMDL
MODEL 2
REMARK VINA RESULT:      -7.5      2.095      6.447
REMARK  6 active torsions:
REMARK  status: ('A' for Active; 'I' for Inactive)
REMARK    1  A    between atoms: C_4  and  C_5 
REMARK    2  A    between atoms: C_7  and  N_8 
REMARK    3  A    between atoms: N_8  and  C_9 
REMARK    4  A    between atoms: C_9  and  C_10 
REMARK    5  A    between atoms: C_10  and  C_11 
REMARK    6  A    between atoms: C_11  and  N_12 
ROOT
HETATM    1  C   UNL     1      28.702  44.256  54.682  1.00  0.00     0.162 C 
HETATM    2  N   UNL     1      28.558  43.071  54.043  1.00  0.00    -0.216 NA
HETATM    3  C   UNL     1      27.526  42.980  53.174  1.00  0.00     0.118 C 
HETATM    4  C   UNL     1      26.777  44.105  52.766  1.00  0.00     0.033 A 
HETATM    5  C   UNL     1      27.075  45.293  53.438  1.00  0.00     0.072 A 
HETATM    6  N   UNL     1      28.004  45.361  54.392  1.00  0.00    -0.228 NA
HETATM    7  C   UNL     1      25.780  44.116  51.754  1.00  0.00     0.017 A 
HETATM    8  C   UNL     1      25.095  45.287  51.435  1.00  0.00     0.001 A 
HETATM    9  C   UNL     1      25.393  46.458  52.117  1.00  0.00     0.002 A 
HETATM   10  C   UNL     1      26.377  46.449  53.107  1.00  0.00     0.032 A 
ENDROOT
BRANCH   3  11
HETATM   11  N   UNL     1      27.267  41.726  52.571  1.00  0.00    -0.277 NA
HETATM   12  H   UNL     1      27.091  41.059  53.328  1.00  0.00     0.129 HD
BRANCH  11  13
HETATM   13  C   UNL     1      28.277  41.179  51.668  1.00  0.00     0.095 C 
BRANCH  13  14
HETATM   14  C   UNL     1      27.728  41.113  50.243  1.00  0.00     0.042 C 
BRANCH  14  15
HETATM   15  C   UNL     1      26.298  40.607  50.116  1.00  0.00     0.230 C 
BRANCH  15  16
HETATM   16  N   UNL     1      26.143  39.260  50.699  1.00  0.00    -0.079 N 
HETATM   17  H   UNL     1      27.039  38.967  51.140  1.00  0.00     0.274 HD
HETATM   18  H   UNL     1      25.411  39.214  51.415  1.00  0.00     0.274 HD
HETATM   19  H   UNL     1      25.941  38.558  49.978  1.00  0.00     0.274 HD
ENDBRANCH  15  16
ENDBRANCH  14  15
ENDBRANCH  13  14
ENDBRANCH  11  13
ENDBRANCH   3  11
BRANCH   1  20
HETATM   20  C   UNL     1      29.696  44.359  55.772  1.00  0.00     0.012 A 
HETATM   21  C   UNL     1      29.701  45.423  56.693  1.00  0.00     0.015 A 
HETATM   22  C   UNL     1      30.643  45.494  57.727  1.00  0.00     0.001 A 
HETATM   23  C   UNL     1      31.618  44.510  57.850  1.00  0.00     0.000 A 
HETATM   24  C   UNL     1      31.653  43.456  56.944  1.00  0.00     0.001 A 
HETATM   25  C   UNL     1      30.701  43.382  55.923  1.00  0.00     0.015 A 
ENDBRANCH   1  20
TORSDOF 6
ENDMDL
MODEL 3
REMARK VINA RESULT:      -7.5      0.894      5.304
REMARK  6 active torsions:
REMARK  status: ('A' for Active; 'I' for Inactive)
REMARK    1  A    between atoms: C_4  and  C_5 
REMARK    2  A    between atoms: C_7  and  N_8 
REMARK    3  A    between atoms: N_8  and  C_9 
REMARK    4  A    between atoms: C_9  and  C_10 
REMARK    5  A    between atoms: C_10  and  C_11 
REMARK    6  A    between atoms: C_11  and  N_12 
ROOT
HETATM    1  C   UNL     1      29.211  43.734  54.555  1.00  0.00     0.162 C 
HETATM    2  N   UNL     1      28.314  44.643  54.105  1.00  0.00    -0.216 NA
HETATM    3  C   UNL     1      27.727  44.368  52.917  1.00  0.00     0.118 C 
HETATM    4  C   UNL     1      27.849  43.112  52.284  1.00  0.00     0.033 A 
HETATM    5  C   UNL     1      28.741  42.224  52.891  1.00  0.00     0.072 A 
HETATM    6  N   UNL     1      29.424  42.538  53.991  1.00  0.00    -0.228 NA
HETATM    7  C   UNL     1      27.151  42.700  51.117  1.00  0.00     0.017 A 
HETATM    8  C   UNL     1      27.353  41.434  50.571  1.00  0.00     0.001 A 
HETATM    9  C   UNL     1      28.250  40.566  51.177  1.00  0.00     0.002 A 
HETATM   10  C   UNL     1      28.931  40.968  52.327  1.00  0.00     0.032 A 
ENDROOT
BRANCH   3  11
HETATM   11  N   UNL     1      26.871  45.343  52.353  1.00  0.00    -0.277 NA
HETATM   12  H   UNL     1      27.441  46.173  52.167  1.00  0.00     0.129 HD
BRANCH  11  13
HETATM   13  C   UNL     1      25.683  45.731  53.109  1.00  0.00     0.095 C 
BRANCH  13  14
HETATM   14  C   UNL     1      25.685  47.239  53.356  1.00  0.00     0.042 C 
BRANCH  14  15
HETATM   15  C   UNL     1      26.296  47.684  54.678  1.00  0.00     0.230 C 
BRANCH  15  16
HETATM   16  N   UNL     1      27.771  47.620  54.644  1.00  0.00    -0.079 N 
HETATM   17  H   UNL     1      28.089  47.429  53.672  1.00  0.00     0.274 HD
HETATM   18  H   UNL     1      28.218  48.488  54.956  1.00  0.00     0.274 HD
HETATM   19  H   UNL     1      28.127  46.844  55.215  1.00  0.00     0.274 HD
ENDBRANCH  15  16
ENDBRANCH  14  15
ENDBRANCH  13  14
ENDBRANCH  11  13
ENDBRANCH   3  11
BRANCH   1  20
HETATM   20  C   UNL     1      30.015  44.063  55.752  1.00  0.00     0.012 A 
HETATM   21  C   UNL     1      31.058  43.237  56.213  1.00  0.00     0.015 A 
HETATM   22  C   UNL     1      31.816  43.574  57.341  1.00  0.00     0.001 A 
HETATM   23  C   UNL     1      31.534  44.738  58.048  1.00  0.00     0.000 A 
HETATM   24  C   UNL     1      30.497  45.564  57.631  1.00  0.00     0.001 A 
HETATM   25  C   UNL     1      29.753  45.231  56.495  1.00  0.00     0.015 A 
ENDBRANCH   1  20
TORSDOF 6
ENDMDL
MODEL 4
REMARK VINA RESULT:      -7.3      2.253      6.701
REMARK  6 active torsions:
REMARK  status: ('A' for Active; 'I' for Inactive)
REMARK    1  A    between atoms: C_4  and  C_5 
REMARK    2  A    between atoms: C_7  and  N_8 
REMARK    3  A    between atoms: N_8  and  C_9 
REMARK    4  A    between atoms: C_9  and  C_10 
REMARK    5  A    between atoms: C_10  and  C_11 
REMARK    6  A    between atoms: C_11  and  N_12 
ROOT
HETATM    1  C   UNL     1      27.785  44.291  53.291  1.00  0.00     0.162 C 
HETATM    2  N   UNL     1      27.417  43.133  52.694  1.00  0.00    -0.216 NA
HETATM    3  C   UNL     1      26.339  43.195  51.878  1.00  0.00     0.118 C 
HETATM    4  C   UNL     1      25.763  44.419  51.476  1.00  0.00     0.033 A 
HETATM    5  C   UNL     1      26.285  45.556  52.098  1.00  0.00     0.072 A 
HETATM    6  N   UNL     1      27.262  45.490  53.003  1.00  0.00    -0.228 NA
HETATM    7  C   UNL     1      24.729  44.573  50.514  1.00  0.00     0.017 A 
HETATM    8  C   UNL     1      24.228  45.833  50.195  1.00  0.00     0.001 A 
HETATM    9  C   UNL     1      24.748  46.953  50.827  1.00  0.00     0.002 A 
HETATM   10  C   UNL     1      25.768  46.803  51.769  1.00  0.00     0.032 A 
ENDROOT
BRANCH   3  11
HETATM   11  N   UNL     1      25.849  41.988  51.325  1.00  0.00    -0.277 NA
HETATM   12  H   UNL     1      25.964  41.262  52.038  1.00  0.00     0.129 HD
BRANCH  11  13
HETATM   13  C   UNL     1      26.428  41.528  50.065  1.00  0.00     0.095 C 
BRANCH  13  14
HETATM   14  C   UNL     1      26.912  40.085  50.204  1.00  0.00     0.042 C 
BRANCH  14  15
HETATM   15  C   UNL     1      28.398  39.919  50.487  1.00  0.00     0.230 C 
BRANCH  15  16
HETATM   16  N   UNL     1      28.750  40.382  51.844  1.00  0.00    -0.079 N 
HETATM   17  H   UNL     1      27.902  40.368  52.447  1.00  0.00     0.274 HD
HETATM   18  H   UNL     1      29.465  39.802  52.294  1.00  0.00     0.274 HD
HETATM   19  H   UNL     1      29.074  41.356  51.838  1.00  0.00     0.274 HD
ENDBRANCH  15  16
ENDBRANCH  14  15
ENDBRANCH  13  14
ENDBRANCH  11  13
ENDBRANCH   3  11
BRANCH   1  20
HETATM   20  C   UNL     1      28.838  44.252  54.328  1.00  0.00     0.012 A 
HETATM   21  C   UNL     1      29.713  43.160  54.476  1.00  0.00     0.015 A 
HETATM   22  C   UNL     1      30.714  43.150  55.456  1.00  0.00     0.001 A 
HETATM   23  C   UNL     1      30.849  44.226  56.326  1.00  0.00     0.000 A 
HETATM   24  C   UNL     1      29.987  45.311  56.219  1.00  0.00     0.001 A 
HETATM   25  C   UNL     1      29.000  45.324  55.229  1.00  0.00     0.015 A 
ENDBRANCH   1  20
TORSDOF 6
ENDMDL
MODEL 5
REMARK VINA RESULT:      -7.2      2.779      7.135
REMARK  6 active torsions:
REMARK  status: ('A' for Active; 'I' for Inactive)
REMARK    1  A    between atoms: C_4  and  C_5 
REMARK    2  A    between atoms: C_7  and  N_8 
REMARK    3  A    between atoms: N_8  and  C_9 
REMARK    4  A    between atoms: C_9  and  C_10 
REMARK    5  A    between atoms: C_10  and  C_11 
REMARK    6  A    between atoms: C_11  and  N_12 
ROOT
HETATM    1  C   UNL     1      28.070  43.375  53.368  1.00  0.00     0.162 C 
HETATM    2  N   UNL     1      28.263  42.190  52.743  1.00  0.00    -0.216 NA
HETATM    3  C   UNL     1      27.274  41.782  51.914  1.00  0.00     0.118 C 
HETATM    4  C   UNL     1      26.212  42.628  51.528  1.00  0.00     0.033 A 
HETATM    5  C   UNL     1      26.168  43.863  52.180  1.00  0.00     0.072 A 
HETATM    6  N   UNL     1      27.067  44.219  53.097  1.00  0.00    -0.228 NA
HETATM    7  C   UNL     1      25.222  42.325  50.555  1.00  0.00     0.017 A 
HETATM    8  C   UNL     1      24.211  43.235  50.254  1.00  0.00     0.001 A 
HETATM    9  C   UNL     1      24.171  44.454  50.916  1.00  0.00     0.002 A 
HETATM   10  C   UNL     1      25.148  44.754  51.868  1.00  0.00     0.032 A 
ENDROOT
BRANCH   3  11
HETATM   11  N   UNL     1      27.378  40.497  51.330  1.00  0.00    -0.277 NA
HETATM   12  H   UNL     1      27.715  39.862  52.059  1.00  0.00     0.129 HD
BRANCH  11  13
HETATM   13  C   UNL     1      28.210  40.352  50.138  1.00  0.00     0.095 C 
BRANCH  13  14
HETATM   14  C   UNL     1      28.766  38.931  50.053  1.00  0.00     0.042 C 
BRANCH  14  15
HETATM   15  C   UNL     1      27.804  37.884  49.508  1.00  0.00     0.230 C 
BRANCH  15  16
HETATM   16  N   UNL     1      26.439  38.071  50.037  1.00  0.00    -0.079 N 
HETATM   17  H   UNL     1      25.747  37.706  49.351  1.00  0.00     0.274 HD
HETATM   18  H   UNL     1      26.284  37.587  50.927  1.00  0.00     0.274 HD
HETATM   19  H   UNL     1      26.215  39.065  50.161  1.00  0.00     0.274 HD
ENDBRANCH  15  16
ENDBRANCH  14  15
ENDBRANCH  13  14
ENDBRANCH  11  13
ENDBRANCH   3  11
BRANCH   1  20
HETATM   20  C   UNL     1      29.026  43.787  54.418  1.00  0.00     0.012 A 
HETATM   21  C   UNL     1      30.082  42.961  54.847  1.00  0.00     0.015 A 
HETATM   22  C   UNL     1      30.985  43.377  55.833  1.00  0.00     0.001 A 
HETATM   23  C   UNL     1      30.839  44.624  56.431  1.00  0.00     0.000 A 
HETATM   24  C   UNL     1      29.794  45.456  56.045  1.00  0.00     0.001 A 
HETATM   25  C   UNL     1      28.905  45.043  55.048  1.00  0.00     0.015 A 
ENDBRANCH   1  20
TORSDOF 6
ENDMDL
MODEL 6
REMARK VINA RESULT:      -7.1      2.160      5.882
REMARK  6 active torsions:
REMARK  status: ('A' for Active; 'I' for Inactive)
REMARK    1  A    between atoms: C_4  and  C_5 
REMARK    2  A    between atoms: C_7  and  N_8 
REMARK    3  A    between atoms: N_8  and  C_9 
REMARK    4  A    between atoms: C_9  and  C_10 
REMARK    5  A    between atoms: C_10  and  C_11 
REMARK    6  A    between atoms: C_11  and  N_12 
ROOT
HETATM    1  C   UNL     1      28.299  42.983  53.412  1.00  0.00     0.162 C 
HETATM    2  N   UNL     1      27.045  43.444  53.191  1.00  0.00    -0.216 NA
HETATM    3  C   UNL     1      26.395  42.920  52.126  1.00  0.00     0.118 C 
HETATM    4  C   UNL     1      26.878  41.799  51.418  1.00  0.00     0.033 A 
HETATM    5  C   UNL     1      28.150  41.361  51.796  1.00  0.00     0.072 A 
HETATM    6  N   UNL     1      28.854  41.955  52.758  1.00  0.00    -0.228 NA
HETATM    7  C   UNL     1      26.186  41.106  50.388  1.00  0.00     0.017 A 
HETATM    8  C   UNL     1      26.763  40.010  49.750  1.00  0.00     0.001 A 
HETATM    9  C   UNL     1      28.031  39.591  50.126  1.00  0.00     0.002 A 
HETATM   10  C   UNL     1      28.708  40.268  51.143  1.00  0.00     0.032 A 
ENDROOT
BRANCH   3  11
HETATM   11  N   UNL     1      25.128  43.455  51.787  1.00  0.00    -0.277 NA
HETATM   12  H   UNL     1      24.984  43.276  50.789  1.00  0.00     0.129 HD
BRANCH  11  13
HETATM   13  C   UNL     1      24.885  44.867  52.067  1.00  0.00     0.095 C 
BRANCH  13  14
HETATM   14  C   UNL     1      24.521  45.605  50.779  1.00  0.00     0.042 C 
BRANCH  14  15
HETATM   15  C   UNL     1      25.514  45.451  49.635  1.00  0.00     0.230 C 
BRANCH  15  16
HETATM   16  N   UNL     1      25.229  44.249  48.825  1.00  0.00    -0.079 N 
HETATM   17  H   UNL     1      24.604  43.611  49.358  1.00  0.00     0.274 HD
HETATM   18  H   UNL     1      24.772  44.465  47.934  1.00  0.00     0.274 HD
HETATM   19  H   UNL     1      26.083  43.713  48.634  1.00  0.00     0.274 HD
ENDBRANCH  15  16
ENDBRANCH  14  15
ENDBRANCH  13  14
ENDBRANCH  11  13
ENDBRANCH   3  11
BRANCH   1  20
HETATM   20  C   UNL     1      29.125  43.643  54.447  1.00  0.00     0.012 A 
HETATM   21  C   UNL     1      30.269  43.038  55.001  1.00  0.00     0.015 A 
HETATM   22  C   UNL     1      31.045  43.686  55.969  1.00  0.00     0.001 A 
HETATM   23  C   UNL     1      30.681  44.949  56.424  1.00  0.00     0.000 A 
HETATM   24  C   UNL     1      29.545  45.565  55.912  1.00  0.00     0.001 A 
HETATM   25  C   UNL     1      28.782  44.920  54.933  1.00  0.00     0.015 A 
ENDBRANCH   1  20
TORSDOF 6
ENDMDL
MODEL 7
REMARK VINA RESULT:      -7.0      7.811     11.550
REMARK  6 active torsions:
REMARK  status: ('A' for Active; 'I' for Inactive)
REMARK    1  A    between atoms: C_4  and  C_5 
REMARK    2  A    between atoms: C_7  and  N_8 
REMARK    3  A    between atoms: N_8  and  C_9 
REMARK    4  A    between atoms: C_9  and  C_10 
REMARK    5  A    between atoms: C_10  and  C_11 
REMARK    6  A    between atoms: C_11  and  N_12 
ROOT
HETATM    1  C   UNL     1      22.606  49.218  48.886  1.00  0.00     0.162 C 
HETATM    2  N   UNL     1      21.867  48.092  49.023  1.00  0.00    -0.216 NA
HETATM    3  C   UNL     1      20.533  48.265  49.172  1.00  0.00     0.118 C 
HETATM    4  C   UNL     1      19.903  49.511  48.966  1.00  0.00     0.033 A 
HETATM    5  C   UNL     1      20.768  50.586  48.748  1.00  0.00     0.072 A 
HETATM    6  N   UNL     1      22.093  50.445  48.730  1.00  0.00    -0.228 NA
HETATM    7  C   UNL     1      18.501  49.740  48.961  1.00  0.00     0.017 A 
HETATM    8  C   UNL     1      17.985  51.017  48.753  1.00  0.00     0.001 A 
HETATM    9  C   UNL     1      18.854  52.079  48.548  1.00  0.00     0.002 A 
HETATM   10  C   UNL     1      20.232  51.852  48.547  1.00  0.00     0.032 A 
ENDROOT
BRANCH   3  11
HETATM   11  N   UNL     1      19.736  47.125  49.434  1.00  0.00    -0.277 NA
HETATM   12  H   UNL     1      19.890  46.869  50.414  1.00  0.00     0.129 HD
BRANCH  11  13
HETATM   13  C   UNL     1      19.926  45.948  48.590  1.00  0.00     0.095 C 
BRANCH  13  14
HETATM   14  C   UNL     1      19.295  46.177  47.217  1.00  0.00     0.042 C 
BRANCH  14  15
HETATM   15  C   UNL     1      17.855  45.703  47.073  1.00  0.00     0.230 C 
BRANCH  15  16
HETATM   16  N   UNL     1      17.202  45.538  48.386  1.00  0.00    -0.079 N 
HETATM   17  H   UNL     1      17.176  46.454  48.879  1.00  0.00     0.274 HD
HETATM   18  H   UNL     1      16.240  45.191  48.316  1.00  0.00     0.274 HD
HETATM   19  H   UNL     1      17.734  44.905  48.995  1.00  0.00     0.274 HD
ENDBRANCH  15  16
ENDBRANCH  14  15
ENDBRANCH  13  14
ENDBRANCH  11  13
ENDBRANCH   3  11
BRANCH   1  20
HETATM   20  C   UNL     1      24.080  49.106  48.900  1.00  0.00     0.012 A 
HETATM   21  C   UNL     1      24.757  48.126  49.651  1.00  0.00     0.015 A 
HETATM   22  C   UNL     1      26.154  48.028  49.638  1.00  0.00     0.001 A 
HETATM   23  C   UNL     1      26.910  48.924  48.889  1.00  0.00     0.000 A 
HETATM   24  C   UNL     1      26.272  49.916  48.153  1.00  0.00     0.001 A 
HETATM   25  C   UNL     1      24.877  50.000  48.156  1.00  0.00     0.015 A 
ENDBRANCH   1  20
TORSDOF 6
ENDMDL
MODEL 8
REMARK VINA RESULT:      -6.9      3.331      6.192
REMARK  6 active torsions:
REMARK  status: ('A' for Active; 'I' for Inactive)
REMARK    1  A    between atoms: C_4  and  C_5 
REMARK    2  A    between atoms: C_7  and  N_8 
REMARK    3  A    between atoms: N_8  and  C_9 
REMARK    4  A    between atoms: C_9  and  C_10 
REMARK    5  A    between atoms: C_10  and  C_11 
REMARK    6  A    between atoms: C_11  and  N_12 
ROOT
HETATM    1  C   UNL     1      25.947  47.168  50.636  1.00  0.00     0.162 C 
HETATM    2  N   UNL     1      25.795  47.448  51.952  1.00  0.00    -0.216 NA
HETATM    3  C   UNL     1      25.920  46.404  52.804  1.00  0.00     0.118 C 
HETATM    4  C   UNL     1      26.407  45.145  52.394  1.00  0.00     0.033 A 
HETATM    5  C   UNL     1      26.609  45.004  51.019  1.00  0.00     0.072 A 
HETATM    6  N   UNL     1      26.363  45.989  50.156  1.00  0.00    -0.228 NA
HETATM    7  C   UNL     1      26.702  44.050  53.250  1.00  0.00     0.017 A 
HETATM    8  C   UNL     1      27.176  42.845  52.736  1.00  0.00     0.001 A 
HETATM    9  C   UNL     1      27.362  42.714  51.367  1.00  0.00     0.002 A 
HETATM   10  C   UNL     1      27.078  43.792  50.526  1.00  0.00     0.032 A 
ENDROOT
BRANCH   3  11
HETATM   11  N   UNL     1      25.654  46.626  54.176  1.00  0.00    -0.277 NA
HETATM   12  H   UNL     1      24.645  46.772  54.268  1.00  0.00     0.129 HD
BRANCH  11  13
HETATM   13  C   UNL     1      26.364  47.715  54.843  1.00  0.00     0.095 C 
BRANCH  13  14
HETATM   14  C   UNL     1      27.861  47.413  54.895  1.00  0.00     0.042 C 
BRANCH  14  15
HETATM   15  C   UNL     1      28.278  46.339  55.890  1.00  0.00     0.230 C 
BRANCH  15  16
HETATM   16  N   UNL     1      29.721  46.044  55.801  1.00  0.00    -0.079 N 
HETATM   17  H   UNL     1      30.014  46.036  54.802  1.00  0.00     0.274 HD
HETATM   18  H   UNL     1      30.302  46.731  56.292  1.00  0.00     0.274 HD
HETATM   19  H   UNL     1      29.939  45.110  56.166  1.00  0.00     0.274 HD
ENDBRANCH  15  16
ENDBRANCH  14  15
ENDBRANCH  13  14
ENDBRANCH  11  13
ENDBRANCH   3  11
BRANCH   1  20
HETATM   20  C   UNL     1      25.647  48.225  49.646  1.00  0.00     0.012 A 
HETATM   21  C   UNL     1      26.655  48.963  48.998  1.00  0.00     0.015 A 
HETATM   22  C   UNL     1      26.349  49.951  48.053  1.00  0.00     0.001 A 
HETATM   23  C   UNL     1      25.022  50.238  47.750  1.00  0.00     0.000 A 
HETATM   24  C   UNL     1      24.003  49.541  48.388  1.00  0.00     0.001 A 
HETATM   25  C   UNL     1      24.314  48.546  49.319  1.00  0.00     0.015 A 
ENDBRANCH   1  20
TORSDOF 6
ENDMDL
MODEL 9
REMARK VINA RESULT:      -6.8      1.509      2.269
REMARK  6 active torsions:
REMARK  status: ('A' for Active; 'I' for Inactive)
REMARK    1  A    between atoms: C_4  and  C_5 
REMARK    2  A    between atoms: C_7  and  N_8 
REMARK    3  A    between atoms: N_8  and  C_9 
REMARK    4  A    between atoms: C_9  and  C_10 
REMARK    5  A    between atoms: C_10  and  C_11 
REMARK    6  A    between atoms: C_11  and  N_12 
ROOT
HETATM    1  C   UNL     1      27.916  42.909  52.737  1.00  0.00     0.162 C 
HETATM    2  N   UNL     1      27.162  44.020  52.910  1.00  0.00    -0.216 NA
HETATM    3  C   UNL     1      27.486  44.807  53.962  1.00  0.00     0.118 C 
HETATM    4  C   UNL     1      28.673  44.628  54.705  1.00  0.00     0.033 A 
HETATM    5  C   UNL     1      29.414  43.490  54.377  1.00  0.00     0.072 A 
HETATM    6  N   UNL     1      29.031  42.637  53.427  1.00  0.00    -0.228 NA
HETATM    7  C   UNL     1      29.152  45.494  55.724  1.00  0.00     0.017 A 
HETATM    8  C   UNL     1      30.339  45.218  56.400  1.00  0.00     0.001 A 
HETATM    9  C   UNL     1      31.060  44.078  56.072  1.00  0.00     0.002 A 
HETATM   10  C   UNL     1      30.592  43.230  55.067  1.00  0.00     0.032 A 
ENDROOT
BRANCH   3  11
HETATM   11  N   UNL     1      26.654  45.915  54.250  1.00  0.00    -0.277 NA
HETATM   12  H   UNL     1      25.695  45.562  54.318  1.00  0.00     0.129 HD
BRANCH  11  13
HETATM   13  C   UNL     1      26.688  47.053  53.334  1.00  0.00     0.095 C 
BRANCH  13  14
HETATM   14  C   UNL     1      25.336  47.211  52.640  1.00  0.00     0.042 C 
BRANCH  14  15
HETATM   15  C   UNL     1      25.324  46.890  51.152  1.00  0.00     0.230 C 
BRANCH  15  16
HETATM   16  N   UNL     1      26.387  45.930  50.793  1.00  0.00    -0.079 N 
HETATM   17  H   UNL     1      25.960  45.083  50.365  1.00  0.00     0.274 HD
HETATM   18  H   UNL     1      27.064  46.312  50.126  1.00  0.00     0.274 HD
HETATM   19  H   UNL     1      26.893  45.601  51.623  1.00  0.00     0.274 HD
ENDBRANCH  15  16
ENDBRANCH  14  15
ENDBRANCH  13  14
ENDBRANCH  11  13
ENDBRANCH   3  11
BRANCH   1  20
HETATM   20  C   UNL     1      27.501  41.921  51.718  1.00  0.00     0.012 A 
HETATM   21  C   UNL     1      26.241  41.963  51.092  1.00  0.00     0.015 A 
HETATM   22  C   UNL     1      25.874  41.026  50.119  1.00  0.00     0.001 A 
HETATM   23  C   UNL     1      26.753  40.009  49.764  1.00  0.00     0.000 A 
HETATM   24  C   UNL     1      27.997  39.927  50.378  1.00  0.00     0.001 A 
HETATM   25  C   UNL     1      28.365  40.874  51.338  1.00  0.00     0.015 A 
ENDBRANCH   1  20
TORSDOF 6
ENDMDL
MODEL 10
REMARK VINA RESULT:      -6.7      6.449      9.895
REMARK  6 active torsions:
REMARK  status: ('A' for Active; 'I' for Inactive)
REMARK    1  A    between atoms: C_4  and  C_5 
REMARK    2  A    between atoms: C_7  and  N_8 
REMARK    3  A    between atoms: N_8  and  C_9 
REMARK    4  A    between atoms: C_9  and  C_10 
REMARK    5  A    between atoms: C_10  and  C_11 
REMARK    6  A    between atoms: C_11  and  N_12 
ROOT
HETATM    1  C   UNL     1      22.784  49.412  48.741  1.00  0.00     0.162 C 
HETATM    2  N   UNL     1      22.740  48.227  49.394  1.00  0.00    -0.216 NA
HETATM    3  C   UNL     1      23.926  47.600  49.576  1.00  0.00     0.118 C 
HETATM    4  C   UNL     1      25.163  48.229  49.322  1.00  0.00     0.033 A 
HETATM    5  C   UNL     1      25.078  49.489  48.724  1.00  0.00     0.072 A 
HETATM    6  N   UNL     1      23.911  50.058  48.420  1.00  0.00    -0.228 NA
HETATM    7  C   UNL     1      26.444  47.694  49.624  1.00  0.00     0.017 A 
HETATM    8  C   UNL     1      27.606  48.401  49.323  1.00  0.00     0.001 A 
HETATM    9  C   UNL     1      27.508  49.647  48.719  1.00  0.00     0.002 A 
HETATM   10  C   UNL     1      26.249  50.176  48.428  1.00  0.00     0.032 A 
ENDROOT
BRANCH   3  11
HETATM   11  N   UNL     1      23.916  46.306  50.150  1.00  0.00    -0.277 NA
HETATM   12  H   UNL     1      24.779  46.211  50.694  1.00  0.00     0.129 HD
BRANCH  11  13
HETATM   13  C   UNL     1      23.781  45.161  49.252  1.00  0.00     0.095 C 
BRANCH  13  14
HETATM   14  C   UNL     1      24.763  44.060  49.653  1.00  0.00     0.042 C 
BRANCH  14  15
HETATM   15  C   UNL     1      24.261  43.090  50.714  1.00  0.00     0.230 C 
BRANCH  15  16
HETATM   16  N   UNL     1      25.344  42.220  51.212  1.00  0.00    -0.079 N 
HETATM   17  H   UNL     1      26.136  42.229  50.537  1.00  0.00     0.274 HD
HETATM   18  H   UNL     1      25.706  42.514  52.125  1.00  0.00     0.274 HD
HETATM   19  H   UNL     1      25.041  41.242  51.279  1.00  0.00     0.274 HD
ENDBRANCH  15  16
ENDBRANCH  14  15
ENDBRANCH  13  14
ENDBRANCH  11  13
ENDBRANCH   3  11
BRANCH   1  20
HETATM   20  C   UNL     1      21.510  50.056  48.354  1.00  0.00     0.012 A 
HETATM   21  C   UNL     1      21.133  51.329  48.821  1.00  0.00     0.015 A 
HETATM   22  C   UNL     1      19.929  51.927  48.430  1.00  0.00     0.001 A 
HETATM   23  C   UNL     1      19.060  51.254  47.578  1.00  0.00     0.000 A 
HETATM   24  C   UNL     1      19.393  49.986  47.115  1.00  0.00     0.001 A 
HETATM   25  C   UNL     1      20.604  49.400  47.496  1.00  0.00     0.015 A 
ENDBRANCH   1  20
TORSDOF 6
ENDMDL
