MODEL 1
REMARK VINA RESULT:      -9.0      0.000      0.000
REMARK  5 active torsions:
REMARK  status: ('A' for Active; 'I' for Inactive)
REMARK    1  A    between atoms: C_5  and  C_6 
REMARK    2  A    between atoms: C_11  and  C_12 
REMARK       I    between atoms: C_12  and  N_13 
REMARK    3  A    between atoms: N_13  and  C_14 
REMARK    4  A    between atoms: C_16  and  O_17 
REMARK    5  A    between atoms: C_23  and  C_24 
ROOT
HETATM    1  C   UNL     1      19.900  50.497  47.135  1.00  0.00     0.118 C 
HETATM    2  N   UNL     1      21.237  50.702  47.679  1.00  0.00    -0.366 N 
HETATM    3  C   UNL     1      21.952  49.714  48.253  1.00  0.00     0.123 A 
HETATM    4  N   UNL     1      21.481  48.434  48.329  1.00  0.00    -0.240 N 
HETATM    5  N   UNL     1      22.352  47.564  48.879  1.00  0.00    -0.165 NA
HETATM    6  C   UNL     1      23.404  48.344  49.219  1.00  0.00     0.148 A 
HETATM    7  C   UNL     1      23.188  49.697  48.841  1.00  0.00     0.089 A 
HETATM    8  C   UNL     1      20.192  48.011  47.823  1.00  0.00     0.221 C 
HETATM    9  C   UNL     1      19.664  49.017  46.784  1.00  0.00     0.066 C 
HETATM   10  H   UNL     1      21.543  51.674  47.727  1.00  0.00     0.161 HD
ENDROOT
BRANCH   6  11
HETATM   11  C   UNL     1      24.598  47.801  49.893  1.00  0.00     0.276 C 
HETATM   12  N   UNL     1      24.265  47.007  50.973  1.00  0.00    -0.322 N 
HETATM   13  H   UNL     1      23.261  46.937  51.128  1.00  0.00     0.169 HD
HETATM   14  O   UNL     1      25.728  48.064  49.498  1.00  0.00    -0.266 OA
BRANCH  12  15
HETATM   15  C   UNL     1      25.122  46.327  51.855  1.00  0.00     0.037 A 
HETATM   16  C   UNL     1      25.312  44.943  51.841  1.00  0.00     0.066 A 
HETATM   17  C   UNL     1      26.184  44.353  52.756  1.00  0.00     0.067 A 
HETATM   18  C   UNL     1      26.872  45.120  53.688  1.00  0.00     0.036 A 
HETATM   19  C   UNL     1      26.689  46.499  53.708  1.00  0.00     0.005 A 
HETATM   20  C   UNL     1      25.815  47.100  52.796  1.00  0.00     0.029 A 
BRANCH  17  21
HETATM   21  O   UNL     1      26.390  43.004  52.768  1.00  0.00    -0.361 OA
HETATM   22  H   UNL     1      27.309  42.838  53.040  1.00  0.00     0.217 HD
ENDBRANCH  17  21
ENDBRANCH  12  15
ENDBRANCH   6  11
BRANCH   8  23
HETATM   23  C   UNL     1      19.241  47.747  48.969  1.00  0.00     0.409 C 
HETATM   24  F   UNL     1      17.945  47.924  48.659  1.00  0.00    -0.169 F 
HETATM   25  F   UNL     1      19.381  46.469  49.407  1.00  0.00    -0.169 F 
HETATM   26  F   UNL     1      19.511  48.540  50.033  1.00  0.00    -0.169 F 
ENDBRANCH   8  23
BRANCH   1  27
HETATM   27  C   UNL     1      18.815  51.136  47.982  1.00  0.00    -0.035 A 
HETATM   28  C   UNL     1      17.470  50.978  47.603  1.00  0.00     0.010 A 
HETATM   29  C   UNL     1      16.438  51.570  48.335  1.00  0.00     0.007 A 
HETATM   30  C   UNL     1      16.722  52.343  49.464  1.00  0.00    -0.062 A 
HETATM   31  C   UNL     1      15.622  52.961  50.274  1.00  0.00     0.048 C 
HETATM   32  C   UNL     1      18.054  52.496  49.858  1.00  0.00     0.007 A 
HETATM   33  C   UNL     1      19.087  51.909  49.120  1.00  0.00     0.010 A 
ENDBRANCH   1  27
TORSDOF 5
ENDMDL
MODEL 2
REMARK VINA RESULT:      -8.7     22.163     24.220
REMARK  5 active torsions:
REMARK  status: ('A' for Active; 'I' for Inactive)
REMARK    1  A    between atoms: C_5  and  C_6 
REMARK    2  A    between atoms: C_11  and  C_12 
REMARK       I    between atoms: C_12  and  N_13 
REMARK    3  A    between atoms: N_13  and  C_14 
REMARK    4  A    between atoms: C_16  and  O_17 
REMARK    5  A    between atoms: C_23  and  C_24 
ROOT
HETATM    1  C   UNL     1      37.886  42.699  62.724  1.00  0.00     0.118 C 
HETATM    2  N   UNL     1      36.842  43.353  63.503  1.00  0.00    -0.366 N 
HETATM    3  C   UNL     1      37.016  44.549  64.101  1.00  0.00     0.123 A 
HETATM    4  N   UNL     1      38.182  45.251  63.983  1.00  0.00    -0.240 N 
HETATM    5  N   UNL     1      38.161  46.452  64.594  1.00  0.00    -0.165 NA
HETATM    6  C   UNL     1      36.939  46.488  65.176  1.00  0.00     0.148 A 
HETATM    7  C   UNL     1      36.195  45.312  64.887  1.00  0.00     0.089 A 
HETATM    8  C   UNL     1      39.332  44.795  63.228  1.00  0.00     0.221 C 
HETATM    9  C   UNL     1      38.916  43.720  62.208  1.00  0.00     0.066 C 
HETATM   10  H   UNL     1      36.016  42.785  63.689  1.00  0.00     0.161 HD
ENDROOT
BRANCH   6  11
HETATM   11  C   UNL     1      36.493  47.631  65.993  1.00  0.00     0.276 C 
HETATM   12  N   UNL     1      37.469  48.602  66.099  1.00  0.00    -0.322 N 
HETATM   13  H   UNL     1      38.329  48.365  65.608  1.00  0.00     0.169 HD
HETATM   14  O   UNL     1      35.376  47.657  66.497  1.00  0.00    -0.266 OA
BRANCH  12  15
HETATM   15  C   UNL     1      37.416  49.823  66.794  1.00  0.00     0.037 A 
HETATM   16  C   UNL     1      37.006  49.942  68.124  1.00  0.00     0.066 A 
HETATM   17  C   UNL     1      36.985  51.196  68.734  1.00  0.00     0.067 A 
HETATM   18  C   UNL     1      37.366  52.337  68.040  1.00  0.00     0.036 A 
HETATM   19  C   UNL     1      37.776  52.228  66.715  1.00  0.00     0.005 A 
HETATM   20  C   UNL     1      37.798  50.975  66.094  1.00  0.00     0.029 A 
BRANCH  17  21
HETATM   21  O   UNL     1      36.589  51.344  70.031  1.00  0.00    -0.361 OA
HETATM   22  H   UNL     1      35.625  51.226  70.072  1.00  0.00     0.217 HD
ENDBRANCH  17  21
ENDBRANCH  12  15
ENDBRANCH   6  11
BRANCH   8  23
HETATM   23  C   UNL     1      40.436  44.364  64.167  1.00  0.00     0.409 C 
HETATM   24  F   UNL     1      40.003  43.959  65.374  1.00  0.00    -0.169 F 
HETATM   25  F   UNL     1      41.137  43.336  63.624  1.00  0.00    -0.169 F 
HETATM   26  F   UNL     1      41.330  45.360  64.375  1.00  0.00    -0.169 F 
ENDBRANCH   8  23
BRANCH   1  27
HETATM   27  C   UNL     1      38.477  41.491  63.427  1.00  0.00    -0.035 A 
HETATM   28  C   UNL     1      39.250  40.581  62.686  1.00  0.00     0.010 A 
HETATM   29  C   UNL     1      39.793  39.439  63.282  1.00  0.00     0.007 A 
HETATM   30  C   UNL     1      39.570  39.173  64.636  1.00  0.00    -0.062 A 
HETATM   31  C   UNL     1      40.169  37.966  65.294  1.00  0.00     0.048 C 
HETATM   32  C   UNL     1      38.814  40.077  65.385  1.00  0.00     0.007 A 
HETATM   33  C   UNL     1      38.265  41.216  64.785  1.00  0.00     0.010 A 
ENDBRANCH   1  27
TORSDOF 5
ENDMDL
MODEL 3
REMARK VINA RESULT:      -8.6      3.172      4.584
REMARK  5 active torsions:
REMARK  status: ('A' for Active; 'I' for Inactive)
REMARK    1  A    between atoms: C_5  and  C_6 
REMARK    2  A    between atoms: C_11  and  C_12 
REMARK       I    between atoms: C_12  and  N_13 
REMARK    3  A    between atoms: N_13  and  C_14 
REMARK    4  A    between atoms: C_16  and  O_17 
REMARK    5  A    between atoms: C_23  and  C_24 
ROOT
HETATM    1  C   UNL     1      16.939  50.102  46.677  1.00  0.00     0.118 C 
HETATM    2  N   UNL     1      18.356  49.803  46.510  1.00  0.00    -0.366 N 
HETATM    3  C   UNL     1      19.267  50.010  47.482  1.00  0.00     0.123 A 
HETATM    4  N   UNL     1      18.911  50.481  48.714  1.00  0.00    -0.240 N 
HETATM    5  N   UNL     1      19.938  50.569  49.583  1.00  0.00    -0.165 NA
HETATM    6  C   UNL     1      21.007  50.188  48.846  1.00  0.00     0.148 A 
HETATM    7  C   UNL     1      20.623  49.829  47.525  1.00  0.00     0.089 A 
HETATM    8  C   UNL     1      17.553  50.810  49.097  1.00  0.00     0.221 C 
HETATM    9  C   UNL     1      16.545  50.113  48.165  1.00  0.00     0.066 C 
HETATM   10  H   UNL     1      18.642  49.562  45.561  1.00  0.00     0.161 HD
ENDROOT
BRANCH   6  11
HETATM   11  C   UNL     1      22.374  50.164  49.400  1.00  0.00     0.276 C 
HETATM   12  N   UNL     1      23.177  49.245  48.754  1.00  0.00    -0.322 N 
HETATM   13  H   UNL     1      22.694  48.735  48.016  1.00  0.00     0.169 HD
HETATM   14  O   UNL     1      22.697  50.895  50.329  1.00  0.00    -0.266 OA
BRANCH  12  15
HETATM   15  C   UNL     1      24.525  48.935  49.003  1.00  0.00     0.037 A 
HETATM   16  C   UNL     1      25.596  49.713  48.556  1.00  0.00     0.066 A 
HETATM   17  C   UNL     1      26.903  49.328  48.850  1.00  0.00     0.067 A 
HETATM   18  C   UNL     1      27.164  48.178  49.584  1.00  0.00     0.036 A 
HETATM   19  C   UNL     1      26.103  47.397  50.033  1.00  0.00     0.005 A 
HETATM   20  C   UNL     1      24.789  47.774  49.742  1.00  0.00     0.029 A 
BRANCH  17  21
HETATM   21  O   UNL     1      27.970  50.066  48.427  1.00  0.00    -0.361 OA
HETATM   22  H   UNL     1      28.753  49.787  48.931  1.00  0.00     0.217 HD
ENDBRANCH  17  21
ENDBRANCH  12  15
ENDBRANCH   6  11
BRANCH   8  23
HETATM   23  C   UNL     1      17.383  52.310  49.183  1.00  0.00     0.409 C 
HETATM   24  F   UNL     1      16.165  52.747  48.819  1.00  0.00    -0.169 F 
HETATM   25  F   UNL     1      17.600  52.733  50.455  1.00  0.00    -0.169 F 
HETATM   26  F   UNL     1      18.289  52.959  48.413  1.00  0.00    -0.169 F 
ENDBRANCH   8  23
BRANCH   1  27
HETATM   27  C   UNL     1      16.496  51.319  45.886  1.00  0.00    -0.035 A 
HETATM   28  C   UNL     1      15.124  51.613  45.798  1.00  0.00     0.010 A 
HETATM   29  C   UNL     1      14.665  52.707  45.058  1.00  0.00     0.007 A 
HETATM   30  C   UNL     1      15.566  53.534  44.382  1.00  0.00    -0.062 A 
HETATM   31  C   UNL     1      15.089  54.727  43.609  1.00  0.00     0.048 C 
HETATM   32  C   UNL     1      16.933  53.258  44.474  1.00  0.00     0.007 A 
HETATM   33  C   UNL     1      17.390  52.159  45.208  1.00  0.00     0.010 A 
ENDBRANCH   1  27
TORSDOF 5
ENDMDL
MODEL 4
REMARK VINA RESULT:      -8.4     11.511     14.588
REMARK  5 active torsions:
REMARK  status: ('A' for Active; 'I' for Inactive)
REMARK    1  A    between atoms: C_5  and  C_6 
REMARK    2  A    between atoms: C_11  and  C_12 
REMARK       I    between atoms: C_12  and  N_13 
REMARK    3  A    between atoms: N_13  and  C_14 
REMARK    4  A    between atoms: C_16  and  O_17 
REMARK    5  A    between atoms: C_23  and  C_24 
ROOT
HETATM    1  C   UNL     1      31.469  50.021  39.043  1.00  0.00     0.118 C 
HETATM    2  N   UNL     1      30.357  49.081  39.111  1.00  0.00    -0.366 N 
HETATM    3  C   UNL     1      29.094  49.417  38.779  1.00  0.00     0.123 A 
HETATM    4  N   UNL     1      28.778  50.663  38.317  1.00  0.00    -0.240 N 
HETATM    5  N   UNL     1      27.482  50.806  37.975  1.00  0.00    -0.165 NA
HETATM    6  C   UNL     1      26.939  49.606  38.291  1.00  0.00     0.148 A 
HETATM    7  C   UNL     1      27.921  48.712  38.796  1.00  0.00     0.089 A 
HETATM    8  C   UNL     1      29.738  51.734  38.145  1.00  0.00     0.221 C 
HETATM    9  C   UNL     1      31.168  51.169  38.063  1.00  0.00     0.066 C 
HETATM   10  H   UNL     1      30.566  48.190  39.562  1.00  0.00     0.161 HD
ENDROOT
BRANCH   6  11
HETATM   11  C   UNL     1      25.503  49.323  38.108  1.00  0.00     0.276 C 
HETATM   12  N   UNL     1      24.747  49.784  39.167  1.00  0.00    -0.322 N 
HETATM   13  H   UNL     1      25.302  50.230  39.895  1.00  0.00     0.169 HD
HETATM   14  O   UNL     1      25.091  48.737  37.113  1.00  0.00    -0.266 OA
BRANCH  12  15
HETATM   15  C   UNL     1      23.357  49.694  39.353  1.00  0.00     0.037 A 
HETATM   16  C   UNL     1      22.448  50.649  38.893  1.00  0.00     0.066 A 
HETATM   17  C   UNL     1      21.083  50.477  39.123  1.00  0.00     0.067 A 
HETATM   18  C   UNL     1      20.606  49.366  39.806  1.00  0.00     0.036 A 
HETATM   19  C   UNL     1      21.505  48.408  40.268  1.00  0.00     0.005 A 
HETATM   20  C   UNL     1      22.875  48.573  40.044  1.00  0.00     0.029 A 
BRANCH  17  21
HETATM   21  O   UNL     1      20.171  51.393  38.687  1.00  0.00    -0.361 OA
HETATM   22  H   UNL     1      20.597  51.950  38.013  1.00  0.00     0.217 HD
ENDBRANCH  17  21
ENDBRANCH  12  15
ENDBRANCH   6  11
BRANCH   8  23
HETATM   23  C   UNL     1      29.547  52.784  39.216  1.00  0.00     0.409 C 
HETATM   24  F   UNL     1      30.694  53.250  39.739  1.00  0.00    -0.169 F 
HETATM   25  F   UNL     1      28.871  53.849  38.712  1.00  0.00    -0.169 F 
HETATM   26  F   UNL     1      28.798  52.317  40.243  1.00  0.00    -0.169 F 
ENDBRANCH   8  23
BRANCH   1  27
HETATM   27  C   UNL     1      31.954  50.458  40.413  1.00  0.00    -0.035 A 
HETATM   28  C   UNL     1      31.115  50.270  41.526  1.00  0.00     0.010 A 
HETATM   29  C   UNL     1      31.506  50.682  42.804  1.00  0.00     0.007 A 
HETATM   30  C   UNL     1      32.744  51.297  43.002  1.00  0.00    -0.062 A 
HETATM   31  C   UNL     1      33.187  51.718  44.372  1.00  0.00     0.048 C 
HETATM   32  C   UNL     1      33.591  51.477  41.906  1.00  0.00     0.007 A 
HETATM   33  C   UNL     1      33.197  51.072  40.627  1.00  0.00     0.010 A 
ENDBRANCH   1  27
TORSDOF 5
ENDMDL
MODEL 5
REMARK VINA RESULT:      -8.3      2.441      3.343
REMARK  5 active torsions:
REMARK  status: ('A' for Active; 'I' for Inactive)
REMARK    1  A    between atoms: C_5  and  C_6 
REMARK    2  A    between atoms: C_11  and  C_12 
REMARK       I    between atoms: C_12  and  N_13 
REMARK    3  A    between atoms: N_13  and  C_14 
REMARK    4  A    between atoms: C_16  and  O_17 
REMARK    5  A    between atoms: C_23  and  C_24 
ROOT
HETATM    1  C   UNL     1      17.594  49.258  47.215  1.00  0.00     0.118 C 
HETATM    2  N   UNL     1      18.810  48.518  46.900  1.00  0.00    -0.366 N 
HETATM    3  C   UNL     1      19.918  48.572  47.666  1.00  0.00     0.123 A 
HETATM    4  N   UNL     1      19.961  49.301  48.820  1.00  0.00    -0.240 N 
HETATM    5  N   UNL     1      21.125  49.194  49.492  1.00  0.00    -0.165 NA
HETATM    6  C   UNL     1      21.877  48.401  48.692  1.00  0.00     0.148 A 
HETATM    7  C   UNL     1      21.152  47.993  47.540  1.00  0.00     0.089 A 
HETATM    8  C   UNL     1      18.852  50.083  49.330  1.00  0.00     0.221 C 
HETATM    9  C   UNL     1      17.526  49.603  48.713  1.00  0.00     0.066 C 
HETATM   10  H   UNL     1      18.821  48.068  45.985  1.00  0.00     0.161 HD
ENDROOT
BRANCH   6  11
HETATM   11  C   UNL     1      23.266  48.039  49.029  1.00  0.00     0.276 C 
HETATM   12  N   UNL     1      23.356  46.760  49.542  1.00  0.00    -0.322 N 
HETATM   13  H   UNL     1      22.456  46.288  49.610  1.00  0.00     0.169 HD
HETATM   14  O   UNL     1      24.189  48.827  48.858  1.00  0.00    -0.266 OA
BRANCH  12  15
HETATM   15  C   UNL     1      24.501  46.073  49.980  1.00  0.00     0.037 A 
HETATM   16  C   UNL     1      25.121  45.054  49.252  1.00  0.00     0.066 A 
HETATM   17  C   UNL     1      26.256  44.426  49.765  1.00  0.00     0.067 A 
HETATM   18  C   UNL     1      26.786  44.796  50.994  1.00  0.00     0.036 A 
HETATM   19  C   UNL     1      26.174  45.810  51.726  1.00  0.00     0.005 A 
HETATM   20  C   UNL     1      25.035  46.444  51.221  1.00  0.00     0.029 A 
BRANCH  17  21
HETATM   21  O   UNL     1      26.883  43.428  49.078  1.00  0.00    -0.361 OA
HETATM   22  H   UNL     1      27.706  43.206  49.545  1.00  0.00     0.217 HD
ENDBRANCH  17  21
ENDBRANCH  12  15
ENDBRANCH   6  11
BRANCH   8  23
HETATM   23  C   UNL     1      19.124  51.558  49.144  1.00  0.00     0.409 C 
HETATM   24  F   UNL     1      18.017  52.322  49.119  1.00  0.00    -0.169 F 
HETATM   25  F   UNL     1      19.909  52.020  50.152  1.00  0.00    -0.169 F 
HETATM   26  F   UNL     1      19.805  51.799  47.998  1.00  0.00    -0.169 F 
ENDBRANCH   8  23
BRANCH   1  27
HETATM   27  C   UNL     1      17.355  50.426  46.276  1.00  0.00    -0.035 A 
HETATM   28  C   UNL     1      16.350  51.359  46.589  1.00  0.00     0.010 A 
HETATM   29  C   UNL     1      16.074  52.436  45.742  1.00  0.00     0.007 A 
HETATM   30  C   UNL     1      16.791  52.606  44.555  1.00  0.00    -0.062 A 
HETATM   31  C   UNL     1      16.523  53.772  43.651  1.00  0.00     0.048 C 
HETATM   32  C   UNL     1      17.800  51.692  44.240  1.00  0.00     0.007 A 
HETATM   33  C   UNL     1      18.070  50.610  45.085  1.00  0.00     0.010 A 
ENDBRANCH   1  27
TORSDOF 5
ENDMDL
MODEL 6
REMARK VINA RESULT:      -8.3      9.178     10.602
REMARK  5 active torsions:
REMARK  status: ('A' for Active; 'I' for Inactive)
REMARK    1  A    between atoms: C_5  and  C_6 
REMARK    2  A    between atoms: C_11  and  C_12 
REMARK       I    between atoms: C_12  and  N_13 
REMARK    3  A    between atoms: N_13  and  C_14 
REMARK    4  A    between atoms: C_16  and  O_17 
REMARK    5  A    between atoms: C_23  and  C_24 
ROOT
HETATM    1  C   UNL     1      26.923  41.473  47.549  1.00  0.00     0.118 C 
HETATM    2  N   UNL     1      26.680  42.390  48.656  1.00  0.00    -0.366 N 
HETATM    3  C   UNL     1      27.183  42.194  49.891  1.00  0.00     0.123 A 
HETATM    4  N   UNL     1      27.992  41.132  50.179  1.00  0.00    -0.240 N 
HETATM    5  N   UNL     1      28.454  41.124  51.446  1.00  0.00    -0.165 NA
HETATM    6  C   UNL     1      27.860  42.206  52.004  1.00  0.00     0.148 A 
HETATM    7  C   UNL     1      27.058  42.899  51.058  1.00  0.00     0.089 A 
HETATM    8  C   UNL     1      28.382  40.122  49.216  1.00  0.00     0.221 C 
HETATM    9  C   UNL     1      28.201  40.647  47.781  1.00  0.00     0.066 C 
HETATM   10  H   UNL     1      25.987  43.117  48.477  1.00  0.00     0.161 HD
ENDROOT
BRANCH   6  11
HETATM   11  C   UNL     1      28.062  42.569  53.418  1.00  0.00     0.276 C 
HETATM   12  N   UNL     1      29.211  43.312  53.602  1.00  0.00    -0.322 N 
HETATM   13  H   UNL     1      29.727  43.476  52.739  1.00  0.00     0.169 HD
HETATM   14  O   UNL     1      27.270  42.217  54.286  1.00  0.00    -0.266 OA
BRANCH  12  15
HETATM   15  C   UNL     1      29.735  43.831  54.798  1.00  0.00     0.037 A 
HETATM   16  C   UNL     1      30.724  43.196  55.553  1.00  0.00     0.066 A 
HETATM   17  C   UNL     1      31.185  43.786  56.730  1.00  0.00     0.067 A 
HETATM   18  C   UNL     1      30.676  45.001  57.170  1.00  0.00     0.036 A 
HETATM   19  C   UNL     1      29.690  45.641  56.424  1.00  0.00     0.005 A 
HETATM   20  C   UNL     1      29.220  45.056  55.244  1.00  0.00     0.029 A 
BRANCH  17  21
HETATM   21  O   UNL     1      32.149  43.190  57.488  1.00  0.00    -0.361 OA
HETATM   22  H   UNL     1      31.968  42.235  57.518  1.00  0.00     0.217 HD
ENDBRANCH  17  21
ENDBRANCH  12  15
ENDBRANCH   6  11
BRANCH   8  23
HETATM   23  C   UNL     1      27.658  38.825  49.498  1.00  0.00     0.409 C 
HETATM   24  F   UNL     1      28.270  38.039  50.401  1.00  0.00    -0.169 F 
HETATM   25  F   UNL     1      26.408  39.078  49.964  1.00  0.00    -0.169 F 
HETATM   26  F   UNL     1      27.496  38.090  48.372  1.00  0.00    -0.169 F 
ENDBRANCH   8  23
BRANCH   1  27
HETATM   27  C   UNL     1      25.695  40.664  47.174  1.00  0.00    -0.035 A 
HETATM   28  C   UNL     1      24.446  41.035  47.704  1.00  0.00     0.010 A 
HETATM   29  C   UNL     1      23.290  40.305  47.411  1.00  0.00     0.007 A 
HETATM   30  C   UNL     1      23.353  39.180  46.585  1.00  0.00    -0.062 A 
HETATM   31  C   UNL     1      22.117  38.404  46.241  1.00  0.00     0.048 C 
HETATM   32  C   UNL     1      24.587  38.810  46.043  1.00  0.00     0.007 A 
HETATM   33  C   UNL     1      25.744  39.537  46.343  1.00  0.00     0.010 A 
ENDBRANCH   1  27
TORSDOF 5
ENDMDL
MODEL 7
REMARK VINA RESULT:      -7.9     13.101     14.567
REMARK  5 active torsions:
REMARK  status: ('A' for Active; 'I' for Inactive)
REMARK    1  A    between atoms: C_5  and  C_6 
REMARK    2  A    between atoms: C_11  and  C_12 
REMARK       I    between atoms: C_12  and  N_13 
REMARK    3  A    between atoms: N_13  and  C_14 
REMARK    4  A    between atoms: C_16  and  O_17 
REMARK    5  A    between atoms: C_23  and  C_24 
ROOT
HETATM    1  C   UNL     1      29.427  52.014  41.429  1.00  0.00     0.118 C 
HETATM    2  N   UNL     1      30.397  51.824  42.501  1.00  0.00    -0.366 N 
HETATM    3  C   UNL     1      31.726  51.780  42.284  1.00  0.00     0.123 A 
HETATM    4  N   UNL     1      32.260  51.950  41.038  1.00  0.00    -0.240 N 
HETATM    5  N   UNL     1      33.607  51.937  41.013  1.00  0.00    -0.165 NA
HETATM    6  C   UNL     1      33.943  51.689  42.302  1.00  0.00     0.148 A 
HETATM    7  C   UNL     1      32.789  51.586  43.125  1.00  0.00     0.089 A 
HETATM    8  C   UNL     1      31.474  52.182  39.843  1.00  0.00     0.221 C 
HETATM    9  C   UNL     1      30.072  52.699  40.211  1.00  0.00     0.066 C 
HETATM   10  H   UNL     1      30.001  51.583  43.409  1.00  0.00     0.161 HD
ENDROOT
BRANCH   6  11
HETATM   11  C   UNL     1      35.346  51.557  42.735  1.00  0.00     0.276 C 
HETATM   12  N   UNL     1      35.768  52.654  43.460  1.00  0.00    -0.322 N 
HETATM   13  H   UNL     1      35.050  53.369  43.565  1.00  0.00     0.169 HD
HETATM   14  O   UNL     1      36.011  50.568  42.449  1.00  0.00    -0.266 OA
BRANCH  12  15
HETATM   15  C   UNL     1      37.030  52.893  44.029  1.00  0.00     0.037 A 
HETATM   16  C   UNL     1      37.391  52.489  45.317  1.00  0.00     0.066 A 
HETATM   17  C   UNL     1      38.669  52.769  45.800  1.00  0.00     0.067 A 
HETATM   18  C   UNL     1      39.597  53.447  45.021  1.00  0.00     0.036 A 
HETATM   19  C   UNL     1      39.247  53.854  43.737  1.00  0.00     0.005 A 
HETATM   20  C   UNL     1      37.967  53.579  43.244  1.00  0.00     0.029 A 
BRANCH  17  21
HETATM   21  O   UNL     1      39.050  52.388  47.054  1.00  0.00    -0.361 OA
HETATM   22  H   UNL     1      38.249  52.261  47.590  1.00  0.00     0.217 HD
ENDBRANCH  17  21
ENDBRANCH  12  15
ENDBRANCH   6  11
BRANCH   8  23
HETATM   23  C   UNL     1      31.471  50.946  38.972  1.00  0.00     0.409 C 
HETATM   24  F   UNL     1      31.548  49.792  39.656  1.00  0.00    -0.169 F 
HETATM   25  F   UNL     1      30.334  50.900  38.230  1.00  0.00    -0.169 F 
HETATM   26  F   UNL     1      32.496  50.958  38.086  1.00  0.00    -0.169 F 
ENDBRANCH   8  23
BRANCH   1  27
HETATM   27  C   UNL     1      28.641  50.753  41.116  1.00  0.00    -0.035 A 
HETATM   28  C   UNL     1      28.984  49.556  41.769  1.00  0.00     0.010 A 
HETATM   29  C   UNL     1      28.308  48.364  41.494  1.00  0.00     0.007 A 
HETATM   30  C   UNL     1      27.276  48.335  40.553  1.00  0.00    -0.062 A 
HETATM   31  C   UNL     1      26.525  47.068  40.268  1.00  0.00     0.048 C 
HETATM   32  C   UNL     1      26.920  49.521  39.907  1.00  0.00     0.007 A 
HETATM   33  C   UNL     1      27.601  50.712  40.177  1.00  0.00     0.010 A 
ENDBRANCH   1  27
TORSDOF 5
ENDMDL
MODEL 8
REMARK VINA RESULT:      -7.9     11.763     15.003
REMARK  5 active torsions:
REMARK  status: ('A' for Active; 'I' for Inactive)
REMARK    1  A    between atoms: C_5  and  C_6 
REMARK    2  A    between atoms: C_11  and  C_12 
REMARK       I    between atoms: C_12  and  N_13 
REMARK    3  A    between atoms: N_13  and  C_14 
REMARK    4  A    between atoms: C_16  and  O_17 
REMARK    5  A    between atoms: C_23  and  C_24 
ROOT
HETATM    1  C   UNL     1      31.429  50.647  42.213  1.00  0.00     0.118 C 
HETATM    2  N   UNL     1      30.357  51.331  41.498  1.00  0.00    -0.366 N 
HETATM    3  C   UNL     1      29.409  50.675  40.800  1.00  0.00     0.123 A 
HETATM    4  N   UNL     1      29.368  49.311  40.747  1.00  0.00    -0.240 N 
HETATM    5  N   UNL     1      28.319  48.822  40.056  1.00  0.00    -0.165 NA
HETATM    6  C   UNL     1      27.697  49.935  39.600  1.00  0.00     0.148 A 
HETATM    7  C   UNL     1      28.352  51.113  40.049  1.00  0.00     0.089 A 
HETATM    8  C   UNL     1      30.318  48.442  41.411  1.00  0.00     0.221 C 
HETATM    9  C   UNL     1      31.037  49.196  42.545  1.00  0.00     0.066 C 
HETATM   10  H   UNL     1      30.451  52.345  41.440  1.00  0.00     0.161 HD
ENDROOT
BRANCH   6  11
HETATM   11  C   UNL     1      26.492  49.869  38.752  1.00  0.00     0.276 C 
HETATM   12  N   UNL     1      25.362  49.560  39.484  1.00  0.00    -0.322 N 
HETATM   13  H   UNL     1      25.549  49.421  40.475  1.00  0.00     0.169 HD
HETATM   14  O   UNL     1      26.551  50.069  37.544  1.00  0.00    -0.266 OA
BRANCH  12  15
HETATM   15  C   UNL     1      24.042  49.404  39.029  1.00  0.00     0.037 A 
HETATM   16  C   UNL     1      23.077  50.413  39.083  1.00  0.00     0.066 A 
HETATM   17  C   UNL     1      21.789  50.168  38.607  1.00  0.00     0.067 A 
HETATM   18  C   UNL     1      21.444  48.932  38.076  1.00  0.00     0.036 A 
HETATM   19  C   UNL     1      22.399  47.921  38.018  1.00  0.00     0.005 A 
HETATM   20  C   UNL     1      23.692  48.156  38.494  1.00  0.00     0.029 A 
BRANCH  17  21
HETATM   21  O   UNL     1      20.826  51.133  38.648  1.00  0.00    -0.361 OA
HETATM   22  H   UNL     1      19.960  50.697  38.728  1.00  0.00     0.217 HD
ENDBRANCH  17  21
ENDBRANCH  12  15
ENDBRANCH   6  11
BRANCH   8  23
HETATM   23  C   UNL     1      31.248  47.813  40.398  1.00  0.00     0.409 C 
HETATM   24  F   UNL     1      32.466  47.511  40.883  1.00  0.00    -0.169 F 
HETATM   25  F   UNL     1      30.708  46.663  39.919  1.00  0.00    -0.169 F 
HETATM   26  F   UNL     1      31.431  48.617  39.324  1.00  0.00    -0.169 F 
ENDBRANCH   8  23
BRANCH   1  27
HETATM   27  C   UNL     1      32.781  50.810  41.543  1.00  0.00    -0.035 A 
HETATM   28  C   UNL     1      32.862  51.526  40.336  1.00  0.00     0.010 A 
HETATM   29  C   UNL     1      34.080  51.679  39.666  1.00  0.00     0.007 A 
HETATM   30  C   UNL     1      35.248  51.115  40.183  1.00  0.00    -0.062 A 
HETATM   31  C   UNL     1      36.566  51.296  39.489  1.00  0.00     0.048 C 
HETATM   32  C   UNL     1      35.181  50.412  41.389  1.00  0.00     0.007 A 
HETATM   33  C   UNL     1      33.962  50.253  42.054  1.00  0.00     0.010 A 
ENDBRANCH   1  27
TORSDOF 5
ENDMDL
MODEL 9
REMARK VINA RESULT:      -7.8     22.168     23.895
REMARK  5 active torsions:
REMARK  status: ('A' for Active; 'I' for Inactive)
REMARK    1  A    between atoms: C_5  and  C_6 
REMARK    2  A    between atoms: C_11  and  C_12 
REMARK       I    between atoms: C_12  and  N_13 
REMARK    3  A    between atoms: N_13  and  C_14 
REMARK    4  A    between atoms: C_16  and  O_17 
REMARK    5  A    between atoms: C_23  and  C_24 
ROOT
HETATM    1  C   UNL     1      38.569  49.439  64.717  1.00  0.00     0.118 C 
HETATM    2  N   UNL     1      39.735  48.571  64.600  1.00  0.00    -0.366 N 
HETATM    3  C   UNL     1      39.654  47.227  64.655  1.00  0.00     0.123 A 
HETATM    4  N   UNL     1      38.458  46.581  64.786  1.00  0.00    -0.240 N 
HETATM    5  N   UNL     1      38.556  45.237  64.762  1.00  0.00    -0.165 NA
HETATM    6  C   UNL     1      39.889  45.021  64.667  1.00  0.00     0.148 A 
HETATM    7  C   UNL     1      40.607  46.245  64.597  1.00  0.00     0.089 A 
HETATM    8  C   UNL     1      37.178  47.254  64.887  1.00  0.00     0.221 C 
HETATM    9  C   UNL     1      37.279  48.689  64.339  1.00  0.00     0.066 C 
HETATM   10  H   UNL     1      40.637  49.048  64.618  1.00  0.00     0.161 HD
ENDROOT
BRANCH   6  11
HETATM   11  C   UNL     1      40.464  43.663  64.641  1.00  0.00     0.276 C 
HETATM   12  N   UNL     1      39.511  42.705  64.357  1.00  0.00    -0.322 N 
HETATM   13  H   UNL     1      38.578  43.091  64.224  1.00  0.00     0.169 HD
HETATM   14  O   UNL     1      41.654  43.471  64.860  1.00  0.00    -0.266 OA
BRANCH  12  15
HETATM   15  C   UNL     1      39.675  41.313  64.254  1.00  0.00     0.037 A 
HETATM   16  C   UNL     1      39.648  40.615  63.044  1.00  0.00     0.066 A 
HETATM   17  C   UNL     1      39.821  39.231  63.037  1.00  0.00     0.067 A 
HETATM   18  C   UNL     1      40.019  38.527  64.218  1.00  0.00     0.036 A 
HETATM   19  C   UNL     1      40.047  39.215  65.428  1.00  0.00     0.005 A 
HETATM   20  C   UNL     1      39.874  40.602  65.446  1.00  0.00     0.029 A 
BRANCH  17  21
HETATM   21  O   UNL     1      39.799  38.522  61.872  1.00  0.00    -0.361 OA
HETATM   22  H   UNL     1      38.897  38.185  61.736  1.00  0.00     0.217 HD
ENDBRANCH  17  21
ENDBRANCH  12  15
ENDBRANCH   6  11
BRANCH   8  23
HETATM   23  C   UNL     1      36.652  47.166  66.301  1.00  0.00     0.409 C 
HETATM   24  F   UNL     1      35.967  48.252  66.701  1.00  0.00    -0.169 F 
HETATM   25  F   UNL     1      35.822  46.098  66.426  1.00  0.00    -0.169 F 
HETATM   26  F   UNL     1      37.651  46.969  67.194  1.00  0.00    -0.169 F 
ENDBRANCH   8  23
BRANCH   1  27
HETATM   27  C   UNL     1      38.517  50.181  66.040  1.00  0.00    -0.035 A 
HETATM   28  C   UNL     1      39.306  49.723  67.109  1.00  0.00     0.010 A 
HETATM   29  C   UNL     1      39.272  50.356  68.356  1.00  0.00     0.007 A 
HETATM   30  C   UNL     1      38.442  51.459  68.567  1.00  0.00    -0.062 A 
HETATM   31  C   UNL     1      38.417  52.164  69.891  1.00  0.00     0.048 C 
HETATM   32  C   UNL     1      37.664  51.930  67.507  1.00  0.00     0.007 A 
HETATM   33  C   UNL     1      37.693  51.292  66.263  1.00  0.00     0.010 A 
ENDBRANCH   1  27
TORSDOF 5
ENDMDL
MODEL 10
REMARK VINA RESULT:      -7.8     21.882     23.942
REMARK  5 active torsions:
REMARK  status: ('A' for Active; 'I' for Inactive)
REMARK    1  A    between atoms: C_5  and  C_6 
REMARK    2  A    between atoms: C_11  and  C_12 
REMARK       I    between atoms: C_12  and  N_13 
REMARK    3  A    between atoms: N_13  and  C_14 
REMARK    4  A    between atoms: C_16  and  O_17 
REMARK    5  A    between atoms: C_23  and  C_24 
ROOT
HETATM    1  C   UNL     1      35.827  45.660  64.852  1.00  0.00     0.118 C 
HETATM    2  N   UNL     1      36.520  44.891  63.825  1.00  0.00    -0.366 N 
HETATM    3  C   UNL     1      37.231  43.779  64.100  1.00  0.00     0.123 A 
HETATM    4  N   UNL     1      37.319  43.275  65.366  1.00  0.00    -0.240 N 
HETATM    5  N   UNL     1      38.020  42.125  65.449  1.00  0.00    -0.165 NA
HETATM    6  C   UNL     1      38.444  41.923  64.179  1.00  0.00     0.148 A 
HETATM    7  C   UNL     1      37.967  42.939  63.308  1.00  0.00     0.089 A 
HETATM    8  C   UNL     1      36.682  43.868  66.524  1.00  0.00     0.221 C 
HETATM    9  C   UNL     1      35.532  44.795  66.090  1.00  0.00     0.066 C 
HETATM   10  H   UNL     1      36.552  45.325  62.903  1.00  0.00     0.161 HD
ENDROOT
BRANCH   6  11
HETATM   11  C   UNL     1      39.288  40.773  63.808  1.00  0.00     0.276 C 
HETATM   12  N   UNL     1      39.897  40.203  64.909  1.00  0.00    -0.322 N 
HETATM   13  H   UNL     1      39.670  40.673  65.784  1.00  0.00     0.169 HD
HETATM   14  O   UNL     1      39.402  40.416  62.641  1.00  0.00    -0.266 OA
BRANCH  12  15
HETATM   15  C   UNL     1      40.771  39.103  64.953  1.00  0.00     0.037 A 
HETATM   16  C   UNL     1      42.128  39.177  64.631  1.00  0.00     0.066 A 
HETATM   17  C   UNL     1      42.921  38.032  64.703  1.00  0.00     0.067 A 
HETATM   18  C   UNL     1      42.385  36.811  65.091  1.00  0.00     0.036 A 
HETATM   19  C   UNL     1      41.033  36.729  65.414  1.00  0.00     0.005 A 
HETATM   20  C   UNL     1      40.229  37.870  65.343  1.00  0.00     0.029 A 
BRANCH  17  21
HETATM   21  O   UNL     1      44.250  38.072  64.395  1.00  0.00    -0.361 OA
HETATM   22  H   UNL     1      44.750  37.727  65.153  1.00  0.00     0.217 HD
ENDBRANCH  17  21
ENDBRANCH  12  15
ENDBRANCH   6  11
BRANCH   8  23
HETATM   23  C   UNL     1      37.714  44.532  67.406  1.00  0.00     0.409 C 
HETATM   24  F   UNL     1      38.619  45.266  66.735  1.00  0.00    -0.169 F 
HETATM   25  F   UNL     1      37.107  45.357  68.298  1.00  0.00    -0.169 F 
HETATM   26  F   UNL     1      38.399  43.625  68.142  1.00  0.00    -0.169 F 
ENDBRANCH   8  23
BRANCH   1  27
HETATM   27  C   UNL     1      36.498  46.990  65.144  1.00  0.00    -0.035 A 
HETATM   28  C   UNL     1      36.188  47.663  66.339  1.00  0.00     0.010 A 
HETATM   29  C   UNL     1      36.758  48.903  66.639  1.00  0.00     0.007 A 
HETATM   30  C   UNL     1      37.650  49.507  65.749  1.00  0.00    -0.062 A 
HETATM   31  C   UNL     1      38.290  50.825  66.072  1.00  0.00     0.048 C 
HETATM   32  C   UNL     1      37.975  48.842  64.565  1.00  0.00     0.007 A 
HETATM   33  C   UNL     1      37.398  47.604  64.261  1.00  0.00     0.010 A 
ENDBRANCH   1  27
TORSDOF 5
ENDMDL
