MODEL 1
REMARK VINA RESULT:      -8.9      0.000      0.000
REMARK  8 active torsions:
REMARK  status: ('A' for Active; 'I' for Inactive)
REMARK    1  A    between atoms: C_2  and  O_3 
REMARK    2  A    between atoms: O_3  and  C_4 
REMARK    3  A    between atoms: C_4  and  C_5 
REMARK    4  A    between atoms: C_6  and  O_7 
REMARK    5  A    between atoms: C_6  and  C_8 
REMARK    6  A    between atoms: C_16  and  C_17 
REMARK    7  A    between atoms: C_18  and  C_19 
REMARK    8  A    between atoms: N_26  and  C_27 
ROOT
HETATM    1  C   UNL     1      26.451  42.930  51.003  1.00  0.00     0.177 C 
HETATM    2  C   UNL     1      26.280  42.594  49.519  1.00  0.00     0.250 C 
HETATM    3  N   UNL     1      24.935  42.157  49.198  1.00  0.00    -0.303 N 
HETATM    4  C   UNL     1      23.825  42.463  49.901  1.00  0.00     0.319 C 
HETATM    5  O   UNL     1      22.714  42.159  49.486  1.00  0.00    -0.247 OA
HETATM    6  N   UNL     1      23.992  43.090  51.085  1.00  0.00    -0.333 N 
HETATM    7  C   UNL     1      25.235  43.667  51.567  1.00  0.00     0.142 C 
HETATM    8  H   UNL     1      24.747  41.714  48.307  1.00  0.00     0.167 HD
HETATM    9  H   UNL     1      23.126  43.359  51.537  1.00  0.00     0.165 HD
ENDROOT
BRANCH   7  10
HETATM   10  C   UNL     1      25.209  45.149  51.284  1.00  0.00     0.015 A 
HETATM   11  C   UNL     1      25.786  46.241  52.016  1.00  0.00     0.097 A 
HETATM   12  N   UNL     1      25.510  47.411  51.414  1.00  0.00    -0.167 NA
HETATM   13  N   UNL     1      24.756  47.118  50.336  1.00  0.00    -0.244 N 
HETATM   14  C   UNL     1      24.546  45.770  50.238  1.00  0.00     0.130 A 
BRANCH  11  15
HETATM   15  C   UNL     1      26.559  46.263  53.269  1.00  0.00    -0.005 A 
HETATM   16  C   UNL     1      27.429  45.233  53.645  1.00  0.00     0.014 A 
HETATM   17  C   UNL     1      28.154  45.304  54.842  1.00  0.00     0.001 A 
HETATM   18  C   UNL     1      28.030  46.414  55.674  1.00  0.00     0.000 A 
HETATM   19  C   UNL     1      27.183  47.455  55.312  1.00  0.00     0.001 A 
HETATM   20  C   UNL     1      26.455  47.378  54.122  1.00  0.00     0.014 A 
ENDBRANCH  11  15
BRANCH  13  21
HETATM   21  C   UNL     1      24.269  48.143  49.476  1.00  0.00     0.058 A 
HETATM   22  C   UNL     1      22.897  48.206  49.186  1.00  0.00     0.031 A 
HETATM   23  C   UNL     1      22.401  49.204  48.344  1.00  0.00     0.002 A 
HETATM   24  C   UNL     1      23.268  50.141  47.784  1.00  0.00     0.000 A 
HETATM   25  C   UNL     1      24.632  50.083  48.064  1.00  0.00     0.002 A 
HETATM   26  C   UNL     1      25.136  49.089  48.909  1.00  0.00     0.031 A 
ENDBRANCH  13  21
ENDBRANCH   7  10
BRANCH   1  27
HETATM   27  C   UNL     1      26.719  41.727  51.878  1.00  0.00     0.270 C 
HETATM   28  O   UNL     1      26.269  40.616  51.627  1.00  0.00    -0.265 OA
BRANCH  27  29
HETATM   29  O   UNL     1      27.550  42.012  52.911  1.00  0.00    -0.321 OA
BRANCH  29  30
HETATM   30  C   UNL     1      28.877  41.462  52.851  1.00  0.00     0.174 C 
HETATM   31  C   UNL     1      29.918  42.561  52.936  1.00  0.00     0.034 C 
ENDBRANCH  29  30
ENDBRANCH  27  29
ENDBRANCH   1  27
BRANCH   2  32
HETATM   32  O   UNL     1      26.433  43.818  48.772  1.00  0.00    -0.363 OA
HETATM   33  H   UNL     1      25.686  44.393  49.016  1.00  0.00     0.213 HD
ENDBRANCH   2  32
BRANCH   2  34
HETATM   34  C   UNL     1      27.382  41.594  49.025  1.00  0.00     0.439 C 
HETATM   35  F   UNL     1      28.508  41.684  49.765  1.00  0.00    -0.166 F 
HETATM   36  F   UNL     1      26.982  40.308  49.033  1.00  0.00    -0.166 F 
HETATM   37  F   UNL     1      27.717  41.894  47.742  1.00  0.00    -0.166 F 
ENDBRANCH   2  34
TORSDOF 8
ENDMDL
MODEL 2
REMARK VINA RESULT:      -8.9      1.954      2.836
REMARK  8 active torsions:
REMARK  status: ('A' for Active; 'I' for Inactive)
REMARK    1  A    between atoms: C_2  and  O_3 
REMARK    2  A    between atoms: O_3  and  C_4 
REMARK    3  A    between atoms: C_4  and  C_5 
REMARK    4  A    between atoms: C_6  and  O_7 
REMARK    5  A    between atoms: C_6  and  C_8 
REMARK    6  A    between atoms: C_16  and  C_17 
REMARK    7  A    between atoms: C_18  and  C_19 
REMARK    8  A    between atoms: N_26  and  C_27 
ROOT
HETATM    1  C   UNL     1      27.294  41.077  49.795  1.00  0.00     0.177 C 
HETATM    2  C   UNL     1      26.987  41.128  48.296  1.00  0.00     0.250 C 
HETATM    3  N   UNL     1      25.582  40.912  48.008  1.00  0.00    -0.303 N 
HETATM    4  C   UNL     1      24.564  41.144  48.863  1.00  0.00     0.319 C 
HETATM    5  O   UNL     1      23.399  41.057  48.493  1.00  0.00    -0.247 OA
HETATM    6  N   UNL     1      24.882  41.447  50.140  1.00  0.00    -0.333 N 
HETATM    7  C   UNL     1      26.212  41.768  50.625  1.00  0.00     0.142 C 
HETATM    8  H   UNL     1      25.284  40.719  47.059  1.00  0.00     0.167 HD
HETATM    9  H   UNL     1      24.084  41.680  50.720  1.00  0.00     0.165 HD
ENDROOT
BRANCH   7  10
HETATM   10  C   UNL     1      26.337  43.271  50.700  1.00  0.00     0.015 A 
HETATM   11  C   UNL     1      27.193  44.088  51.512  1.00  0.00     0.097 A 
HETATM   12  N   UNL     1      26.970  45.392  51.270  1.00  0.00    -0.167 NA
HETATM   13  N   UNL     1      25.986  45.447  50.351  1.00  0.00    -0.244 N 
HETATM   14  C   UNL     1      25.575  44.190  49.998  1.00  0.00     0.130 A 
BRANCH  11  15
HETATM   15  C   UNL     1      28.193  43.727  52.532  1.00  0.00    -0.005 A 
HETATM   16  C   UNL     1      29.281  42.888  52.267  1.00  0.00     0.014 A 
HETATM   17  C   UNL     1      30.214  42.582  53.266  1.00  0.00     0.001 A 
HETATM   18  C   UNL     1      30.080  43.122  54.542  1.00  0.00     0.000 A 
HETATM   19  C   UNL     1      29.014  43.970  54.823  1.00  0.00     0.001 A 
HETATM   20  C   UNL     1      28.080  44.267  53.827  1.00  0.00     0.014 A 
ENDBRANCH  11  15
BRANCH  13  21
HETATM   21  C   UNL     1      25.486  46.693  49.878  1.00  0.00     0.058 A 
HETATM   22  C   UNL     1      26.387  47.721  49.559  1.00  0.00     0.031 A 
HETATM   23  C   UNL     1      25.915  48.951  49.093  1.00  0.00     0.002 A 
HETATM   24  C   UNL     1      24.546  49.164  48.947  1.00  0.00     0.000 A 
HETATM   25  C   UNL     1      23.645  48.150  49.266  1.00  0.00     0.002 A 
HETATM   26  C   UNL     1      24.109  46.915  49.728  1.00  0.00     0.031 A 
ENDBRANCH  13  21
ENDBRANCH   7  10
BRANCH   1  27
HETATM   27  C   UNL     1      27.481  39.679  50.336  1.00  0.00     0.270 C 
HETATM   28  O   UNL     1      26.585  38.844  50.326  1.00  0.00    -0.265 OA
BRANCH  27  29
HETATM   29  O   UNL     1      28.748  39.452  50.763  1.00  0.00    -0.321 OA
BRANCH  29  30
HETATM   30  C   UNL     1      29.400  38.269  50.271  1.00  0.00     0.174 C 
HETATM   31  C   UNL     1      29.910  37.420  51.420  1.00  0.00     0.034 C 
ENDBRANCH  29  30
ENDBRANCH  27  29
ENDBRANCH   1  27
BRANCH   2  32
HETATM   32  O   UNL     1      27.228  42.476  47.844  1.00  0.00    -0.363 OA
HETATM   33  H   UNL     1      26.542  43.037  48.248  1.00  0.00     0.213 HD
ENDBRANCH   2  32
BRANCH   2  34
HETATM   34  C   UNL     1      27.931  40.177  47.481  1.00  0.00     0.439 C 
HETATM   35  F   UNL     1      29.214  40.278  47.888  1.00  0.00    -0.166 F 
HETATM   36  F   UNL     1      27.575  38.880  47.551  1.00  0.00    -0.166 F 
HETATM   37  F   UNL     1      27.894  40.526  46.168  1.00  0.00    -0.166 F 
ENDBRANCH   2  34
TORSDOF 8
ENDMDL
MODEL 3
REMARK VINA RESULT:      -8.7      3.974      5.843
REMARK  8 active torsions:
REMARK  status: ('A' for Active; 'I' for Inactive)
REMARK    1  A    between atoms: C_2  and  O_3 
REMARK    2  A    between atoms: O_3  and  C_4 
REMARK    3  A    between atoms: C_4  and  C_5 
REMARK    4  A    between atoms: C_6  and  O_7 
REMARK    5  A    between atoms: C_6  and  C_8 
REMARK    6  A    between atoms: C_16  and  C_17 
REMARK    7  A    between atoms: C_18  and  C_19 
REMARK    8  A    between atoms: N_26  and  C_27 
ROOT
HETATM    1  C   UNL     1      22.607  45.526  47.688  1.00  0.00     0.177 C 
HETATM    2  C   UNL     1      21.705  45.396  46.458  1.00  0.00     0.250 C 
HETATM    3  N   UNL     1      20.400  44.850  46.780  1.00  0.00    -0.303 N 
HETATM    4  C   UNL     1      19.804  44.911  47.988  1.00  0.00     0.319 C 
HETATM    5  O   UNL     1      18.647  44.539  48.138  1.00  0.00    -0.247 OA
HETATM    6  N   UNL     1      20.540  45.371  49.022  1.00  0.00    -0.333 N 
HETATM    7  C   UNL     1      21.836  46.017  48.914  1.00  0.00     0.142 C 
HETATM    8  H   UNL     1      19.791  44.526  46.038  1.00  0.00     0.167 HD
HETATM    9  H   UNL     1      20.024  45.462  49.890  1.00  0.00     0.165 HD
ENDROOT
BRANCH   7  10
HETATM   10  C   UNL     1      21.626  47.511  48.971  1.00  0.00     0.015 A 
HETATM   11  C   UNL     1      22.582  48.576  49.080  1.00  0.00     0.097 A 
HETATM   12  N   UNL     1      21.959  49.767  49.110  1.00  0.00    -0.167 NA
HETATM   13  N   UNL     1      20.638  49.510  49.048  1.00  0.00    -0.244 N 
HETATM   14  C   UNL     1      20.404  48.164  48.978  1.00  0.00     0.130 A 
BRANCH  11  15
HETATM   15  C   UNL     1      24.050  48.550  49.192  1.00  0.00    -0.005 A 
HETATM   16  C   UNL     1      24.739  47.603  49.958  1.00  0.00     0.014 A 
HETATM   17  C   UNL     1      26.138  47.610  50.024  1.00  0.00     0.001 A 
HETATM   18  C   UNL     1      26.870  48.556  49.312  1.00  0.00     0.000 A 
HETATM   19  C   UNL     1      26.207  49.497  48.532  1.00  0.00     0.001 A 
HETATM   20  C   UNL     1      24.811  49.493  48.475  1.00  0.00     0.014 A 
ENDBRANCH  11  15
BRANCH  13  21
HETATM   21  C   UNL     1      19.679  50.562  49.077  1.00  0.00     0.058 A 
HETATM   22  C   UNL     1      18.530  50.428  49.872  1.00  0.00     0.031 A 
HETATM   23  C   UNL     1      17.579  51.449  49.912  1.00  0.00     0.002 A 
HETATM   24  C   UNL     1      17.764  52.608  49.160  1.00  0.00     0.000 A 
HETATM   25  C   UNL     1      18.900  52.747  48.365  1.00  0.00     0.002 A 
HETATM   26  C   UNL     1      19.859  51.731  48.322  1.00  0.00     0.031 A 
ENDBRANCH  13  21
ENDBRANCH   7  10
BRANCH   1  27
HETATM   27  C   UNL     1      23.322  44.249  48.063  1.00  0.00     0.270 C 
HETATM   28  O   UNL     1      22.777  43.153  48.025  1.00  0.00    -0.265 OA
BRANCH  27  29
HETATM   29  O   UNL     1      24.626  44.456  48.375  1.00  0.00    -0.321 OA
BRANCH  29  30
HETATM   30  C   UNL     1      25.170  43.673  49.450  1.00  0.00     0.174 C 
HETATM   31  C   UNL     1      24.573  44.096  50.779  1.00  0.00     0.034 C 
ENDBRANCH  29  30
ENDBRANCH  27  29
ENDBRANCH   1  27
BRANCH   2  32
HETATM   32  O   UNL     1      21.415  46.727  45.984  1.00  0.00    -0.363 OA
HETATM   33  H   UNL     1      20.843  47.146  46.651  1.00  0.00     0.213 HD
ENDBRANCH   2  32
BRANCH   2  34
HETATM   34  C   UNL     1      22.421  44.622  45.297  1.00  0.00     0.439 C 
HETATM   35  F   UNL     1      22.203  45.205  44.099  1.00  0.00    -0.166 F 
HETATM   36  F   UNL     1      23.752  44.511  45.468  1.00  0.00    -0.166 F 
HETATM   37  F   UNL     1      21.926  43.358  45.229  1.00  0.00    -0.166 F 
ENDBRANCH   2  34
TORSDOF 8
ENDMDL
MODEL 4
REMARK VINA RESULT:      -8.5      2.971      5.205
REMARK  8 active torsions:
REMARK  status: ('A' for Active; 'I' for Inactive)
REMARK    1  A    between atoms: C_2  and  O_3 
REMARK    2  A    between atoms: O_3  and  C_4 
REMARK    3  A    between atoms: C_4  and  C_5 
REMARK    4  A    between atoms: C_6  and  O_7 
REMARK    5  A    between atoms: C_6  and  C_8 
REMARK    6  A    between atoms: C_16  and  C_17 
REMARK    7  A    between atoms: C_18  and  C_19 
REMARK    8  A    between atoms: N_26  and  C_27 
ROOT
HETATM    1  C   UNL     1      26.848  44.242  52.556  1.00  0.00     0.177 C 
HETATM    2  C   UNL     1      25.890  44.401  53.740  1.00  0.00     0.250 C 
HETATM    3  N   UNL     1      25.659  45.790  54.086  1.00  0.00    -0.303 N 
HETATM    4  C   UNL     1      25.794  46.838  53.248  1.00  0.00     0.319 C 
HETATM    5  O   UNL     1      25.453  47.964  53.587  1.00  0.00    -0.247 OA
HETATM    6  N   UNL     1      26.343  46.599  52.037  1.00  0.00    -0.333 N 
HETATM    7  C   UNL     1      26.592  45.286  51.468  1.00  0.00     0.142 C 
HETATM    8  H   UNL     1      25.215  46.024  54.966  1.00  0.00     0.167 HD
HETATM    9  H   UNL     1      26.357  47.405  51.422  1.00  0.00     0.165 HD
ENDROOT
BRANCH   7  10
HETATM   10  C   UNL     1      25.456  44.955  50.531  1.00  0.00     0.015 A 
HETATM   11  C   UNL     1      25.175  43.746  49.809  1.00  0.00     0.097 A 
HETATM   12  N   UNL     1      24.059  43.885  49.073  1.00  0.00    -0.167 NA
HETATM   13  N   UNL     1      23.622  45.144  49.274  1.00  0.00    -0.244 N 
HETATM   14  C   UNL     1      24.447  45.816  50.133  1.00  0.00     0.130 A 
BRANCH  11  15
HETATM   15  C   UNL     1      25.908  42.470  49.737  1.00  0.00    -0.005 A 
HETATM   16  C   UNL     1      27.031  42.282  48.924  1.00  0.00     0.014 A 
HETATM   17  C   UNL     1      27.703  41.053  48.898  1.00  0.00     0.001 A 
HETATM   18  C   UNL     1      27.270  39.998  49.697  1.00  0.00     0.000 A 
HETATM   19  C   UNL     1      26.164  40.168  50.524  1.00  0.00     0.001 A 
HETATM   20  C   UNL     1      25.491  41.393  50.541  1.00  0.00     0.014 A 
ENDBRANCH  11  15
BRANCH  13  21
HETATM   21  C   UNL     1      22.455  45.633  48.621  1.00  0.00     0.058 A 
HETATM   22  C   UNL     1      22.441  46.945  48.123  1.00  0.00     0.031 A 
HETATM   23  C   UNL     1      21.305  47.442  47.480  1.00  0.00     0.002 A 
HETATM   24  C   UNL     1      20.177  46.637  47.333  1.00  0.00     0.000 A 
HETATM   25  C   UNL     1      20.181  45.335  47.829  1.00  0.00     0.002 A 
HETATM   26  C   UNL     1      21.315  44.828  48.470  1.00  0.00     0.031 A 
ENDBRANCH  13  21
ENDBRANCH   7  10
BRANCH   1  27
HETATM   27  C   UNL     1      28.310  44.308  52.935  1.00  0.00     0.270 C 
HETATM   28  O   UNL     1      28.729  45.049  53.815  1.00  0.00    -0.265 OA
BRANCH  27  29
HETATM   29  O   UNL     1      29.067  43.422  52.242  1.00  0.00    -0.321 OA
BRANCH  29  30
HETATM   30  C   UNL     1      29.711  42.383  52.998  1.00  0.00     0.174 C 
HETATM   31  C   UNL     1      29.088  41.033  52.695  1.00  0.00     0.034 C 
ENDBRANCH  29  30
ENDBRANCH  27  29
ENDBRANCH   1  27
BRANCH   2  32
HETATM   32  O   UNL     1      24.594  43.929  53.321  1.00  0.00    -0.363 OA
HETATM   33  H   UNL     1      24.398  43.135  53.850  1.00  0.00     0.213 HD
ENDBRANCH   2  32
BRANCH   2  34
HETATM   34  C   UNL     1      26.341  43.532  54.965  1.00  0.00     0.439 C 
HETATM   35  F   UNL     1      26.936  42.385  54.574  1.00  0.00    -0.166 F 
HETATM   36  F   UNL     1      27.184  44.174  55.796  1.00  0.00    -0.166 F 
HETATM   37  F   UNL     1      25.248  43.191  55.698  1.00  0.00    -0.166 F 
ENDBRANCH   2  34
TORSDOF 8
ENDMDL
MODEL 5
REMARK VINA RESULT:      -8.5      7.282     11.019
REMARK  8 active torsions:
REMARK  status: ('A' for Active; 'I' for Inactive)
REMARK    1  A    between atoms: C_2  and  O_3 
REMARK    2  A    between atoms: O_3  and  C_4 
REMARK    3  A    between atoms: C_4  and  C_5 
REMARK    4  A    between atoms: C_6  and  O_7 
REMARK    5  A    between atoms: C_6  and  C_8 
REMARK    6  A    between atoms: C_16  and  C_17 
REMARK    7  A    between atoms: C_18  and  C_19 
REMARK    8  A    between atoms: N_26  and  C_27 
ROOT
HETATM    1  C   UNL     1      19.218  48.852  48.224  1.00  0.00     0.177 C 
HETATM    2  C   UNL     1      18.428  47.730  48.904  1.00  0.00     0.250 C 
HETATM    3  N   UNL     1      18.483  47.809  50.352  1.00  0.00    -0.303 N 
HETATM    4  C   UNL     1      18.718  48.929  51.065  1.00  0.00     0.319 C 
HETATM    5  O   UNL     1      18.618  48.931  52.286  1.00  0.00    -0.247 OA
HETATM    6  N   UNL     1      19.090  50.034  50.384  1.00  0.00    -0.333 N 
HETATM    7  C   UNL     1      19.042  50.191  48.941  1.00  0.00     0.142 C 
HETATM    8  H   UNL     1      18.180  47.021  50.912  1.00  0.00     0.167 HD
HETATM    9  H   UNL     1      19.184  50.863  50.959  1.00  0.00     0.165 HD
ENDROOT
BRANCH   7  10
HETATM   10  C   UNL     1      17.777  50.934  48.588  1.00  0.00     0.015 A 
HETATM   11  C   UNL     1      17.075  51.024  47.339  1.00  0.00     0.097 A 
HETATM   12  N   UNL     1      15.990  51.808  47.463  1.00  0.00    -0.167 NA
HETATM   13  N   UNL     1      15.978  52.246  48.737  1.00  0.00    -0.244 N 
HETATM   14  C   UNL     1      17.045  51.751  49.435  1.00  0.00     0.130 A 
BRANCH  11  15
HETATM   15  C   UNL     1      17.373  50.445  46.018  1.00  0.00    -0.005 A 
HETATM   16  C   UNL     1      16.746  49.292  45.533  1.00  0.00     0.014 A 
HETATM   17  C   UNL     1      17.054  48.785  44.264  1.00  0.00     0.001 A 
HETATM   18  C   UNL     1      17.984  49.433  43.454  1.00  0.00     0.000 A 
HETATM   19  C   UNL     1      18.608  50.589  43.911  1.00  0.00     0.001 A 
HETATM   20  C   UNL     1      18.305  51.088  45.180  1.00  0.00     0.014 A 
ENDBRANCH  11  15
BRANCH  13  21
HETATM   21  C   UNL     1      14.960  53.124  49.206  1.00  0.00     0.058 A 
HETATM   22  C   UNL     1      14.268  53.931  48.290  1.00  0.00     0.031 A 
HETATM   23  C   UNL     1      13.266  54.798  48.733  1.00  0.00     0.002 A 
HETATM   24  C   UNL     1      12.951  54.868  50.089  1.00  0.00     0.000 A 
HETATM   25  C   UNL     1      13.636  54.073  51.005  1.00  0.00     0.002 A 
HETATM   26  C   UNL     1      14.637  53.200  50.570  1.00  0.00     0.031 A 
ENDBRANCH  13  21
ENDBRANCH   7  10
BRANCH   1  27
HETATM   27  C   UNL     1      20.699  48.574  48.103  1.00  0.00     0.270 C 
HETATM   28  O   UNL     1      21.239  48.339  47.030  1.00  0.00    -0.265 OA
BRANCH  27  29
HETATM   29  O   UNL     1      21.345  48.678  49.291  1.00  0.00    -0.321 OA
BRANCH  29  30
HETATM   30  C   UNL     1      22.683  49.201  49.261  1.00  0.00     0.174 C 
HETATM   31  C   UNL     1      22.666  50.718  49.234  1.00  0.00     0.034 C 
ENDBRANCH  29  30
ENDBRANCH  27  29
ENDBRANCH   1  27
BRANCH   2  32
HETATM   32  O   UNL     1      17.033  47.930  48.601  1.00  0.00    -0.363 OA
HETATM   33  H   UNL     1      16.539  47.771  49.425  1.00  0.00     0.213 HD
ENDBRANCH   2  32
BRANCH   2  34
HETATM   34  C   UNL     1      18.839  46.321  48.353  1.00  0.00     0.439 C 
HETATM   35  F   UNL     1      19.059  46.349  47.021  1.00  0.00    -0.166 F 
HETATM   36  F   UNL     1      19.937  45.812  48.944  1.00  0.00    -0.166 F 
HETATM   37  F   UNL     1      17.828  45.440  48.577  1.00  0.00    -0.166 F 
ENDBRANCH   2  34
TORSDOF 8
ENDMDL
MODEL 6
REMARK VINA RESULT:      -8.4      6.986     10.287
REMARK  8 active torsions:
REMARK  status: ('A' for Active; 'I' for Inactive)
REMARK    1  A    between atoms: C_2  and  O_3 
REMARK    2  A    between atoms: O_3  and  C_4 
REMARK    3  A    between atoms: C_4  and  C_5 
REMARK    4  A    between atoms: C_6  and  O_7 
REMARK    5  A    between atoms: C_6  and  C_8 
REMARK    6  A    between atoms: C_16  and  C_17 
REMARK    7  A    between atoms: C_18  and  C_19 
REMARK    8  A    between atoms: N_26  and  C_27 
ROOT
HETATM    1  C   UNL     1      17.968  48.323  48.120  1.00  0.00     0.177 C 
HETATM    2  C   UNL     1      18.037  49.771  48.613  1.00  0.00     0.250 C 
HETATM    3  N   UNL     1      18.135  49.863  50.057  1.00  0.00    -0.303 N 
HETATM    4  C   UNL     1      18.619  48.903  50.871  1.00  0.00     0.319 C 
HETATM    5  O   UNL     1      18.786  49.115  52.066  1.00  0.00    -0.247 OA
HETATM    6  N   UNL     1      18.885  47.698  50.321  1.00  0.00    -0.333 N 
HETATM    7  C   UNL     1      18.913  47.408  48.899  1.00  0.00     0.142 C 
HETATM    8  H   UNL     1      17.982  50.753  50.518  1.00  0.00     0.167 HD
HETATM    9  H   UNL     1      19.312  47.037  50.960  1.00  0.00     0.165 HD
ENDROOT
BRANCH   7  10
HETATM   10  C   UNL     1      20.350  47.445  48.437  1.00  0.00     0.015 A 
HETATM   11  C   UNL     1      20.975  46.817  47.308  1.00  0.00     0.097 A 
HETATM   12  N   UNL     1      22.288  47.105  47.275  1.00  0.00    -0.167 NA
HETATM   13  N   UNL     1      22.538  47.875  48.353  1.00  0.00    -0.244 N 
HETATM   14  C   UNL     1      21.398  48.085  49.079  1.00  0.00     0.130 A 
BRANCH  11  15
HETATM   15  C   UNL     1      20.426  45.932  46.267  1.00  0.00    -0.005 A 
HETATM   16  C   UNL     1      20.432  46.262  44.907  1.00  0.00     0.014 A 
HETATM   17  C   UNL     1      19.909  45.382  43.951  1.00  0.00     0.001 A 
HETATM   18  C   UNL     1      19.386  44.152  44.339  1.00  0.00     0.000 A 
HETATM   19  C   UNL     1      19.384  43.797  45.684  1.00  0.00     0.001 A 
HETATM   20  C   UNL     1      19.899  44.681  46.636  1.00  0.00     0.014 A 
ENDBRANCH  11  15
BRANCH  13  21
HETATM   21  C   UNL     1      23.852  48.347  48.634  1.00  0.00     0.058 A 
HETATM   22  C   UNL     1      24.700  47.584  49.451  1.00  0.00     0.031 A 
HETATM   23  C   UNL     1      25.991  48.032  49.738  1.00  0.00     0.002 A 
HETATM   24  C   UNL     1      26.443  49.243  49.216  1.00  0.00     0.000 A 
HETATM   25  C   UNL     1      25.605  50.009  48.407  1.00  0.00     0.002 A 
HETATM   26  C   UNL     1      24.313  49.565  48.112  1.00  0.00     0.031 A 
ENDBRANCH  13  21
ENDBRANCH   7  10
BRANCH   1  27
HETATM   27  C   UNL     1      16.582  47.722  48.173  1.00  0.00     0.270 C 
HETATM   28  O   UNL     1      16.000  47.499  49.227  1.00  0.00    -0.265 OA
BRANCH  27  29
HETATM   29  O   UNL     1      16.054  47.526  46.939  1.00  0.00    -0.321 OA
BRANCH  29  30
HETATM   30  C   UNL     1      16.850  46.784  46.000  1.00  0.00     0.174 C 
HETATM   31  C   UNL     1      16.243  46.852  44.611  1.00  0.00     0.034 C 
ENDBRANCH  29  30
ENDBRANCH  27  29
ENDBRANCH   1  27
BRANCH   2  32
HETATM   32  O   UNL     1      19.279  50.335  48.146  1.00  0.00    -0.363 OA
HETATM   33  H   UNL     1      19.478  51.095  48.721  1.00  0.00     0.213 HD
ENDBRANCH   2  32
BRANCH   2  34
HETATM   34  C   UNL     1      16.870  50.637  48.023  1.00  0.00     0.439 C 
HETATM   35  F   UNL     1      16.700  50.413  46.702  1.00  0.00    -0.166 F 
HETATM   36  F   UNL     1      15.687  50.430  48.634  1.00  0.00    -0.166 F 
HETATM   37  F   UNL     1      17.168  51.954  48.176  1.00  0.00    -0.166 F 
ENDBRANCH   2  34
TORSDOF 8
ENDMDL
MODEL 7
REMARK VINA RESULT:      -8.3     11.244     13.575
REMARK  8 active torsions:
REMARK  status: ('A' for Active; 'I' for Inactive)
REMARK    1  A    between atoms: C_2  and  O_3 
REMARK    2  A    between atoms: O_3  and  C_4 
REMARK    3  A    between atoms: C_4  and  C_5 
REMARK    4  A    between atoms: C_6  and  O_7 
REMARK    5  A    between atoms: C_6  and  C_8 
REMARK    6  A    between atoms: C_16  and  C_17 
REMARK    7  A    between atoms: C_18  and  C_19 
REMARK    8  A    between atoms: N_26  and  C_27 
ROOT
HETATM    1  C   UNL     1      28.729  50.271  39.426  1.00  0.00     0.177 C 
HETATM    2  C   UNL     1      27.561  50.765  40.283  1.00  0.00     0.250 C 
HETATM    3  N   UNL     1      26.306  50.788  39.555  1.00  0.00    -0.303 N 
HETATM    4  C   UNL     1      26.014  50.032  38.478  1.00  0.00     0.319 C 
HETATM    5  O   UNL     1      24.884  50.021  38.004  1.00  0.00    -0.247 OA
HETATM    6  N   UNL     1      27.018  49.313  37.932  1.00  0.00    -0.333 N 
HETATM    7  C   UNL     1      28.325  49.101  38.528  1.00  0.00     0.142 C 
HETATM    8  H   UNL     1      25.509  51.282  39.939  1.00  0.00     0.167 HD
HETATM    9  H   UNL     1      26.729  48.710  37.170  1.00  0.00     0.165 HD
ENDROOT
BRANCH   7  10
HETATM   10  C   UNL     1      28.321  47.755  39.210  1.00  0.00     0.015 A 
HETATM   11  C   UNL     1      29.193  47.227  40.222  1.00  0.00     0.097 A 
HETATM   12  N   UNL     1      28.838  45.971  40.542  1.00  0.00    -0.167 NA
HETATM   13  N   UNL     1      27.786  45.659  39.759  1.00  0.00    -0.244 N 
HETATM   14  C   UNL     1      27.460  46.704  38.939  1.00  0.00     0.130 A 
BRANCH  11  15
HETATM   15  C   UNL     1      30.365  47.816  40.891  1.00  0.00    -0.005 A 
HETATM   16  C   UNL     1      31.661  47.735  40.367  1.00  0.00     0.014 A 
HETATM   17  C   UNL     1      32.744  48.322  41.034  1.00  0.00     0.001 A 
HETATM   18  C   UNL     1      32.546  49.012  42.227  1.00  0.00     0.000 A 
HETATM   19  C   UNL     1      31.264  49.118  42.757  1.00  0.00     0.001 A 
HETATM   20  C   UNL     1      30.187  48.524  42.094  1.00  0.00     0.014 A 
ENDBRANCH  11  15
BRANCH  13  21
HETATM   21  C   UNL     1      27.168  44.378  39.830  1.00  0.00     0.058 A 
HETATM   22  C   UNL     1      26.241  44.004  38.845  1.00  0.00     0.031 A 
HETATM   23  C   UNL     1      25.624  42.752  38.898  1.00  0.00     0.002 A 
HETATM   24  C   UNL     1      25.924  41.868  39.933  1.00  0.00     0.000 A 
HETATM   25  C   UNL     1      26.840  42.234  40.918  1.00  0.00     0.002 A 
HETATM   26  C   UNL     1      27.465  43.484  40.869  1.00  0.00     0.031 A 
ENDBRANCH  13  21
ENDBRANCH   7  10
BRANCH   1  27
HETATM   27  C   UNL     1      29.346  51.341  38.555  1.00  0.00     0.270 C 
HETATM   28  O   UNL     1      28.737  51.876  37.637  1.00  0.00    -0.265 OA
BRANCH  27  29
HETATM   29  O   UNL     1      30.602  51.670  38.947  1.00  0.00    -0.321 OA
BRANCH  29  30
HETATM   30  C   UNL     1      31.689  51.071  38.222  1.00  0.00     0.174 C 
HETATM   31  C   UNL     1      33.018  51.411  38.870  1.00  0.00     0.034 C 
ENDBRANCH  29  30
ENDBRANCH  27  29
ENDBRANCH   1  27
BRANCH   2  32
HETATM   32  O   UNL     1      27.338  49.792  41.324  1.00  0.00    -0.363 OA
HETATM   33  H   UNL     1      28.197  49.373  41.507  1.00  0.00     0.213 HD
ENDBRANCH   2  32
BRANCH   2  34
HETATM   34  C   UNL     1      27.891  52.134  40.974  1.00  0.00     0.439 C 
HETATM   35  F   UNL     1      28.926  52.022  41.835  1.00  0.00    -0.166 F 
HETATM   36  F   UNL     1      28.181  53.118  40.103  1.00  0.00    -0.166 F 
HETATM   37  F   UNL     1      26.812  52.546  41.691  1.00  0.00    -0.166 F 
ENDBRANCH   2  34
TORSDOF 8
ENDMDL
MODEL 8
REMARK VINA RESULT:      -8.1      5.289      9.009
REMARK  8 active torsions:
REMARK  status: ('A' for Active; 'I' for Inactive)
REMARK    1  A    between atoms: C_2  and  O_3 
REMARK    2  A    between atoms: O_3  and  C_4 
REMARK    3  A    between atoms: C_4  and  C_5 
REMARK    4  A    between atoms: C_6  and  O_7 
REMARK    5  A    between atoms: C_6  and  C_8 
REMARK    6  A    between atoms: C_16  and  C_17 
REMARK    7  A    between atoms: C_18  and  C_19 
REMARK    8  A    between atoms: N_26  and  C_27 
ROOT
HETATM    1  C   UNL     1      19.728  47.439  47.406  1.00  0.00     0.177 C 
HETATM    2  C   UNL     1      18.719  46.740  48.321  1.00  0.00     0.250 C 
HETATM    3  N   UNL     1      18.368  45.413  47.852  1.00  0.00    -0.303 N 
HETATM    4  C   UNL     1      19.134  44.637  47.058  1.00  0.00     0.319 C 
HETATM    5  O   UNL     1      18.819  43.478  46.816  1.00  0.00    -0.247 OA
HETATM    6  N   UNL     1      20.242  45.196  46.524  1.00  0.00    -0.333 N 
HETATM    7  C   UNL     1      20.806  46.479  46.903  1.00  0.00     0.142 C 
HETATM    8  H   UNL     1      17.568  44.932  48.246  1.00  0.00     0.167 HD
HETATM    9  H   UNL     1      20.817  44.550  45.995  1.00  0.00     0.165 HD
ENDROOT
BRANCH   7  10
HETATM   10  C   UNL     1      21.934  46.230  47.876  1.00  0.00     0.015 A 
HETATM   11  C   UNL     1      22.737  47.161  48.617  1.00  0.00     0.097 A 
HETATM   12  N   UNL     1      23.645  46.509  49.364  1.00  0.00    -0.167 NA
HETATM   13  N   UNL     1      23.474  45.195  49.114  1.00  0.00    -0.244 N 
HETATM   14  C   UNL     1      22.463  44.996  48.215  1.00  0.00     0.130 A 
BRANCH  11  15
HETATM   15  C   UNL     1      22.731  48.633  48.649  1.00  0.00    -0.005 A 
HETATM   16  C   UNL     1      23.705  49.412  48.013  1.00  0.00     0.014 A 
HETATM   17  C   UNL     1      23.651  50.811  48.060  1.00  0.00     0.001 A 
HETATM   18  C   UNL     1      22.614  51.452  48.731  1.00  0.00     0.000 A 
HETATM   19  C   UNL     1      21.627  50.698  49.357  1.00  0.00     0.001 A 
HETATM   20  C   UNL     1      21.688  49.302  49.316  1.00  0.00     0.014 A 
ENDBRANCH  11  15
BRANCH  13  21
HETATM   21  C   UNL     1      24.296  44.213  49.736  1.00  0.00     0.058 A 
HETATM   22  C   UNL     1      24.773  44.435  51.037  1.00  0.00     0.031 A 
HETATM   23  C   UNL     1      25.581  43.482  51.662  1.00  0.00     0.002 A 
HETATM   24  C   UNL     1      25.920  42.306  50.995  1.00  0.00     0.000 A 
HETATM   25  C   UNL     1      25.454  42.081  49.701  1.00  0.00     0.002 A 
HETATM   26  C   UNL     1      24.642  43.027  49.070  1.00  0.00     0.031 A 
ENDBRANCH  13  21
ENDBRANCH   7  10
BRANCH   1  27
HETATM   27  C   UNL     1      19.104  48.115  46.207  1.00  0.00     0.270 C 
HETATM   28  O   UNL     1      18.507  47.494  45.337  1.00  0.00    -0.265 OA
BRANCH  27  29
HETATM   29  O   UNL     1      19.229  49.465  46.248  1.00  0.00    -0.321 OA
BRANCH  29  30
HETATM   30  C   UNL     1      18.106  50.238  45.796  1.00  0.00     0.174 C 
HETATM   31  C   UNL     1      17.950  51.497  46.629  1.00  0.00     0.034 C 
ENDBRANCH  29  30
ENDBRANCH  27  29
ENDBRANCH   1  27
BRANCH   2  32
HETATM   32  O   UNL     1      19.367  46.498  49.586  1.00  0.00    -0.363 OA
HETATM   33  H   UNL     1      19.273  45.547  49.775  1.00  0.00     0.213 HD
ENDBRANCH   2  32
BRANCH   2  34
HETATM   34  C   UNL     1      17.466  47.642  48.593  1.00  0.00     0.439 C 
HETATM   35  F   UNL     1      16.671  47.736  47.505  1.00  0.00    -0.166 F 
HETATM   36  F   UNL     1      16.710  47.215  49.622  1.00  0.00    -0.166 F 
HETATM   37  F   UNL     1      17.878  48.900  48.902  1.00  0.00    -0.166 F 
ENDBRANCH   2  34
TORSDOF 8
ENDMDL
MODEL 9
REMARK VINA RESULT:      -8.0      3.235      6.536
REMARK  8 active torsions:
REMARK  status: ('A' for Active; 'I' for Inactive)
REMARK    1  A    between atoms: C_2  and  O_3 
REMARK    2  A    between atoms: O_3  and  C_4 
REMARK    3  A    between atoms: C_4  and  C_5 
REMARK    4  A    between atoms: C_6  and  O_7 
REMARK    5  A    between atoms: C_6  and  C_8 
REMARK    6  A    between atoms: C_16  and  C_17 
REMARK    7  A    between atoms: C_18  and  C_19 
REMARK    8  A    between atoms: N_26  and  C_27 
ROOT
HETATM    1  C   UNL     1      27.323  39.252  49.904  1.00  0.00     0.177 C 
HETATM    2  C   UNL     1      28.751  39.378  49.367  1.00  0.00     0.250 C 
HETATM    3  N   UNL     1      28.806  40.060  48.088  1.00  0.00    -0.303 N 
HETATM    4  C   UNL     1      27.886  40.931  47.626  1.00  0.00     0.319 C 
HETATM    5  O   UNL     1      28.077  41.559  46.592  1.00  0.00    -0.247 OA
HETATM    6  N   UNL     1      26.743  41.061  48.332  1.00  0.00    -0.333 N 
HETATM    7  C   UNL     1      26.505  40.521  49.660  1.00  0.00     0.142 C 
HETATM    8  H   UNL     1      29.654  40.027  47.534  1.00  0.00     0.167 HD
HETATM    9  H   UNL     1      26.118  41.778  47.981  1.00  0.00     0.165 HD
ENDROOT
BRANCH   7  10
HETATM   10  C   UNL     1      26.734  41.624  50.665  1.00  0.00     0.015 A 
HETATM   11  C   UNL     1      26.017  42.849  50.874  1.00  0.00     0.097 A 
HETATM   12  N   UNL     1      26.569  43.554  51.876  1.00  0.00    -0.167 NA
HETATM   13  N   UNL     1      27.629  42.842  52.306  1.00  0.00    -0.244 N 
HETATM   14  C   UNL     1      27.764  41.685  51.590  1.00  0.00     0.130 A 
BRANCH  11  15
HETATM   15  C   UNL     1      24.858  43.423  50.169  1.00  0.00    -0.005 A 
HETATM   16  C   UNL     1      24.981  44.367  49.143  1.00  0.00     0.014 A 
HETATM   17  C   UNL     1      23.849  44.875  48.493  1.00  0.00     0.001 A 
HETATM   18  C   UNL     1      22.577  44.436  48.850  1.00  0.00     0.000 A 
HETATM   19  C   UNL     1      22.432  43.488  49.857  1.00  0.00     0.001 A 
HETATM   20  C   UNL     1      23.563  42.988  50.509  1.00  0.00     0.014 A 
ENDBRANCH  11  15
BRANCH  13  21
HETATM   21  C   UNL     1      28.458  43.318  53.362  1.00  0.00     0.058 A 
HETATM   22  C   UNL     1      29.642  42.630  53.672  1.00  0.00     0.031 A 
HETATM   23  C   UNL     1      30.467  43.082  54.705  1.00  0.00     0.002 A 
HETATM   24  C   UNL     1      30.117  44.217  55.434  1.00  0.00     0.000 A 
HETATM   25  C   UNL     1      28.941  44.902  55.135  1.00  0.00     0.002 A 
HETATM   26  C   UNL     1      28.112  44.459  54.101  1.00  0.00     0.031 A 
ENDBRANCH  13  21
ENDBRANCH   7  10
BRANCH   1  27
HETATM   27  C   UNL     1      26.554  38.081  49.337  1.00  0.00     0.270 C 
HETATM   28  O   UNL     1      26.371  37.047  49.966  1.00  0.00    -0.265 OA
BRANCH  27  29
HETATM   29  O   UNL     1      26.053  38.338  48.103  1.00  0.00    -0.321 OA
BRANCH  29  30
HETATM   30  C   UNL     1      26.159  37.290  47.125  1.00  0.00     0.174 C 
HETATM   31  C   UNL     1      26.879  37.784  45.885  1.00  0.00     0.034 C 
ENDBRANCH  29  30
ENDBRANCH  27  29
ENDBRANCH   1  27
BRANCH   2  32
HETATM   32  O   UNL     1      29.478  40.251  50.255  1.00  0.00    -0.363 OA
HETATM   33  H   UNL     1      30.054  39.684  50.799  1.00  0.00     0.213 HD
ENDBRANCH   2  32
BRANCH   2  34
HETATM   34  C   UNL     1      29.485  37.993  49.353  1.00  0.00     0.439 C 
HETATM   35  F   UNL     1      29.273  37.303  50.494  1.00  0.00    -0.166 F 
HETATM   36  F   UNL     1      29.128  37.206  48.320  1.00  0.00    -0.166 F 
HETATM   37  F   UNL     1      30.825  38.197  49.247  1.00  0.00    -0.166 F 
ENDBRANCH   2  34
TORSDOF 8
ENDMDL
MODEL 10
REMARK VINA RESULT:      -8.0     18.103     21.262
REMARK  8 active torsions:
REMARK  status: ('A' for Active; 'I' for Inactive)
REMARK    1  A    between atoms: C_2  and  O_3 
REMARK    2  A    between atoms: O_3  and  C_4 
REMARK    3  A    between atoms: C_4  and  C_5 
REMARK    4  A    between atoms: C_6  and  O_7 
REMARK    5  A    between atoms: C_6  and  C_8 
REMARK    6  A    between atoms: C_16  and  C_17 
REMARK    7  A    between atoms: C_18  and  C_19 
REMARK    8  A    between atoms: N_26  and  C_27 
ROOT
HETATM    1  C   UNL     1      38.281  46.089  65.820  1.00  0.00     0.177 C 
HETATM    2  C   UNL     1      38.030  47.515  65.319  1.00  0.00     0.250 C 
HETATM    3  N   UNL     1      38.219  48.510  66.357  1.00  0.00    -0.303 N 
HETATM    4  C   UNL     1      38.990  48.360  67.454  1.00  0.00     0.319 C 
HETATM    5  O   UNL     1      39.196  49.299  68.213  1.00  0.00    -0.247 OA
HETATM    6  N   UNL     1      39.500  47.132  67.692  1.00  0.00    -0.333 N 
HETATM    7  C   UNL     1      39.484  46.017  66.762  1.00  0.00     0.142 C 
HETATM    8  H   UNL     1      37.890  49.457  66.215  1.00  0.00     0.167 HD
HETATM    9  H   UNL     1      40.127  47.091  68.487  1.00  0.00     0.165 HD
ENDROOT
BRANCH   7  10
HETATM   10  C   UNL     1      40.825  45.958  66.070  1.00  0.00     0.015 A 
HETATM   11  C   UNL     1      41.272  45.127  64.990  1.00  0.00     0.097 A 
HETATM   12  N   UNL     1      42.554  45.395  64.688  1.00  0.00    -0.167 NA
HETATM   13  N   UNL     1      42.958  46.351  65.548  1.00  0.00    -0.244 N 
HETATM   14  C   UNL     1      41.947  46.700  66.400  1.00  0.00     0.130 A 
BRANCH  11  15
HETATM   15  C   UNL     1      40.582  44.066  64.235  1.00  0.00    -0.005 A 
HETATM   16  C   UNL     1      40.702  42.708  64.549  1.00  0.00     0.014 A 
HETATM   17  C   UNL     1      40.017  41.735  63.810  1.00  0.00     0.001 A 
HETATM   18  C   UNL     1      39.188  42.108  62.755  1.00  0.00     0.000 A 
HETATM   19  C   UNL     1      39.042  43.454  62.436  1.00  0.00     0.001 A 
HETATM   20  C   UNL     1      39.734  44.421  63.170  1.00  0.00     0.014 A 
ENDBRANCH  11  15
BRANCH  13  21
HETATM   21  C   UNL     1      44.288  46.859  65.516  1.00  0.00     0.058 A 
HETATM   22  C   UNL     1      44.667  47.858  66.426  1.00  0.00     0.031 A 
HETATM   23  C   UNL     1      45.967  48.369  66.408  1.00  0.00     0.002 A 
HETATM   24  C   UNL     1      46.894  47.891  65.484  1.00  0.00     0.000 A 
HETATM   25  C   UNL     1      46.523  46.902  64.574  1.00  0.00     0.002 A 
HETATM   26  C   UNL     1      45.226  46.383  64.587  1.00  0.00     0.031 A 
ENDBRANCH  13  21
ENDBRANCH   7  10
BRANCH   1  27
HETATM   27  C   UNL     1      37.096  45.467  66.521  1.00  0.00     0.270 C 
HETATM   28  O   UNL     1      36.696  45.857  67.611  1.00  0.00    -0.265 OA
BRANCH  27  29
HETATM   29  O   UNL     1      36.508  44.493  65.783  1.00  0.00    -0.321 OA
BRANCH  29  30
HETATM   30  C   UNL     1      37.191  43.231  65.707  1.00  0.00     0.174 C 
HETATM   31  C   UNL     1      36.320  42.189  65.031  1.00  0.00     0.034 C 
ENDBRANCH  29  30
ENDBRANCH  27  29
ENDBRANCH   1  27
BRANCH   2  32
HETATM   32  O   UNL     1      39.053  47.827  64.352  1.00  0.00    -0.363 OA
HETATM   33  H   UNL     1      39.809  48.190  64.847  1.00  0.00     0.213 HD
ENDBRANCH   2  32
BRANCH   2  34
HETATM   34  C   UNL     1      36.642  47.637  64.601  1.00  0.00     0.439 C 
HETATM   35  F   UNL     1      36.384  46.563  63.824  1.00  0.00    -0.166 F 
HETATM   36  F   UNL     1      35.610  47.791  65.452  1.00  0.00    -0.166 F 
HETATM   37  F   UNL     1      36.651  48.729  63.791  1.00  0.00    -0.166 F 
ENDBRANCH   2  34
TORSDOF 8
ENDMDL
