MODEL 1
REMARK VINA RESULT:      -7.3      0.000      0.000
REMARK  5 active torsions:
REMARK  status: ('A' for Active; 'I' for Inactive)
REMARK    1  A    between atoms: C_8  and  C_9 
REMARK    2  A    between atoms: C_11  and  O_12 
REMARK    3  A    between atoms: C_14  and  O_15 
REMARK    4  A    between atoms: C_18  and  C_19 
REMARK    5  A    between atoms: C_22  and  O_23 
ROOT
HETATM    1  C   UNL     1      32.702  47.679  41.347  1.00  0.00     0.070 C 
HETATM    2  C   UNL     1      32.130  48.974  41.780  1.00  0.00     0.033 A 
HETATM    3  N   UNL     1      32.485  49.555  42.968  1.00  0.00    -0.282 N 
HETATM    4  H   UNL     1      33.127  49.202  43.670  1.00  0.00     0.189 HD
HETATM    5  N   UNL     1      31.903  50.744  43.188  1.00  0.00    -0.179 NA
HETATM    6  C   UNL     1      31.172  50.940  42.090  1.00  0.00     0.066 A 
HETATM    7  C   UNL     1      31.217  49.839  41.200  1.00  0.00     0.001 A 
HETATM    8  C   UNL     1      30.458  49.820  39.906  1.00  0.00     0.070 C 
HETATM    9  C   UNL     1      29.374  50.934  39.868  1.00  0.00     0.102 C 
HETATM   10  C   UNL     1      29.913  52.304  40.384  1.00  0.00     0.071 C 
HETATM   11  C   UNL     1      28.848  53.407  40.308  1.00  0.00     0.047 C 
HETATM   12  C   UNL     1      30.387  52.185  41.862  1.00  0.00     0.100 C 
ENDROOT
BRANCH   8  13
HETATM   13  C   UNL     1      29.864  48.421  39.774  1.00  0.00    -0.046 A 
HETATM   14  C   UNL     1      28.817  48.035  40.636  1.00  0.00     0.047 A 
HETATM   15  C   UNL     1      28.246  46.765  40.539  1.00  0.00     0.101 A 
HETATM   16  C   UNL     1      28.762  45.860  39.608  1.00  0.00     0.099 A 
HETATM   17  C   UNL     1      29.790  46.214  38.748  1.00  0.00     0.040 A 
HETATM   18  C   UNL     1      30.333  47.496  38.821  1.00  0.00     0.011 A 
BRANCH  15  19
HETATM   19  O   UNL     1      27.208  46.294  41.302  1.00  0.00    -0.353 OA
HETATM   20  C   UNL     1      25.919  46.798  40.965  1.00  0.00     0.210 C 
ENDBRANCH  15  19
BRANCH  16  21
HETATM   21  O   UNL     1      28.242  44.598  39.513  1.00  0.00    -0.358 OA
HETATM   22  H   UNL     1      28.541  44.140  40.322  1.00  0.00     0.218 HD
ENDBRANCH  16  21
ENDBRANCH   8  13
BRANCH   9  23
HETATM   23  C   UNL     1      28.865  51.060  38.438  1.00  0.00     0.131 C 
HETATM   24  C   UNL     1      27.394  50.846  38.197  1.00  0.00     0.091 C 
HETATM   25  O   UNL     1      29.634  51.314  37.507  1.00  0.00    -0.298 OA
ENDBRANCH   9  23
BRANCH  10  26
HETATM   26  O   UNL     1      31.029  52.739  39.591  1.00  0.00    -0.389 OA
HETATM   27  H   UNL     1      30.926  53.701  39.427  1.00  0.00     0.210 HD
ENDBRANCH  10  26
TORSDOF 5
ENDMDL
MODEL 2
REMARK VINA RESULT:      -7.2      1.893      5.583
REMARK  5 active torsions:
REMARK  status: ('A' for Active; 'I' for Inactive)
REMARK    1  A    between atoms: C_8  and  C_9 
REMARK    2  A    between atoms: C_11  and  O_12 
REMARK    3  A    between atoms: C_14  and  O_15 
REMARK    4  A    between atoms: C_18  and  C_19 
REMARK    5  A    between atoms: C_22  and  O_23 
ROOT
HETATM    1  C   UNL     1      32.161  50.044  43.247  1.00  0.00     0.070 C 
HETATM    2  C   UNL     1      32.000  49.041  42.169  1.00  0.00     0.033 A 
HETATM    3  N   UNL     1      32.912  48.036  41.981  1.00  0.00    -0.282 N 
HETATM    4  H   UNL     1      33.765  47.860  42.502  1.00  0.00     0.189 HD
HETATM    5  N   UNL     1      32.596  47.193  40.988  1.00  0.00    -0.179 NA
HETATM    6  C   UNL     1      31.428  47.660  40.543  1.00  0.00     0.066 A 
HETATM    7  C   UNL     1      31.034  48.854  41.196  1.00  0.00     0.001 A 
HETATM    8  C   UNL     1      29.764  49.576  40.852  1.00  0.00     0.070 C 
HETATM    9  C   UNL     1      29.181  49.084  39.498  1.00  0.00     0.102 C 
HETATM   10  C   UNL     1      29.198  47.529  39.374  1.00  0.00     0.071 C 
HETATM   11  C   UNL     1      28.586  47.050  38.050  1.00  0.00     0.047 C 
HETATM   12  C   UNL     1      30.655  46.988  39.461  1.00  0.00     0.100 C 
ENDROOT
BRANCH   8  13
HETATM   13  C   UNL     1      30.105  51.063  40.836  1.00  0.00    -0.046 A 
HETATM   14  C   UNL     1      31.343  51.479  40.305  1.00  0.00     0.047 A 
HETATM   15  C   UNL     1      31.685  52.832  40.269  1.00  0.00     0.101 A 
HETATM   16  C   UNL     1      30.802  53.768  40.815  1.00  0.00     0.099 A 
HETATM   17  C   UNL     1      29.578  53.386  41.342  1.00  0.00     0.040 A 
HETATM   18  C   UNL     1      29.224  52.038  41.342  1.00  0.00     0.011 A 
BRANCH  15  19
HETATM   19  O   UNL     1      32.844  53.351  39.751  1.00  0.00    -0.353 OA
HETATM   20  C   UNL     1      33.858  52.401  39.439  1.00  0.00     0.210 C 
ENDBRANCH  15  19
BRANCH  16  21
HETATM   21  O   UNL     1      31.125  55.097  40.821  1.00  0.00    -0.358 OA
HETATM   22  H   UNL     1      31.533  55.254  41.694  1.00  0.00     0.218 HD
ENDBRANCH  16  21
ENDBRANCH   8  13
BRANCH   9  23
HETATM   23  C   UNL     1      27.762  49.619  39.363  1.00  0.00     0.131 C 
HETATM   24  C   UNL     1      27.487  50.608  38.261  1.00  0.00     0.091 C 
HETATM   25  O   UNL     1      26.871  49.265  40.140  1.00  0.00    -0.298 OA
ENDBRANCH   9  23
BRANCH  10  26
HETATM   26  O   UNL     1      28.435  46.930  40.434  1.00  0.00    -0.389 OA
HETATM   27  H   UNL     1      27.599  47.436  40.528  1.00  0.00     0.210 HD
ENDBRANCH  10  26
TORSDOF 5
ENDMDL
MODEL 3
REMARK VINA RESULT:      -7.1     11.048     13.452
REMARK  5 active torsions:
REMARK  status: ('A' for Active; 'I' for Inactive)
REMARK    1  A    between atoms: C_8  and  C_9 
REMARK    2  A    between atoms: C_11  and  O_12 
REMARK    3  A    between atoms: C_14  and  O_15 
REMARK    4  A    between atoms: C_18  and  C_19 
REMARK    5  A    between atoms: C_22  and  O_23 
ROOT
HETATM    1  C   UNL     1      26.504  46.252  54.212  1.00  0.00     0.070 C 
HETATM    2  C   UNL     1      27.482  45.182  53.906  1.00  0.00     0.033 A 
HETATM    3  N   UNL     1      28.648  45.052  54.612  1.00  0.00    -0.282 N 
HETATM    4  H   UNL     1      28.987  45.632  55.372  1.00  0.00     0.189 HD
HETATM    5  N   UNL     1      29.400  44.008  54.232  1.00  0.00    -0.179 NA
HETATM    6  C   UNL     1      28.676  43.437  53.269  1.00  0.00     0.066 A 
HETATM    7  C   UNL     1      27.496  44.162  52.971  1.00  0.00     0.001 A 
HETATM    8  C   UNL     1      26.531  43.725  51.908  1.00  0.00     0.070 C 
HETATM    9  C   UNL     1      27.164  42.658  50.972  1.00  0.00     0.102 C 
HETATM   10  C   UNL     1      27.935  41.556  51.763  1.00  0.00     0.071 C 
HETATM   11  C   UNL     1      28.525  40.485  50.834  1.00  0.00     0.047 C 
HETATM   12  C   UNL     1      29.098  42.183  52.584  1.00  0.00     0.100 C 
ENDROOT
BRANCH   8  13
HETATM   13  C   UNL     1      26.113  44.986  51.159  1.00  0.00    -0.046 A 
HETATM   14  C   UNL     1      27.060  45.651  50.352  1.00  0.00     0.047 A 
HETATM   15  C   UNL     1      26.710  46.804  49.647  1.00  0.00     0.101 A 
HETATM   16  C   UNL     1      25.420  47.322  49.793  1.00  0.00     0.099 A 
HETATM   17  C   UNL     1      24.470  46.688  50.579  1.00  0.00     0.040 A 
HETATM   18  C   UNL     1      24.811  45.515  51.252  1.00  0.00     0.011 A 
BRANCH  15  19
HETATM   19  O   UNL     1      27.536  47.514  48.814  1.00  0.00    -0.353 OA
HETATM   20  C   UNL     1      27.916  48.806  49.278  1.00  0.00     0.210 C 
ENDBRANCH  15  19
BRANCH  16  21
HETATM   21  O   UNL     1      25.059  48.468  49.139  1.00  0.00    -0.358 OA
HETATM   22  H   UNL     1      24.084  48.444  49.106  1.00  0.00     0.218 HD
ENDBRANCH  16  21
ENDBRANCH   8  13
BRANCH   9  23
HETATM   23  C   UNL     1      26.056  42.039  50.130  1.00  0.00     0.131 C 
HETATM   24  C   UNL     1      26.166  42.156  48.632  1.00  0.00     0.091 C 
HETATM   25  O   UNL     1      25.094  41.475  50.657  1.00  0.00    -0.298 OA
ENDBRANCH   9  23
BRANCH  10  26
HETATM   26  O   UNL     1      27.055  40.883  52.678  1.00  0.00    -0.389 OA
HETATM   27  H   UNL     1      27.452  40.936  53.574  1.00  0.00     0.210 HD
ENDBRANCH  10  26
TORSDOF 5
ENDMDL
MODEL 4
REMARK VINA RESULT:      -7.0      2.994      5.811
REMARK  5 active torsions:
REMARK  status: ('A' for Active; 'I' for Inactive)
REMARK    1  A    between atoms: C_8  and  C_9 
REMARK    2  A    between atoms: C_11  and  O_12 
REMARK    3  A    between atoms: C_14  and  O_15 
REMARK    4  A    between atoms: C_18  and  C_19 
REMARK    5  A    between atoms: C_22  and  O_23 
ROOT
HETATM    1  C   UNL     1      31.856  47.954  42.476  1.00  0.00     0.070 C 
HETATM    2  C   UNL     1      31.391  48.354  41.128  1.00  0.00     0.033 A 
HETATM    3  N   UNL     1      31.330  47.458  40.093  1.00  0.00    -0.282 N 
HETATM    4  H   UNL     1      31.588  46.477  40.100  1.00  0.00     0.189 HD
HETATM    5  N   UNL     1      30.851  47.976  38.952  1.00  0.00    -0.179 NA
HETATM    6  C   UNL     1      30.571  49.239  39.277  1.00  0.00     0.066 A 
HETATM    7  C   UNL     1      30.949  49.557  40.605  1.00  0.00     0.001 A 
HETATM    8  C   UNL     1      30.751  50.925  41.191  1.00  0.00     0.070 C 
HETATM    9  C   UNL     1      30.461  51.978  40.085  1.00  0.00     0.102 C 
HETATM   10  C   UNL     1      29.421  51.470  39.039  1.00  0.00     0.071 C 
HETATM   11  C   UNL     1      29.112  52.530  37.972  1.00  0.00     0.047 C 
HETATM   12  C   UNL     1      29.947  50.194  38.319  1.00  0.00     0.100 C 
ENDROOT
BRANCH   8  13
HETATM   13  C   UNL     1      32.015  51.242  41.983  1.00  0.00    -0.046 A 
HETATM   14  C   UNL     1      33.255  51.282  41.313  1.00  0.00     0.047 A 
HETATM   15  C   UNL     1      34.430  51.575  42.006  1.00  0.00     0.101 A 
HETATM   16  C   UNL     1      34.370  51.778  43.387  1.00  0.00     0.099 A 
HETATM   17  C   UNL     1      33.164  51.745  44.071  1.00  0.00     0.040 A 
HETATM   18  C   UNL     1      31.987  51.489  43.369  1.00  0.00     0.011 A 
BRANCH  15  19
HETATM   19  O   UNL     1      35.682  51.670  41.453  1.00  0.00    -0.353 OA
HETATM   20  C   UNL     1      36.185  50.476  40.861  1.00  0.00     0.210 C 
ENDBRANCH  15  19
BRANCH  16  21
HETATM   21  O   UNL     1      35.511  52.036  44.096  1.00  0.00    -0.358 OA
HETATM   22  H   UNL     1      35.273  52.767  44.699  1.00  0.00     0.218 HD
ENDBRANCH  16  21
ENDBRANCH   8  13
BRANCH   9  23
HETATM   23  C   UNL     1      29.969  53.254  40.755  1.00  0.00     0.131 C 
HETATM   24  C   UNL     1      30.872  54.459  40.715  1.00  0.00     0.091 C 
HETATM   25  O   UNL     1      28.875  53.295  41.324  1.00  0.00    -0.298 OA
ENDBRANCH   9  23
BRANCH  10  26
HETATM   26  O   UNL     1      28.179  51.140  39.680  1.00  0.00    -0.389 OA
HETATM   27  H   UNL     1      28.355  50.428  40.331  1.00  0.00     0.210 HD
ENDBRANCH  10  26
TORSDOF 5
ENDMDL
MODEL 5
REMARK VINA RESULT:      -7.0      2.749      5.327
REMARK  5 active torsions:
REMARK  status: ('A' for Active; 'I' for Inactive)
REMARK    1  A    between atoms: C_8  and  C_9 
REMARK    2  A    between atoms: C_11  and  O_12 
REMARK    3  A    between atoms: C_14  and  O_15 
REMARK    4  A    between atoms: C_18  and  C_19 
REMARK    5  A    between atoms: C_22  and  O_23 
ROOT
HETATM    1  C   UNL     1      32.004  47.594  40.872  1.00  0.00     0.070 C 
HETATM    2  C   UNL     1      30.754  47.524  40.080  1.00  0.00     0.033 A 
HETATM    3  N   UNL     1      30.312  46.347  39.537  1.00  0.00    -0.282 N 
HETATM    4  H   UNL     1      30.750  45.433  39.586  1.00  0.00     0.189 HD
HETATM    5  N   UNL     1      29.146  46.453  38.884  1.00  0.00    -0.179 NA
HETATM    6  C   UNL     1      28.819  47.737  39.037  1.00  0.00     0.066 A 
HETATM    7  C   UNL     1      29.817  48.476  39.718  1.00  0.00     0.001 A 
HETATM    8  C   UNL     1      29.682  49.946  39.991  1.00  0.00     0.070 C 
HETATM    9  C   UNL     1      28.555  50.582  39.131  1.00  0.00     0.102 C 
HETATM   10  C   UNL     1      27.258  49.714  39.119  1.00  0.00     0.071 C 
HETATM   11  C   UNL     1      26.136  50.368  38.298  1.00  0.00     0.047 C 
HETATM   12  C   UNL     1      27.544  48.308  38.519  1.00  0.00     0.100 C 
ENDROOT
BRANCH   8  13
HETATM   13  C   UNL     1      31.049  50.564  39.713  1.00  0.00    -0.046 A 
HETATM   14  C   UNL     1      31.822  51.038  40.793  1.00  0.00     0.047 A 
HETATM   15  C   UNL     1      33.080  51.603  40.574  1.00  0.00     0.101 A 
HETATM   16  C   UNL     1      33.542  51.740  39.263  1.00  0.00     0.099 A 
HETATM   17  C   UNL     1      32.803  51.283  38.183  1.00  0.00     0.040 A 
HETATM   18  C   UNL     1      31.564  50.684  38.407  1.00  0.00     0.011 A 
BRANCH  15  19
HETATM   19  O   UNL     1      33.927  52.068  41.547  1.00  0.00    -0.353 OA
HETATM   20  C   UNL     1      33.959  51.306  42.751  1.00  0.00     0.210 C 
ENDBRANCH  15  19
BRANCH  16  21
HETATM   21  O   UNL     1      34.757  52.319  39.018  1.00  0.00    -0.358 OA
HETATM   22  H   UNL     1      35.405  51.595  39.112  1.00  0.00     0.218 HD
ENDBRANCH  16  21
ENDBRANCH   8  13
BRANCH   9  23
HETATM   23  C   UNL     1      28.265  51.975  39.673  1.00  0.00     0.131 C 
HETATM   24  C   UNL     1      28.690  53.154  38.837  1.00  0.00     0.091 C 
HETATM   25  O   UNL     1      27.714  52.133  40.766  1.00  0.00    -0.298 OA
ENDBRANCH   9  23
BRANCH  10  26
HETATM   26  O   UNL     1      26.756  49.537  40.453  1.00  0.00    -0.389 OA
HETATM   27  H   UNL     1      26.592  50.426  40.835  1.00  0.00     0.210 HD
ENDBRANCH  10  26
TORSDOF 5
ENDMDL
MODEL 6
REMARK VINA RESULT:      -6.7      2.327      3.753
REMARK  5 active torsions:
REMARK  status: ('A' for Active; 'I' for Inactive)
REMARK    1  A    between atoms: C_8  and  C_9 
REMARK    2  A    between atoms: C_11  and  O_12 
REMARK    3  A    between atoms: C_14  and  O_15 
REMARK    4  A    between atoms: C_18  and  C_19 
REMARK    5  A    between atoms: C_22  and  O_23 
ROOT
HETATM    1  C   UNL     1      26.530  49.778  39.295  1.00  0.00     0.070 C 
HETATM    2  C   UNL     1      27.715  50.663  39.211  1.00  0.00     0.033 A 
HETATM    3  N   UNL     1      27.684  51.841  38.513  1.00  0.00    -0.282 N 
HETATM    4  H   UNL     1      26.912  52.236  37.986  1.00  0.00     0.189 HD
HETATM    5  N   UNL     1      28.829  52.538  38.571  1.00  0.00    -0.179 NA
HETATM    6  C   UNL     1      29.609  51.791  39.355  1.00  0.00     0.066 A 
HETATM    7  C   UNL     1      28.994  50.572  39.733  1.00  0.00     0.001 A 
HETATM    8  C   UNL     1      29.685  49.558  40.598  1.00  0.00     0.070 C 
HETATM    9  C   UNL     1      31.212  49.834  40.685  1.00  0.00     0.102 C 
HETATM   10  C   UNL     1      31.530  51.343  40.924  1.00  0.00     0.071 C 
HETATM   11  C   UNL     1      33.039  51.601  41.047  1.00  0.00     0.047 C 
HETATM   12  C   UNL     1      30.981  52.211  39.755  1.00  0.00     0.100 C 
ENDROOT
BRANCH   8  13
HETATM   13  C   UNL     1      29.371  48.192  39.996  1.00  0.00    -0.046 A 
HETATM   14  C   UNL     1      28.570  47.288  40.724  1.00  0.00     0.047 A 
HETATM   15  C   UNL     1      28.258  46.032  40.201  1.00  0.00     0.101 A 
HETATM   16  C   UNL     1      28.793  45.661  38.965  1.00  0.00     0.099 A 
HETATM   17  C   UNL     1      29.582  46.531  38.228  1.00  0.00     0.040 A 
HETATM   18  C   UNL     1      29.861  47.799  38.736  1.00  0.00     0.011 A 
BRANCH  15  19
HETATM   19  O   UNL     1      27.467  45.088  40.805  1.00  0.00    -0.353 OA
HETATM   20  C   UNL     1      26.395  45.597  41.594  1.00  0.00     0.210 C 
ENDBRANCH  15  19
BRANCH  16  21
HETATM   21  O   UNL     1      28.529  44.425  38.443  1.00  0.00    -0.358 OA
HETATM   22  H   UNL     1      29.266  44.248  37.827  1.00  0.00     0.218 HD
ENDBRANCH  16  21
ENDBRANCH   8  13
BRANCH   9  23
HETATM   23  C   UNL     1      31.791  48.978  41.804  1.00  0.00     0.131 C 
HETATM   24  C   UNL     1      32.803  47.928  41.429  1.00  0.00     0.091 C 
HETATM   25  O   UNL     1      31.433  49.131  42.974  1.00  0.00    -0.298 OA
ENDBRANCH   9  23
BRANCH  10  26
HETATM   26  O   UNL     1      30.922  51.800  42.143  1.00  0.00    -0.389 OA
HETATM   27  H   UNL     1      30.335  51.086  42.474  1.00  0.00     0.210 HD
ENDBRANCH  10  26
TORSDOF 5
ENDMDL
MODEL 7
REMARK VINA RESULT:      -6.5     12.187     14.142
REMARK  5 active torsions:
REMARK  status: ('A' for Active; 'I' for Inactive)
REMARK    1  A    between atoms: C_8  and  C_9 
REMARK    2  A    between atoms: C_11  and  O_12 
REMARK    3  A    between atoms: C_14  and  O_15 
REMARK    4  A    between atoms: C_18  and  C_19 
REMARK    5  A    between atoms: C_22  and  O_23 
ROOT
HETATM    1  C   UNL     1      20.468  50.828  50.199  1.00  0.00     0.070 C 
HETATM    2  C   UNL     1      21.111  49.635  49.602  1.00  0.00     0.033 A 
HETATM    3  N   UNL     1      22.467  49.445  49.660  1.00  0.00    -0.282 N 
HETATM    4  H   UNL     1      23.166  50.053  50.074  1.00  0.00     0.189 HD
HETATM    5  N   UNL     1      22.880  48.296  49.105  1.00  0.00    -0.179 NA
HETATM    6  C   UNL     1      21.746  47.720  48.703  1.00  0.00     0.066 A 
HETATM    7  C   UNL     1      20.610  48.538  48.924  1.00  0.00     0.001 A 
HETATM    8  C   UNL     1      19.225  48.110  48.535  1.00  0.00     0.070 C 
HETATM    9  C   UNL     1      19.257  46.900  47.561  1.00  0.00     0.102 C 
HETATM   10  C   UNL     1      20.265  45.799  48.016  1.00  0.00     0.071 C 
HETATM   11  C   UNL     1      20.263  44.590  47.068  1.00  0.00     0.047 C 
HETATM   12  C   UNL     1      21.711  46.370  48.073  1.00  0.00     0.100 C 
ENDROOT
BRANCH   8  13
HETATM   13  C   UNL     1      18.551  49.335  47.924  1.00  0.00    -0.046 A 
HETATM   14  C   UNL     1      17.426  49.893  48.566  1.00  0.00     0.047 A 
HETATM   15  C   UNL     1      16.789  51.017  48.038  1.00  0.00     0.101 A 
HETATM   16  C   UNL     1      17.251  51.553  46.833  1.00  0.00     0.099 A 
HETATM   17  C   UNL     1      18.355  51.026  46.182  1.00  0.00     0.040 A 
HETATM   18  C   UNL     1      19.013  49.926  46.732  1.00  0.00     0.011 A 
BRANCH  15  19
HETATM   19  O   UNL     1      15.710  51.658  48.590  1.00  0.00    -0.353 OA
HETATM   20  C   UNL     1      15.978  52.405  49.773  1.00  0.00     0.210 C 
ENDBRANCH  15  19
BRANCH  16  21
HETATM   21  O   UNL     1      16.627  52.636  46.277  1.00  0.00    -0.358 OA
HETATM   22  H   UNL     1      15.674  52.485  46.431  1.00  0.00     0.218 HD
ENDBRANCH  16  21
ENDBRANCH   8  13
BRANCH   9  23
HETATM   23  C   UNL     1      17.849  46.329  47.457  1.00  0.00     0.131 C 
HETATM   24  C   UNL     1      17.117  46.505  46.152  1.00  0.00     0.091 C 
HETATM   25  O   UNL     1      17.320  45.756  48.413  1.00  0.00    -0.298 OA
ENDBRANCH   9  23
BRANCH  10  26
HETATM   26  O   UNL     1      19.925  45.311  49.323  1.00  0.00    -0.389 OA
HETATM   27  H   UNL     1      19.550  44.410  49.221  1.00  0.00     0.210 HD
ENDBRANCH  10  26
TORSDOF 5
ENDMDL
MODEL 8
REMARK VINA RESULT:      -6.5     10.155     12.680
REMARK  5 active torsions:
REMARK  status: ('A' for Active; 'I' for Inactive)
REMARK    1  A    between atoms: C_8  and  C_9 
REMARK    2  A    between atoms: C_11  and  O_12 
REMARK    3  A    between atoms: C_14  and  O_15 
REMARK    4  A    between atoms: C_18  and  C_19 
REMARK    5  A    between atoms: C_22  and  O_23 
ROOT
HETATM    1  C   UNL     1      26.181  47.324  53.364  1.00  0.00     0.070 C 
HETATM    2  C   UNL     1      26.476  45.911  53.035  1.00  0.00     0.033 A 
HETATM    3  N   UNL     1      27.323  45.156  53.803  1.00  0.00    -0.282 N 
HETATM    4  H   UNL     1      27.837  45.439  54.630  1.00  0.00     0.189 HD
HETATM    5  N   UNL     1      27.449  43.887  53.387  1.00  0.00    -0.179 NA
HETATM    6  C   UNL     1      26.634  43.823  52.333  1.00  0.00     0.066 A 
HETATM    7  C   UNL     1      26.048  45.073  52.019  1.00  0.00     0.001 A 
HETATM    8  C   UNL     1      25.109  45.254  50.862  1.00  0.00     0.070 C 
HETATM    9  C   UNL     1      25.178  44.049  49.883  1.00  0.00     0.102 C 
HETATM   10  C   UNL     1      25.172  42.678  50.628  1.00  0.00     0.071 C 
HETATM   11  C   UNL     1      25.202  41.492  49.652  1.00  0.00     0.047 C 
HETATM   12  C   UNL     1      26.402  42.562  51.574  1.00  0.00     0.100 C 
ENDROOT
BRANCH   8  13
HETATM   13  C   UNL     1      25.494  46.571  50.196  1.00  0.00    -0.046 A 
HETATM   14  C   UNL     1      24.504  47.556  49.998  1.00  0.00     0.047 A 
HETATM   15  C   UNL     1      24.822  48.775  49.398  1.00  0.00     0.101 A 
HETATM   16  C   UNL     1      26.127  48.988  48.947  1.00  0.00     0.099 A 
HETATM   17  C   UNL     1      27.119  48.037  49.129  1.00  0.00     0.040 A 
HETATM   18  C   UNL     1      26.808  46.835  49.763  1.00  0.00     0.011 A 
BRANCH  15  19
HETATM   19  O   UNL     1      23.951  49.812  49.183  1.00  0.00    -0.353 OA
HETATM   20  C   UNL     1      22.569  49.493  49.317  1.00  0.00     0.210 C 
ENDBRANCH  15  19
BRANCH  16  21
HETATM   21  O   UNL     1      26.459  50.161  48.327  1.00  0.00    -0.358 OA
HETATM   22  H   UNL     1      27.103  49.909  47.638  1.00  0.00     0.218 HD
ENDBRANCH  16  21
ENDBRANCH   8  13
BRANCH   9  23
HETATM   23  C   UNL     1      24.002  44.143  48.920  1.00  0.00     0.131 C 
HETATM   24  C   UNL     1      22.633  44.368  49.507  1.00  0.00     0.091 C 
HETATM   25  O   UNL     1      24.164  44.025  47.703  1.00  0.00    -0.298 OA
ENDBRANCH   9  23
BRANCH  10  26
HETATM   26  O   UNL     1      23.983  42.540  51.422  1.00  0.00    -0.389 OA
HETATM   27  H   UNL     1      23.419  43.327  51.260  1.00  0.00     0.210 HD
ENDBRANCH  10  26
TORSDOF 5
ENDMDL
MODEL 9
REMARK VINA RESULT:      -6.3      2.115      3.295
REMARK  5 active torsions:
REMARK  status: ('A' for Active; 'I' for Inactive)
REMARK    1  A    between atoms: C_8  and  C_9 
REMARK    2  A    between atoms: C_11  and  O_12 
REMARK    3  A    between atoms: C_14  and  O_15 
REMARK    4  A    between atoms: C_18  and  C_19 
REMARK    5  A    between atoms: C_22  and  O_23 
ROOT
HETATM    1  C   UNL     1      29.944  46.942  38.456  1.00  0.00     0.070 C 
HETATM    2  C   UNL     1      30.640  47.654  39.552  1.00  0.00     0.033 A 
HETATM    3  N   UNL     1      31.713  47.102  40.201  1.00  0.00    -0.282 N 
HETATM    4  H   UNL     1      32.139  46.195  40.044  1.00  0.00     0.189 HD
HETATM    5  N   UNL     1      32.248  47.896  41.141  1.00  0.00    -0.179 NA
HETATM    6  C   UNL     1      31.507  49.003  41.071  1.00  0.00     0.066 A 
HETATM    7  C   UNL     1      30.442  48.890  40.144  1.00  0.00     0.001 A 
HETATM    8  C   UNL     1      29.463  50.002  39.906  1.00  0.00     0.070 C 
HETATM    9  C   UNL     1      29.536  51.072  41.030  1.00  0.00     0.102 C 
HETATM   10  C   UNL     1      31.005  51.452  41.393  1.00  0.00     0.071 C 
HETATM   11  C   UNL     1      31.067  52.538  42.478  1.00  0.00     0.047 C 
HETATM   12  C   UNL     1      31.783  50.206  41.905  1.00  0.00     0.100 C 
ENDROOT
BRANCH   8  13
HETATM   13  C   UNL     1      28.087  49.350  39.807  1.00  0.00    -0.046 A 
HETATM   14  C   UNL     1      27.340  49.498  38.619  1.00  0.00     0.047 A 
HETATM   15  C   UNL     1      26.081  48.910  38.492  1.00  0.00     0.101 A 
HETATM   16  C   UNL     1      25.545  48.214  39.579  1.00  0.00     0.099 A 
HETATM   17  C   UNL     1      26.257  48.054  40.757  1.00  0.00     0.040 A 
HETATM   18  C   UNL     1      27.531  48.610  40.868  1.00  0.00     0.011 A 
BRANCH  15  19
HETATM   19  O   UNL     1      25.283  48.962  37.378  1.00  0.00    -0.353 OA
HETATM   20  C   UNL     1      25.790  48.296  36.225  1.00  0.00     0.210 C 
ENDBRANCH  15  19
BRANCH  16  21
HETATM   21  O   UNL     1      24.300  47.655  39.493  1.00  0.00    -0.358 OA
HETATM   22  H   UNL     1      23.722  48.373  39.172  1.00  0.00     0.218 HD
ENDBRANCH  16  21
ENDBRANCH   8  13
BRANCH   9  23
HETATM   23  C   UNL     1      28.759  52.300  40.575  1.00  0.00     0.131 C 
HETATM   24  C   UNL     1      27.565  52.717  41.394  1.00  0.00     0.091 C 
HETATM   25  O   UNL     1      29.087  52.924  39.563  1.00  0.00    -0.298 OA
ENDBRANCH   9  23
BRANCH  10  26
HETATM   26  O   UNL     1      31.692  51.966  40.242  1.00  0.00    -0.389 OA
HETATM   27  H   UNL     1      31.805  51.229  39.603  1.00  0.00     0.210 HD
ENDBRANCH  10  26
TORSDOF 5
ENDMDL
MODEL 10
REMARK VINA RESULT:      -6.3     13.290     15.058
REMARK  5 active torsions:
REMARK  status: ('A' for Active; 'I' for Inactive)
REMARK    1  A    between atoms: C_8  and  C_9 
REMARK    2  A    between atoms: C_11  and  O_12 
REMARK    3  A    between atoms: C_14  and  O_15 
REMARK    4  A    between atoms: C_18  and  C_19 
REMARK    5  A    between atoms: C_22  and  O_23 
ROOT
HETATM    1  C   UNL     1      28.120  40.998  53.431  1.00  0.00     0.070 C 
HETATM    2  C   UNL     1      27.731  41.943  52.359  1.00  0.00     0.033 A 
HETATM    3  N   UNL     1      27.648  41.549  51.050  1.00  0.00    -0.282 N 
HETATM    4  H   UNL     1      27.840  40.633  50.659  1.00  0.00     0.189 HD
HETATM    5  N   UNL     1      27.246  42.519  50.215  1.00  0.00    -0.179 NA
HETATM    6  C   UNL     1      27.039  43.560  51.023  1.00  0.00     0.066 A 
HETATM    7  C   UNL     1      27.389  43.284  52.367  1.00  0.00     0.001 A 
HETATM    8  C   UNL     1      27.262  44.309  53.457  1.00  0.00     0.070 C 
HETATM    9  C   UNL     1      27.082  45.738  52.873  1.00  0.00     0.102 C 
HETATM   10  C   UNL     1      26.049  45.776  51.704  1.00  0.00     0.071 C 
HETATM   11  C   UNL     1      25.850  47.197  51.158  1.00  0.00     0.047 C 
HETATM   12  C   UNL     1      26.515  44.865  50.532  1.00  0.00     0.100 C 
ENDROOT
BRANCH   8  13
HETATM   13  C   UNL     1      28.515  44.181  54.317  1.00  0.00    -0.046 A 
HETATM   14  C   UNL     1      28.588  44.890  55.535  1.00  0.00     0.047 A 
HETATM   15  C   UNL     1      29.716  44.792  56.350  1.00  0.00     0.101 A 
HETATM   16  C   UNL     1      30.799  44.020  55.918  1.00  0.00     0.099 A 
HETATM   17  C   UNL     1      30.753  43.313  54.726  1.00  0.00     0.040 A 
HETATM   18  C   UNL     1      29.609  43.383  53.932  1.00  0.00     0.011 A 
BRANCH  15  19
HETATM   19  O   UNL     1      29.884  45.410  57.563  1.00  0.00    -0.353 OA
HETATM   20  C   UNL     1      28.806  46.241  57.983  1.00  0.00     0.210 C 
ENDBRANCH  15  19
BRANCH  16  21
HETATM   21  O   UNL     1      31.930  43.931  56.682  1.00  0.00    -0.358 OA
HETATM   22  H   UNL     1      31.879  43.054  57.107  1.00  0.00     0.218 HD
ENDBRANCH  16  21
ENDBRANCH   8  13
BRANCH   9  23
HETATM   23  C   UNL     1      26.653  46.667  54.001  1.00  0.00     0.131 C 
HETATM   24  C   UNL     1      27.584  47.789  54.377  1.00  0.00     0.091 C 
HETATM   25  O   UNL     1      25.585  46.496  54.596  1.00  0.00    -0.298 OA
ENDBRANCH   9  23
BRANCH  10  26
HETATM   26  O   UNL     1      24.766  45.310  52.149  1.00  0.00    -0.389 OA
HETATM   27  H   UNL     1      24.892  44.853  53.008  1.00  0.00     0.210 HD
ENDBRANCH  10  26
TORSDOF 5
ENDMDL
