MODEL 1
REMARK VINA RESULT:      -7.6      0.000      0.000
REMARK  3 active torsions:
REMARK  status: ('A' for Active; 'I' for Inactive)
REMARK    1  A    between atoms: C_2  and  C_3 
REMARK    2  A    between atoms: C_9  and  C_10 
REMARK    3  A    between atoms: C_20  and  N_21 
ROOT
HETATM    1  C   UNL     1      28.252  47.894  40.148  1.00  0.00     0.043 A 
HETATM    2  N   UNL     1      28.422  46.586  39.743  1.00  0.00    -0.279 N 
HETATM    3  H   UNL     1      27.709  45.923  39.458  1.00  0.00     0.189 HD
HETATM    4  N   UNL     1      29.700  46.162  39.785  1.00  0.00    -0.148 NA
HETATM    5  C   UNL     1      30.351  47.249  40.178  1.00  0.00     0.199 A 
HETATM    6  C   UNL     1      29.530  48.361  40.397  1.00  0.00     0.035 A 
HETATM    7  C   UNL     1      30.110  49.636  40.893  1.00  0.00     0.106 A 
HETATM    8  C   UNL     1      31.584  49.473  41.218  1.00  0.00     0.067 A 
HETATM    9  C   UNL     1      32.212  50.604  42.017  1.00  0.00     0.020 C 
HETATM   10  N   UNL     1      32.733  51.542  42.679  1.00  0.00    -0.096 N 
HETATM   11  C   UNL     1      32.283  48.335  40.976  1.00  0.00     0.139 A 
HETATM   12  O   UNL     1      31.682  47.210  40.388  1.00  0.00    -0.277 OA
ENDROOT
BRANCH   7  13
HETATM   13  C   UNL     1      29.786  50.729  39.881  1.00  0.00    -0.022 A 
HETATM   14  C   UNL     1      28.819  51.741  40.045  1.00  0.00     0.041 A 
HETATM   15 CL   UNL     1      27.824  51.892  41.446  1.00  0.00    -0.084 Cl
HETATM   16  C   UNL     1      28.602  52.694  39.039  1.00  0.00     0.024 A 
HETATM   17  C   UNL     1      29.328  52.652  37.852  1.00  0.00     0.002 A 
HETATM   18  C   UNL     1      30.274  51.655  37.661  1.00  0.00     0.001 A 
HETATM   19  C   UNL     1      30.499  50.706  38.660  1.00  0.00     0.010 A 
ENDBRANCH   7  13
BRANCH  11  20
HETATM   20  N   UNL     1      33.606  48.129  41.295  1.00  0.00    -0.282 NA
HETATM   21  H   UNL     1      34.261  48.847  40.998  1.00  0.00     0.126 HD
HETATM   22  H   UNL     1      33.725  47.845  42.266  1.00  0.00     0.126 HD
ENDBRANCH  11  20
BRANCH   1  23
HETATM   23  C   UNL     1      26.906  48.542  40.262  1.00  0.00     0.029 C 
HETATM   24  C   UNL     1      25.850  47.547  40.750  1.00  0.00     0.016 C 
HETATM   25  C   UNL     1      26.484  49.187  38.943  1.00  0.00     0.016 C 
ENDBRANCH   1  23
TORSDOF 3
ENDMDL
MODEL 2
REMARK VINA RESULT:      -7.0      3.171      4.758
REMARK  3 active torsions:
REMARK  status: ('A' for Active; 'I' for Inactive)
REMARK    1  A    between atoms: C_2  and  C_3 
REMARK    2  A    between atoms: C_9  and  C_10 
REMARK    3  A    between atoms: C_20  and  N_21 
ROOT
HETATM    1  C   UNL     1      27.822  50.619  40.393  1.00  0.00     0.043 A 
HETATM    2  N   UNL     1      26.819  51.382  40.953  1.00  0.00    -0.279 N 
HETATM    3  H   UNL     1      25.843  51.137  41.076  1.00  0.00     0.189 HD
HETATM    4  N   UNL     1      27.215  52.613  41.332  1.00  0.00    -0.148 NA
HETATM    5  C   UNL     1      28.511  52.599  41.048  1.00  0.00     0.199 A 
HETATM    6  C   UNL     1      28.962  51.397  40.490  1.00  0.00     0.035 A 
HETATM    7  C   UNL     1      30.379  51.251  40.068  1.00  0.00     0.106 A 
HETATM    8  C   UNL     1      31.128  52.563  40.212  1.00  0.00     0.067 A 
HETATM    9  C   UNL     1      32.485  52.626  39.530  1.00  0.00     0.020 C 
HETATM   10  N   UNL     1      33.611  52.679  38.966  1.00  0.00    -0.096 N 
HETATM   11  C   UNL     1      30.583  53.681  40.758  1.00  0.00     0.139 A 
HETATM   12  O   UNL     1      29.266  53.697  41.246  1.00  0.00    -0.277 OA
ENDROOT
BRANCH   7  13
HETATM   13  C   UNL     1      30.981  50.075  40.828  1.00  0.00    -0.022 A 
HETATM   14  C   UNL     1      31.244  48.798  40.295  1.00  0.00     0.041 A 
HETATM   15 CL   UNL     1      30.905  48.359  38.661  1.00  0.00    -0.084 Cl
HETATM   16  C   UNL     1      31.796  47.786  41.094  1.00  0.00     0.024 A 
HETATM   17  C   UNL     1      32.083  48.019  42.437  1.00  0.00     0.002 A 
HETATM   18  C   UNL     1      31.818  49.264  42.990  1.00  0.00     0.001 A 
HETATM   19  C   UNL     1      31.273  50.277  42.198  1.00  0.00     0.010 A 
ENDBRANCH   7  13
BRANCH  11  20
HETATM   20  N   UNL     1      31.209  54.902  40.866  1.00  0.00    -0.282 NA
HETATM   21  H   UNL     1      32.131  54.977  40.446  1.00  0.00     0.126 HD
HETATM   22  H   UNL     1      30.588  55.672  40.625  1.00  0.00     0.126 HD
ENDBRANCH  11  20
BRANCH   1  23
HETATM   23  C   UNL     1      27.584  49.254  39.823  1.00  0.00     0.029 C 
HETATM   24  C   UNL     1      26.243  49.184  39.089  1.00  0.00     0.016 C 
HETATM   25  C   UNL     1      27.675  48.176  40.902  1.00  0.00     0.016 C 
ENDBRANCH   1  23
TORSDOF 3
ENDMDL
MODEL 3
REMARK VINA RESULT:      -6.9      2.461      4.714
REMARK  3 active torsions:
REMARK  status: ('A' for Active; 'I' for Inactive)
REMARK    1  A    between atoms: C_2  and  C_3 
REMARK    2  A    between atoms: C_9  and  C_10 
REMARK    3  A    between atoms: C_20  and  N_21 
ROOT
HETATM    1  C   UNL     1      30.123  52.722  39.640  1.00  0.00     0.043 A 
HETATM    2  N   UNL     1      30.237  53.975  40.204  1.00  0.00    -0.279 N 
HETATM    3  H   UNL     1      29.848  54.849  39.868  1.00  0.00     0.189 HD
HETATM    4  N   UNL     1      31.003  54.009  41.313  1.00  0.00    -0.148 NA
HETATM    5  C   UNL     1      31.332  52.734  41.474  1.00  0.00     0.199 A 
HETATM    6  C   UNL     1      30.807  51.879  40.498  1.00  0.00     0.035 A 
HETATM    7  C   UNL     1      31.136  50.430  40.515  1.00  0.00     0.106 A 
HETATM    8  C   UNL     1      32.155  50.116  41.595  1.00  0.00     0.067 A 
HETATM    9  C   UNL     1      32.800  48.741  41.514  1.00  0.00     0.020 C 
HETATM   10  N   UNL     1      33.333  47.601  41.448  1.00  0.00    -0.096 N 
HETATM   11  C   UNL     1      32.610  51.034  42.486  1.00  0.00     0.139 A 
HETATM   12  O   UNL     1      32.153  52.362  42.476  1.00  0.00    -0.277 OA
ENDROOT
BRANCH   7  13
HETATM   13  C   UNL     1      29.830  49.649  40.609  1.00  0.00    -0.022 A 
HETATM   14  C   UNL     1      29.480  48.533  39.824  1.00  0.00     0.041 A 
HETATM   15 CL   UNL     1      30.501  47.872  38.599  1.00  0.00    -0.084 Cl
HETATM   16  C   UNL     1      28.243  47.896  39.995  1.00  0.00     0.024 A 
HETATM   17  C   UNL     1      27.328  48.361  40.935  1.00  0.00     0.002 A 
HETATM   18  C   UNL     1      27.643  49.469  41.709  1.00  0.00     0.001 A 
HETATM   19  C   UNL     1      28.876  50.106  41.547  1.00  0.00     0.010 A 
ENDBRANCH   7  13
BRANCH  11  20
HETATM   20  N   UNL     1      33.565  50.804  43.450  1.00  0.00    -0.282 NA
HETATM   21  H   UNL     1      33.331  50.122  44.166  1.00  0.00     0.126 HD
HETATM   22  H   UNL     1      34.490  50.671  43.047  1.00  0.00     0.126 HD
ENDBRANCH  11  20
BRANCH   1  23
HETATM   23  C   UNL     1      29.393  52.470  38.357  1.00  0.00     0.029 C 
HETATM   24  C   UNL     1      28.020  51.844  38.612  1.00  0.00     0.016 C 
HETATM   25  C   UNL     1      30.220  51.609  37.404  1.00  0.00     0.016 C 
ENDBRANCH   1  23
TORSDOF 3
ENDMDL
MODEL 4
REMARK VINA RESULT:      -6.9     10.479     13.116
REMARK  3 active torsions:
REMARK  status: ('A' for Active; 'I' for Inactive)
REMARK    1  A    between atoms: C_2  and  C_3 
REMARK    2  A    between atoms: C_9  and  C_10 
REMARK    3  A    between atoms: C_20  and  N_21 
ROOT
HETATM    1  C   UNL     1      22.653  48.818  48.251  1.00  0.00     0.043 A 
HETATM    2  N   UNL     1      23.355  47.771  48.812  1.00  0.00    -0.279 N 
HETATM    3  H   UNL     1      24.300  47.780  49.180  1.00  0.00     0.189 HD
HETATM    4  N   UNL     1      22.687  46.601  48.813  1.00  0.00    -0.148 NA
HETATM    5  C   UNL     1      21.517  46.938  48.285  1.00  0.00     0.199 A 
HETATM    6  C   UNL     1      21.413  48.290  47.938  1.00  0.00     0.035 A 
HETATM    7  C   UNL     1      20.181  48.803  47.285  1.00  0.00     0.106 A 
HETATM    8  C   UNL     1      19.218  47.672  46.972  1.00  0.00     0.067 A 
HETATM    9  C   UNL     1      18.072  48.021  46.037  1.00  0.00     0.020 C 
HETATM   10  N   UNL     1      17.121  48.310  45.261  1.00  0.00    -0.096 N 
HETATM   11  C   UNL     1      19.429  46.384  47.347  1.00  0.00     0.139 A 
HETATM   12  O   UNL     1      20.570  46.003  48.072  1.00  0.00    -0.277 OA
ENDROOT
BRANCH   7  13
HETATM   13  C   UNL     1      19.612  49.916  48.157  1.00  0.00    -0.022 A 
HETATM   14  C   UNL     1      19.051  49.753  49.439  1.00  0.00     0.041 A 
HETATM   15 CL   UNL     1      18.912  48.226  50.231  1.00  0.00    -0.084 Cl
HETATM   16  C   UNL     1      18.551  50.854  50.149  1.00  0.00     0.024 A 
HETATM   17  C   UNL     1      18.584  52.131  49.596  1.00  0.00     0.002 A 
HETATM   18  C   UNL     1      19.116  52.315  48.327  1.00  0.00     0.001 A 
HETATM   19  C   UNL     1      19.622  51.223  47.617  1.00  0.00     0.010 A 
ENDBRANCH   7  13
BRANCH  11  20
HETATM   20  N   UNL     1      18.607  45.322  47.046  1.00  0.00    -0.282 NA
HETATM   21  H   UNL     1      17.656  45.370  47.400  1.00  0.00     0.126 HD
HETATM   22  H   UNL     1      18.662  45.062  46.063  1.00  0.00     0.126 HD
ENDBRANCH  11  20
BRANCH   1  23
HETATM   23  C   UNL     1      23.237  50.185  48.067  1.00  0.00     0.029 C 
HETATM   24  C   UNL     1      24.755  50.120  47.884  1.00  0.00     0.016 C 
HETATM   25  C   UNL     1      22.863  51.111  49.224  1.00  0.00     0.016 C 
ENDBRANCH   1  23
TORSDOF 3
ENDMDL
MODEL 5
REMARK VINA RESULT:      -6.8      1.951      4.697
REMARK  3 active torsions:
REMARK  status: ('A' for Active; 'I' for Inactive)
REMARK    1  A    between atoms: C_2  and  C_3 
REMARK    2  A    between atoms: C_9  and  C_10 
REMARK    3  A    between atoms: C_20  and  N_21 
ROOT
HETATM    1  C   UNL     1      32.470  49.879  40.058  1.00  0.00     0.043 A 
HETATM    2  N   UNL     1      33.364  49.161  40.826  1.00  0.00    -0.279 N 
HETATM    3  H   UNL     1      34.265  49.463  41.180  1.00  0.00     0.189 HD
HETATM    4  N   UNL     1      32.976  47.896  41.078  1.00  0.00    -0.148 NA
HETATM    5  C   UNL     1      31.785  47.838  40.496  1.00  0.00     0.199 A 
HETATM    6  C   UNL     1      31.395  49.028  39.870  1.00  0.00     0.035 A 
HETATM    7  C   UNL     1      30.110  49.099  39.128  1.00  0.00     0.106 A 
HETATM    8  C   UNL     1      29.441  47.738  39.067  1.00  0.00     0.067 A 
HETATM    9  C   UNL     1      28.289  47.613  38.083  1.00  0.00     0.020 C 
HETATM   10  N   UNL     1      27.332  47.509  37.268  1.00  0.00    -0.096 N 
HETATM   11  C   UNL     1      29.918  46.639  39.706  1.00  0.00     0.139 A 
HETATM   12  O   UNL     1      31.082  46.689  40.491  1.00  0.00    -0.277 OA
ENDROOT
BRANCH   7  13
HETATM   13  C   UNL     1      29.267  50.209  39.746  1.00  0.00    -0.022 A 
HETATM   14  C   UNL     1      29.067  51.492  39.199  1.00  0.00     0.041 A 
HETATM   15 CL   UNL     1      29.773  52.016  37.715  1.00  0.00    -0.084 Cl
HETATM   16  C   UNL     1      28.273  52.438  39.863  1.00  0.00     0.024 A 
HETATM   17  C   UNL     1      27.676  52.134  41.084  1.00  0.00     0.002 A 
HETATM   18  C   UNL     1      27.872  50.883  41.651  1.00  0.00     0.001 A 
HETATM   19  C   UNL     1      28.658  49.933  40.992  1.00  0.00     0.010 A 
ENDBRANCH   7  13
BRANCH  11  20
HETATM   20  N   UNL     1      29.370  45.378  39.641  1.00  0.00    -0.282 NA
HETATM   21  H   UNL     1      28.491  45.241  40.133  1.00  0.00     0.126 HD
HETATM   22  H   UNL     1      29.367  45.011  38.692  1.00  0.00     0.126 HD
ENDBRANCH  11  20
BRANCH   1  23
HETATM   23  C   UNL     1      32.740  51.274  39.585  1.00  0.00     0.029 C 
HETATM   24  C   UNL     1      34.231  51.491  39.316  1.00  0.00     0.016 C 
HETATM   25  C   UNL     1      32.205  52.311  40.572  1.00  0.00     0.016 C 
ENDBRANCH   1  23
TORSDOF 3
ENDMDL
MODEL 6
REMARK VINA RESULT:      -6.7      2.775      4.593
REMARK  3 active torsions:
REMARK  status: ('A' for Active; 'I' for Inactive)
REMARK    1  A    between atoms: C_2  and  C_3 
REMARK    2  A    between atoms: C_9  and  C_10 
REMARK    3  A    between atoms: C_20  and  N_21 
ROOT
HETATM    1  C   UNL     1      29.445  48.136  40.255  1.00  0.00     0.043 A 
HETATM    2  N   UNL     1      28.417  47.401  40.810  1.00  0.00    -0.279 N 
HETATM    3  H   UNL     1      28.289  46.395  40.793  1.00  0.00     0.189 HD
HETATM    4  N   UNL     1      27.465  48.151  41.400  1.00  0.00    -0.148 NA
HETATM    5  C   UNL     1      27.936  49.382  41.254  1.00  0.00     0.199 A 
HETATM    6  C   UNL     1      29.163  49.451  40.583  1.00  0.00     0.035 A 
HETATM    7  C   UNL     1      29.789  50.767  40.297  1.00  0.00     0.106 A 
HETATM    8  C   UNL     1      28.871  51.906  40.704  1.00  0.00     0.067 A 
HETATM    9  C   UNL     1      29.258  53.282  40.185  1.00  0.00     0.020 C 
HETATM   10  N   UNL     1      29.578  54.423  39.756  1.00  0.00    -0.096 N 
HETATM   11  C   UNL     1      27.687  51.723  41.342  1.00  0.00     0.139 A 
HETATM   12  O   UNL     1      27.224  50.442  41.685  1.00  0.00    -0.277 OA
ENDROOT
BRANCH   7  13
HETATM   13  C   UNL     1      31.170  50.786  40.942  1.00  0.00    -0.022 A 
HETATM   14  C   UNL     1      32.393  50.952  40.263  1.00  0.00     0.041 A 
HETATM   15 CL   UNL     1      32.514  51.157  38.554  1.00  0.00    -0.084 Cl
HETATM   16  C   UNL     1      33.608  50.946  40.963  1.00  0.00     0.024 A 
HETATM   17  C   UNL     1      33.632  50.760  42.343  1.00  0.00     0.002 A 
HETATM   18  C   UNL     1      32.441  50.576  43.031  1.00  0.00     0.001 A 
HETATM   19  C   UNL     1      31.227  50.587  42.341  1.00  0.00     0.010 A 
ENDBRANCH   7  13
BRANCH  11  20
HETATM   20  N   UNL     1      26.805  52.721  41.688  1.00  0.00    -0.282 NA
HETATM   21  H   UNL     1      25.842  52.599  41.386  1.00  0.00     0.126 HD
HETATM   22  H   UNL     1      26.893  52.987  42.667  1.00  0.00     0.126 HD
ENDBRANCH  11  20
BRANCH   1  23
HETATM   23  C   UNL     1      30.562  47.513  39.476  1.00  0.00     0.029 C 
HETATM   24  C   UNL     1      30.116  46.210  38.811  1.00  0.00     0.016 C 
HETATM   25  C   UNL     1      31.795  47.289  40.351  1.00  0.00     0.016 C 
ENDBRANCH   1  23
TORSDOF 3
ENDMDL
MODEL 7
REMARK VINA RESULT:      -6.7     12.678     14.444
REMARK  3 active torsions:
REMARK  status: ('A' for Active; 'I' for Inactive)
REMARK    1  A    between atoms: C_2  and  C_3 
REMARK    2  A    between atoms: C_9  and  C_10 
REMARK    3  A    between atoms: C_20  and  N_21 
ROOT
HETATM    1  C   UNL     1      19.344  50.047  49.467  1.00  0.00     0.043 A 
HETATM    2  N   UNL     1      19.166  49.586  50.755  1.00  0.00    -0.279 N 
HETATM    3  H   UNL     1      19.450  50.031  51.622  1.00  0.00     0.189 HD
HETATM    4  N   UNL     1      18.579  48.376  50.828  1.00  0.00    -0.148 NA
HETATM    5  C   UNL     1      18.338  48.097  49.553  1.00  0.00     0.199 A 
HETATM    6  C   UNL     1      18.757  49.089  48.660  1.00  0.00     0.035 A 
HETATM    7  C   UNL     1      18.603  48.893  47.195  1.00  0.00     0.106 A 
HETATM    8  C   UNL     1      18.090  47.498  46.883  1.00  0.00     0.067 A 
HETATM    9  C   UNL     1      18.184  47.071  45.428  1.00  0.00     0.020 C 
HETATM   10  N   UNL     1      18.261  46.717  44.220  1.00  0.00    -0.096 N 
HETATM   11  C   UNL     1      17.723  46.605  47.837  1.00  0.00     0.139 A 
HETATM   12  O   UNL     1      17.786  46.917  49.205  1.00  0.00    -0.277 OA
ENDROOT
BRANCH   7  13
HETATM   13  C   UNL     1      17.752  50.034  46.651  1.00  0.00    -0.022 A 
HETATM   14  C   UNL     1      16.428  50.326  47.031  1.00  0.00     0.041 A 
HETATM   15 CL   UNL     1      15.544  49.406  48.192  1.00  0.00    -0.084 Cl
HETATM   16  C   UNL     1      15.738  51.403  46.455  1.00  0.00     0.024 A 
HETATM   17  C   UNL     1      16.342  52.198  45.485  1.00  0.00     0.002 A 
HETATM   18  C   UNL     1      17.641  51.919  45.082  1.00  0.00     0.001 A 
HETATM   19  C   UNL     1      18.336  50.851  45.655  1.00  0.00     0.010 A 
ENDBRANCH   7  13
BRANCH  11  20
HETATM   20  N   UNL     1      17.296  45.318  47.602  1.00  0.00    -0.282 NA
HETATM   21  H   UNL     1      17.228  45.034  46.629  1.00  0.00     0.126 HD
HETATM   22  H   UNL     1      17.779  44.641  48.190  1.00  0.00     0.126 HD
ENDBRANCH  11  20
BRANCH   1  23
HETATM   23  C   UNL     1      20.054  51.328  49.151  1.00  0.00     0.029 C 
HETATM   24  C   UNL     1      19.076  52.401  48.668  1.00  0.00     0.016 C 
HETATM   25  C   UNL     1      21.174  51.109  48.136  1.00  0.00     0.016 C 
ENDBRANCH   1  23
TORSDOF 3
ENDMDL
MODEL 8
REMARK VINA RESULT:      -6.5     10.122     11.412
REMARK  3 active torsions:
REMARK  status: ('A' for Active; 'I' for Inactive)
REMARK    1  A    between atoms: C_2  and  C_3 
REMARK    2  A    between atoms: C_9  and  C_10 
REMARK    3  A    between atoms: C_20  and  N_21 
ROOT
HETATM    1  C   UNL     1      24.265  44.679  48.711  1.00  0.00     0.043 A 
HETATM    2  N   UNL     1      24.739  43.431  48.363  1.00  0.00    -0.279 N 
HETATM    3  H   UNL     1      24.437  42.840  47.597  1.00  0.00     0.189 HD
HETATM    4  N   UNL     1      25.690  42.955  49.192  1.00  0.00    -0.148 NA
HETATM    5  C   UNL     1      25.849  43.955  50.050  1.00  0.00     0.199 A 
HETATM    6  C   UNL     1      25.026  45.059  49.803  1.00  0.00     0.035 A 
HETATM    7  C   UNL     1      25.053  46.233  50.713  1.00  0.00     0.106 A 
HETATM    8  C   UNL     1      25.946  45.972  51.913  1.00  0.00     0.067 A 
HETATM    9  C   UNL     1      25.816  46.961  53.060  1.00  0.00     0.020 C 
HETATM   10  N   UNL     1      25.709  47.782  54.011  1.00  0.00    -0.096 N 
HETATM   11  C   UNL     1      26.695  44.849  52.058  1.00  0.00     0.139 A 
HETATM   12  O   UNL     1      26.704  43.836  51.085  1.00  0.00    -0.277 OA
ENDROOT
BRANCH   7  13
HETATM   13  C   UNL     1      25.417  47.463  49.890  1.00  0.00    -0.022 A 
HETATM   14  C   UNL     1      24.507  48.404  49.368  1.00  0.00     0.041 A 
HETATM   15 CL   UNL     1      22.798  48.296  49.582  1.00  0.00    -0.084 Cl
HETATM   16  C   UNL     1      24.959  49.498  48.616  1.00  0.00     0.024 A 
HETATM   17  C   UNL     1      26.316  49.670  48.356  1.00  0.00     0.002 A 
HETATM   18  C   UNL     1      27.230  48.747  48.845  1.00  0.00     0.001 A 
HETATM   19  C   UNL     1      26.788  47.658  49.600  1.00  0.00     0.010 A 
ENDBRANCH   7  13
BRANCH  11  20
HETATM   20  N   UNL     1      27.482  44.551  53.147  1.00  0.00    -0.282 NA
HETATM   21  H   UNL     1      28.486  44.650  53.022  1.00  0.00     0.126 HD
HETATM   22  H   UNL     1      27.134  44.985  54.000  1.00  0.00     0.126 HD
ENDBRANCH  11  20
BRANCH   1  23
HETATM   23  C   UNL     1      23.148  45.358  47.981  1.00  0.00     0.029 C 
HETATM   24  C   UNL     1      21.816  45.180  48.714  1.00  0.00     0.016 C 
HETATM   25  C   UNL     1      23.048  44.870  46.537  1.00  0.00     0.016 C 
ENDBRANCH   1  23
TORSDOF 3
ENDMDL
MODEL 9
REMARK VINA RESULT:      -6.4     12.208     14.306
REMARK  3 active torsions:
REMARK  status: ('A' for Active; 'I' for Inactive)
REMARK    1  A    between atoms: C_2  and  C_3 
REMARK    2  A    between atoms: C_9  and  C_10 
REMARK    3  A    between atoms: C_20  and  N_21 
ROOT
HETATM    1  C   UNL     1      20.168  49.392  48.416  1.00  0.00     0.043 A 
HETATM    2  N   UNL     1      20.642  48.661  49.486  1.00  0.00    -0.279 N 
HETATM    3  H   UNL     1      21.358  48.925  50.154  1.00  0.00     0.189 HD
HETATM    4  N   UNL     1      20.091  47.437  49.600  1.00  0.00    -0.148 NA
HETATM    5  C   UNL     1      19.213  47.423  48.605  1.00  0.00     0.199 A 
HETATM    6  C   UNL     1      19.186  48.600  47.848  1.00  0.00     0.035 A 
HETATM    7  C   UNL     1      18.292  48.711  46.666  1.00  0.00     0.106 A 
HETATM    8  C   UNL     1      17.595  47.392  46.385  1.00  0.00     0.067 A 
HETATM    9  C   UNL     1      16.902  47.288  45.036  1.00  0.00     0.020 C 
HETATM   10  N   UNL     1      16.326  47.201  43.918  1.00  0.00    -0.096 N 
HETATM   11  C   UNL     1      17.705  46.301  47.184  1.00  0.00     0.139 A 
HETATM   12  O   UNL     1      18.480  46.320  48.356  1.00  0.00    -0.277 OA
ENDROOT
BRANCH   7  13
HETATM   13  C   UNL     1      17.365  49.901  46.884  1.00  0.00    -0.022 A 
HETATM   14  C   UNL     1      17.244  51.018  46.033  1.00  0.00     0.041 A 
HETATM   15 CL   UNL     1      18.160  51.215  44.585  1.00  0.00    -0.084 Cl
HETATM   16  C   UNL     1      16.358  52.060  46.340  1.00  0.00     0.024 A 
HETATM   17  C   UNL     1      15.589  52.022  47.499  1.00  0.00     0.002 A 
HETATM   18  C   UNL     1      15.702  50.940  48.362  1.00  0.00     0.001 A 
HETATM   19  C   UNL     1      16.578  49.895  48.060  1.00  0.00     0.010 A 
ENDBRANCH   7  13
BRANCH  11  20
HETATM   20  N   UNL     1      17.129  45.075  46.944  1.00  0.00    -0.282 NA
HETATM   21  H   UNL     1      16.999  44.819  45.969  1.00  0.00     0.126 HD
HETATM   22  H   UNL     1      17.551  44.337  47.505  1.00  0.00     0.126 HD
ENDBRANCH  11  20
BRANCH   1  23
HETATM   23  C   UNL     1      20.705  50.742  48.051  1.00  0.00     0.029 C 
HETATM   24  C   UNL     1      22.163  50.896  48.486  1.00  0.00     0.016 C 
HETATM   25  C   UNL     1      19.839  51.861  48.628  1.00  0.00     0.016 C 
ENDBRANCH   1  23
TORSDOF 3
ENDMDL
MODEL 10
REMARK VINA RESULT:      -6.4      2.254      5.089
REMARK  3 active torsions:
REMARK  status: ('A' for Active; 'I' for Inactive)
REMARK    1  A    between atoms: C_2  and  C_3 
REMARK    2  A    between atoms: C_9  and  C_10 
REMARK    3  A    between atoms: C_20  and  N_21 
ROOT
HETATM    1  C   UNL     1      33.788  51.650  40.729  1.00  0.00     0.043 A 
HETATM    2  N   UNL     1      34.414  51.974  41.915  1.00  0.00    -0.279 N 
HETATM    3  H   UNL     1      35.222  52.571  42.051  1.00  0.00     0.189 HD
HETATM    4  N   UNL     1      33.884  51.369  42.996  1.00  0.00    -0.148 NA
HETATM    5  C   UNL     1      32.869  50.690  42.478  1.00  0.00     0.199 A 
HETATM    6  C   UNL     1      32.731  50.834  41.092  1.00  0.00     0.035 A 
HETATM    7  C   UNL     1      31.672  50.090  40.362  1.00  0.00     0.106 A 
HETATM    8  C   UNL     1      30.940  49.137  41.289  1.00  0.00     0.067 A 
HETATM    9  C   UNL     1      30.054  48.106  40.609  1.00  0.00     0.020 C 
HETATM   10  N   UNL     1      29.319  47.251  40.045  1.00  0.00    -0.096 N 
HETATM   11  C   UNL     1      31.166  49.070  42.626  1.00  0.00     0.139 A 
HETATM   12  O   UNL     1      32.106  49.900  43.259  1.00  0.00    -0.277 OA
ENDROOT
BRANCH   7  13
HETATM   13  C   UNL     1      30.789  51.104  39.645  1.00  0.00    -0.022 A 
HETATM   14  C   UNL     1      29.969  52.066  40.267  1.00  0.00     0.041 A 
HETATM   15 CL   UNL     1      29.830  52.238  41.978  1.00  0.00    -0.084 Cl
HETATM   16  C   UNL     1      29.191  52.947  39.502  1.00  0.00     0.024 A 
HETATM   17  C   UNL     1      29.202  52.880  38.111  1.00  0.00     0.002 A 
HETATM   18  C   UNL     1      29.989  51.930  37.476  1.00  0.00     0.001 A 
HETATM   19  C   UNL     1      30.771  51.053  38.232  1.00  0.00     0.010 A 
ENDBRANCH   7  13
BRANCH  11  20
HETATM   20  N   UNL     1      30.559  48.191  43.495  1.00  0.00    -0.282 NA
HETATM   21  H   UNL     1      29.769  48.550  44.023  1.00  0.00     0.126 HD
HETATM   22  H   UNL     1      30.382  47.287  43.062  1.00  0.00     0.126 HD
ENDBRANCH  11  20
BRANCH   1  23
HETATM   23  C   UNL     1      34.266  52.139  39.396  1.00  0.00     0.029 C 
HETATM   24  C   UNL     1      35.665  51.607  39.079  1.00  0.00     0.016 C 
HETATM   25  C   UNL     1      34.228  53.664  39.315  1.00  0.00     0.016 C 
ENDBRANCH   1  23
TORSDOF 3
ENDMDL
