MODEL 1
REMARK VINA RESULT:     -10.3      0.000      0.000
REMARK  7 active torsions:
REMARK  status: ('A' for Active; 'I' for Inactive)
REMARK    1  A    between atoms: C_3  and  N_4 
REMARK       I    between atoms: N_4  and  C_5 
REMARK    2  A    between atoms: C_5  and  C_6 
REMARK    3  A    between atoms: C_6  and  N_7 
REMARK    4  A    between atoms: N_10  and  C_11 
REMARK    5  A    between atoms: C_11  and  C_12 
REMARK    6  A    between atoms: C_27  and  C_28 
REMARK       I    between atoms: C_28  and  N_29 
REMARK    7  A    between atoms: N_29  and  C_30 
ROOT
HETATM    1  N   UNL     1      24.389  44.309  50.332  1.00  0.00    -0.290 N 
HETATM    2  C   UNL     1      24.450  42.936  50.088  1.00  0.00     0.332 C 
HETATM    3  O   UNL     1      24.724  42.145  50.997  1.00  0.00    -0.246 OA
HETATM    4  N   UNL     1      24.154  42.509  48.803  1.00  0.00    -0.261 N 
HETATM    5  C   UNL     1      23.573  43.306  47.833  1.00  0.00     0.264 C 
HETATM    6  O   UNL     1      23.224  42.904  46.725  1.00  0.00    -0.267 OA
HETATM    7  C   UNL     1      23.328  44.714  48.187  1.00  0.00     0.059 A 
HETATM    8  C   UNL     1      23.781  45.206  49.410  1.00  0.00     0.056 A 
HETATM    9  C   UNL     1      22.607  45.528  47.296  1.00  0.00     0.020 A 
HETATM   10  C   UNL     1      22.333  46.858  47.614  1.00  0.00     0.018 A 
HETATM   11  C   UNL     1      22.817  47.390  48.810  1.00  0.00     0.034 A 
HETATM   12  C   UNL     1      23.548  46.563  49.689  1.00  0.00     0.048 A 
ENDROOT
BRANCH   1  13
HETATM   13  C   UNL     1      24.729  44.700  51.699  1.00  0.00     0.237 C 
BRANCH  13  14
HETATM   14  C   UNL     1      26.252  44.784  51.930  1.00  0.00     0.240 C 
HETATM   15  N   UNL     1      26.704  43.775  52.763  1.00  0.00    -0.323 N 
HETATM   16  H   UNL     1      26.048  43.038  53.006  1.00  0.00     0.169 HD
HETATM   17  O   UNL     1      26.929  45.690  51.450  1.00  0.00    -0.271 OA
BRANCH  15  18
HETATM   18  C   UNL     1      28.007  43.558  53.257  1.00  0.00     0.073 A 
HETATM   19  C   UNL     1      29.017  42.883  52.574  1.00  0.00     0.033 A 
HETATM   20  C   UNL     1      30.282  42.738  53.160  1.00  0.00     0.002 A 
HETATM   21  C   UNL     1      30.547  43.266  54.427  1.00  0.00     0.003 A 
HETATM   22  C   UNL     1      29.545  43.941  55.116  1.00  0.00     0.044 A 
HETATM   23  C   UNL     1      28.291  44.078  54.529  1.00  0.00     0.143 A 
HETATM   24  F   UNL     1      27.331  44.737  55.199  1.00  0.00    -0.204 F 
ENDBRANCH  15  18
ENDBRANCH  13  14
ENDBRANCH   1  13
BRANCH   4  25
HETATM   25  C   UNL     1      24.293  41.084  48.522  1.00  0.00     0.175 C 
BRANCH  25  26
HETATM   26  C   UNL     1      25.733  40.610  48.514  1.00  0.00    -0.037 A 
HETATM   27  C   UNL     1      26.136  39.519  49.302  1.00  0.00     0.048 A 
HETATM   28  C   UNL     1      27.462  39.140  49.254  1.00  0.00     0.105 A 
HETATM   29  C   UNL     1      28.382  39.802  48.474  1.00  0.00     0.105 A 
HETATM   30  O   UNL     1      28.018  38.105  49.941  1.00  0.00    -0.323 OA
HETATM   31  O   UNL     1      29.629  39.271  48.573  1.00  0.00    -0.323 OA
HETATM   32  C   UNL     1      28.028  40.882  47.697  1.00  0.00     0.040 A 
HETATM   33  C   UNL     1      29.383  38.176  49.480  1.00  0.00     0.352 A 
HETATM   34  C   UNL     1      26.690  41.286  47.719  1.00  0.00     0.012 A 
ENDBRANCH  25  26
ENDBRANCH   4  25
BRANCH  11  35
HETATM   35  C   UNL     1      22.553  48.796  49.246  1.00  0.00     0.252 C 
HETATM   36  N   UNL     1      21.239  49.207  49.342  1.00  0.00    -0.352 N 
HETATM   37  H   UNL     1      20.491  48.599  49.042  1.00  0.00     0.163 HD
HETATM   38  O   UNL     1      23.502  49.536  49.489  1.00  0.00    -0.268 OA
BRANCH  36  39
HETATM   39  C   UNL     1      20.897  50.581  49.708  1.00  0.00     0.084 C 
HETATM   40  C   UNL     1      20.704  51.449  48.456  1.00  0.00     0.025 C 
HETATM   41  C   UNL     1      19.393  51.157  47.723  1.00  0.00     0.002 C 
HETATM   42  C   UNL     1      18.193  51.252  48.657  1.00  0.00     0.000 C 
HETATM   43  C   UNL     1      18.359  50.347  49.873  1.00  0.00     0.002 C 
HETATM   44  C   UNL     1      19.660  50.643  50.618  1.00  0.00     0.025 C 
ENDBRANCH  36  39
ENDBRANCH  11  35
TORSDOF 7
ENDMDL
MODEL 2
REMARK VINA RESULT:     -10.1      2.533     10.054
REMARK  7 active torsions:
REMARK  status: ('A' for Active; 'I' for Inactive)
REMARK    1  A    between atoms: C_3  and  N_4 
REMARK       I    between atoms: N_4  and  C_5 
REMARK    2  A    between atoms: C_5  and  C_6 
REMARK    3  A    between atoms: C_6  and  N_7 
REMARK    4  A    between atoms: N_10  and  C_11 
REMARK    5  A    between atoms: C_11  and  C_12 
REMARK    6  A    between atoms: C_27  and  C_28 
REMARK       I    between atoms: C_28  and  N_29 
REMARK    7  A    between atoms: N_29  and  C_30 
ROOT
HETATM    1  N   UNL     1      22.726  46.424  48.643  1.00  0.00    -0.290 N 
HETATM    2  C   UNL     1      22.202  47.596  48.098  1.00  0.00     0.332 C 
HETATM    3  O   UNL     1      21.071  47.611  47.600  1.00  0.00    -0.246 OA
HETATM    4  N   UNL     1      22.986  48.736  48.176  1.00  0.00    -0.261 N 
HETATM    5  C   UNL     1      24.120  48.846  48.961  1.00  0.00     0.264 C 
HETATM    6  O   UNL     1      24.764  49.883  49.105  1.00  0.00    -0.267 OA
HETATM    7  C   UNL     1      24.543  47.641  49.694  1.00  0.00     0.059 A 
HETATM    8  C   UNL     1      23.869  46.438  49.489  1.00  0.00     0.056 A 
HETATM    9  C   UNL     1      25.597  47.737  50.619  1.00  0.00     0.020 A 
HETATM   10  C   UNL     1      26.002  46.621  51.352  1.00  0.00     0.018 A 
HETATM   11  C   UNL     1      25.378  45.393  51.131  1.00  0.00     0.034 A 
HETATM   12  C   UNL     1      24.327  45.311  50.191  1.00  0.00     0.048 A 
ENDROOT
BRANCH   1  13
HETATM   13  C   UNL     1      21.860  45.252  48.514  1.00  0.00     0.237 C 
BRANCH  13  14
HETATM   14  C   UNL     1      22.462  44.169  47.595  1.00  0.00     0.240 C 
HETATM   15  N   UNL     1      22.596  42.955  48.247  1.00  0.00    -0.323 N 
HETATM   16  H   UNL     1      22.173  42.867  49.166  1.00  0.00     0.169 HD
HETATM   17  O   UNL     1      22.813  44.420  46.444  1.00  0.00    -0.271 OA
BRANCH  15  18
HETATM   18  C   UNL     1      23.161  41.755  47.768  1.00  0.00     0.073 A 
HETATM   19  C   UNL     1      22.553  40.895  46.856  1.00  0.00     0.033 A 
HETATM   20  C   UNL     1      23.218  39.733  46.440  1.00  0.00     0.002 A 
HETATM   21  C   UNL     1      24.490  39.424  46.929  1.00  0.00     0.003 A 
HETATM   22  C   UNL     1      25.105  40.277  47.839  1.00  0.00     0.044 A 
HETATM   23  C   UNL     1      24.437  41.427  48.250  1.00  0.00     0.143 A 
HETATM   24  F   UNL     1      25.042  42.249  49.124  1.00  0.00    -0.204 F 
ENDBRANCH  15  18
ENDBRANCH  13  14
ENDBRANCH   1  13
BRANCH   4  25
HETATM   25  C   UNL     1      22.478  49.945  47.539  1.00  0.00     0.175 C 
BRANCH  25  26
HETATM   26  C   UNL     1      21.282  50.543  48.252  1.00  0.00    -0.037 A 
HETATM   27  C   UNL     1      20.132  50.921  47.538  1.00  0.00     0.048 A 
HETATM   28  C   UNL     1      19.079  51.463  48.245  1.00  0.00     0.105 A 
HETATM   29  C   UNL     1      19.134  51.648  49.608  1.00  0.00     0.105 A 
HETATM   30  O   UNL     1      17.893  51.872  47.717  1.00  0.00    -0.323 OA
HETATM   31  O   UNL     1      17.994  52.196  50.106  1.00  0.00    -0.323 OA
HETATM   32  C   UNL     1      20.246  51.300  50.341  1.00  0.00     0.040 A 
HETATM   33  C   UNL     1      17.201  52.306  48.906  1.00  0.00     0.352 A 
HETATM   34  C   UNL     1      21.327  50.742  49.654  1.00  0.00     0.012 A 
ENDBRANCH  25  26
ENDBRANCH   4  25
BRANCH  11  35
HETATM   35  C   UNL     1      25.727  44.150  51.884  1.00  0.00     0.252 C 
HETATM   36  N   UNL     1      27.057  43.928  52.183  1.00  0.00    -0.352 N 
HETATM   37  H   UNL     1      27.770  44.546  51.825  1.00  0.00     0.163 HD
HETATM   38  O   UNL     1      24.835  43.369  52.199  1.00  0.00    -0.268 OA
BRANCH  36  39
HETATM   39  C   UNL     1      27.489  42.711  52.868  1.00  0.00     0.084 C 
HETATM   40  C   UNL     1      28.831  42.216  52.310  1.00  0.00     0.025 C 
HETATM   41  C   UNL     1      30.017  43.072  52.758  1.00  0.00     0.002 C 
HETATM   42  C   UNL     1      30.064  43.217  54.275  1.00  0.00     0.000 C 
HETATM   43  C   UNL     1      28.750  43.762  54.824  1.00  0.00     0.002 C 
HETATM   44  C   UNL     1      27.563  42.904  54.391  1.00  0.00     0.025 C 
ENDBRANCH  36  39
ENDBRANCH  11  35
TORSDOF 7
ENDMDL
MODEL 3
REMARK VINA RESULT:     -10.0      2.315      9.519
REMARK  7 active torsions:
REMARK  status: ('A' for Active; 'I' for Inactive)
REMARK    1  A    between atoms: C_3  and  N_4 
REMARK       I    between atoms: N_4  and  C_5 
REMARK    2  A    between atoms: C_5  and  C_6 
REMARK    3  A    between atoms: C_6  and  N_7 
REMARK    4  A    between atoms: N_10  and  C_11 
REMARK    5  A    between atoms: C_11  and  C_12 
REMARK    6  A    between atoms: C_27  and  C_28 
REMARK       I    between atoms: C_28  and  N_29 
REMARK    7  A    between atoms: N_29  and  C_30 
ROOT
HETATM    1  N   UNL     1      23.192  45.145  49.362  1.00  0.00    -0.290 N 
HETATM    2  C   UNL     1      22.455  46.010  48.553  1.00  0.00     0.332 C 
HETATM    3  O   UNL     1      21.507  45.591  47.880  1.00  0.00    -0.246 OA
HETATM    4  N   UNL     1      22.811  47.349  48.570  1.00  0.00    -0.261 N 
HETATM    5  C   UNL     1      23.663  47.914  49.502  1.00  0.00     0.264 C 
HETATM    6  O   UNL     1      23.906  49.117  49.577  1.00  0.00    -0.267 OA
HETATM    7  C   UNL     1      24.277  47.004  50.484  1.00  0.00     0.059 A 
HETATM    8  C   UNL     1      24.070  45.630  50.371  1.00  0.00     0.056 A 
HETATM    9  C   UNL     1      25.030  47.544  51.540  1.00  0.00     0.020 A 
HETATM   10  C   UNL     1      25.598  46.711  52.504  1.00  0.00     0.018 A 
HETATM   11  C   UNL     1      25.449  45.328  52.388  1.00  0.00     0.034 A 
HETATM   12  C   UNL     1      24.699  44.801  51.315  1.00  0.00     0.048 A 
ENDROOT
BRANCH   1  13
HETATM   13  C   UNL     1      22.782  43.743  49.287  1.00  0.00     0.237 C 
BRANCH  13  14
HETATM   14  C   UNL     1      23.711  42.902  48.388  1.00  0.00     0.240 C 
HETATM   15  N   UNL     1      24.567  42.106  49.130  1.00  0.00    -0.323 N 
HETATM   16  H   UNL     1      24.406  42.051  50.132  1.00  0.00     0.169 HD
HETATM   17  O   UNL     1      23.689  43.002  47.163  1.00  0.00    -0.271 OA
BRANCH  15  18
HETATM   18  C   UNL     1      25.597  41.256  48.676  1.00  0.00     0.073 A 
HETATM   19  C   UNL     1      25.406  40.122  47.890  1.00  0.00     0.033 A 
HETATM   20  C   UNL     1      26.509  39.357  47.485  1.00  0.00     0.002 A 
HETATM   21  C   UNL     1      27.806  39.720  47.860  1.00  0.00     0.003 A 
HETATM   22  C   UNL     1      28.005  40.851  48.644  1.00  0.00     0.044 A 
HETATM   23  C   UNL     1      26.905  41.603  49.045  1.00  0.00     0.143 A 
HETATM   24  F   UNL     1      27.108  42.698  49.797  1.00  0.00    -0.204 F 
ENDBRANCH  15  18
ENDBRANCH  13  14
ENDBRANCH   1  13
BRANCH   4  25
HETATM   25  C   UNL     1      22.097  48.245  47.667  1.00  0.00     0.175 C 
BRANCH  25  26
HETATM   26  C   UNL     1      20.969  49.002  48.340  1.00  0.00    -0.037 A 
HETATM   27  C   UNL     1      20.815  50.385  48.147  1.00  0.00     0.048 A 
HETATM   28  C   UNL     1      19.771  51.017  48.790  1.00  0.00     0.105 A 
HETATM   29  C   UNL     1      18.902  50.337  49.611  1.00  0.00     0.105 A 
HETATM   30  O   UNL     1      19.471  52.342  48.707  1.00  0.00    -0.323 OA
HETATM   31  O   UNL     1      17.949  51.145  50.147  1.00  0.00    -0.323 OA
HETATM   32  C   UNL     1      19.026  48.984  49.834  1.00  0.00     0.040 A 
HETATM   33  C   UNL     1      18.298  52.408  49.544  1.00  0.00     0.352 A 
HETATM   34  C   UNL     1      20.070  48.314  49.190  1.00  0.00     0.012 A 
ENDBRANCH  25  26
ENDBRANCH   4  25
BRANCH  11  35
HETATM   35  C   UNL     1      26.003  44.360  53.383  1.00  0.00     0.252 C 
HETATM   36  N   UNL     1      27.347  44.052  53.308  1.00  0.00    -0.352 N 
HETATM   37  H   UNL     1      27.909  44.408  52.549  1.00  0.00     0.163 HD
HETATM   38  O   UNL     1      25.253  43.863  54.218  1.00  0.00    -0.268 OA
BRANCH  36  39
HETATM   39  C   UNL     1      27.955  43.074  54.208  1.00  0.00     0.084 C 
HETATM   40  C   UNL     1      27.679  41.642  53.727  1.00  0.00     0.025 C 
HETATM   41  C   UNL     1      28.508  41.255  52.501  1.00  0.00     0.002 C 
HETATM   42  C   UNL     1      29.996  41.489  52.730  1.00  0.00     0.000 C 
HETATM   43  C   UNL     1      30.276  42.927  53.155  1.00  0.00     0.002 C 
HETATM   44  C   UNL     1      29.462  43.316  54.387  1.00  0.00     0.025 C 
ENDBRANCH  36  39
ENDBRANCH  11  35
TORSDOF 7
ENDMDL
MODEL 4
REMARK VINA RESULT:     -10.0      3.444     10.206
REMARK  7 active torsions:
REMARK  status: ('A' for Active; 'I' for Inactive)
REMARK    1  A    between atoms: C_3  and  N_4 
REMARK       I    between atoms: N_4  and  C_5 
REMARK    2  A    between atoms: C_5  and  C_6 
REMARK    3  A    between atoms: C_6  and  N_7 
REMARK    4  A    between atoms: N_10  and  C_11 
REMARK    5  A    between atoms: C_11  and  C_12 
REMARK    6  A    between atoms: C_27  and  C_28 
REMARK       I    between atoms: C_28  and  N_29 
REMARK    7  A    between atoms: N_29  and  C_30 
ROOT
HETATM    1  N   UNL     1      23.191  46.988  49.056  1.00  0.00    -0.290 N 
HETATM    2  C   UNL     1      22.377  46.973  47.923  1.00  0.00     0.332 C 
HETATM    3  O   UNL     1      22.335  47.946  47.163  1.00  0.00    -0.246 OA
HETATM    4  N   UNL     1      21.658  45.814  47.677  1.00  0.00    -0.261 N 
HETATM    5  C   UNL     1      21.879  44.611  48.323  1.00  0.00     0.264 C 
HETATM    6  O   UNL     1      21.307  43.559  48.041  1.00  0.00    -0.267 OA
HETATM    7  C   UNL     1      22.896  44.602  49.387  1.00  0.00     0.059 A 
HETATM    8  C   UNL     1      23.503  45.797  49.770  1.00  0.00     0.056 A 
HETATM    9  C   UNL     1      23.265  43.378  49.972  1.00  0.00     0.020 A 
HETATM   10  C   UNL     1      24.247  43.332  50.961  1.00  0.00     0.018 A 
HETATM   11  C   UNL     1      24.836  44.519  51.398  1.00  0.00     0.034 A 
HETATM   12  C   UNL     1      24.447  45.741  50.808  1.00  0.00     0.048 A 
ENDROOT
BRANCH   1  13
HETATM   13  C   UNL     1      23.910  48.243  49.273  1.00  0.00     0.237 C 
BRANCH  13  14
HETATM   14  C   UNL     1      22.960  49.445  49.457  1.00  0.00     0.240 C 
HETATM   15  N   UNL     1      21.637  49.047  49.554  1.00  0.00    -0.323 N 
HETATM   16  H   UNL     1      21.452  48.052  49.636  1.00  0.00     0.169 HD
HETATM   17  O   UNL     1      23.374  50.602  49.459  1.00  0.00    -0.271 OA
BRANCH  15  18
HETATM   18  C   UNL     1      20.482  49.848  49.661  1.00  0.00     0.073 A 
HETATM   19  C   UNL     1      20.457  51.235  49.524  1.00  0.00     0.033 A 
HETATM   20  C   UNL     1      19.243  51.927  49.638  1.00  0.00     0.002 A 
HETATM   21  C   UNL     1      18.050  51.242  49.885  1.00  0.00     0.003 A 
HETATM   22  C   UNL     1      18.066  49.858  50.022  1.00  0.00     0.044 A 
HETATM   23  C   UNL     1      19.275  49.179  49.912  1.00  0.00     0.143 A 
HETATM   24  F   UNL     1      19.280  47.840  50.039  1.00  0.00    -0.204 F 
ENDBRANCH  15  18
ENDBRANCH  13  14
ENDBRANCH   1  13
BRANCH   4  25
HETATM   25  C   UNL     1      20.746  45.820  46.539  1.00  0.00     0.175 C 
BRANCH  25  26
HETATM   26  C   UNL     1      19.365  46.345  46.878  1.00  0.00    -0.037 A 
HETATM   27  C   UNL     1      18.931  47.591  46.398  1.00  0.00     0.048 A 
HETATM   28  C   UNL     1      17.664  48.015  46.746  1.00  0.00     0.105 A 
HETATM   29  C   UNL     1      16.838  47.260  47.548  1.00  0.00     0.105 A 
HETATM   30  O   UNL     1      17.084  49.184  46.363  1.00  0.00    -0.323 OA
HETATM   31  O   UNL     1      15.638  47.859  47.770  1.00  0.00    -0.323 OA
HETATM   32  C   UNL     1      17.231  46.039  48.046  1.00  0.00     0.040 A 
HETATM   33  C   UNL     1      15.790  49.063  46.990  1.00  0.00     0.352 A 
HETATM   34  C   UNL     1      18.506  45.580  47.705  1.00  0.00     0.012 A 
ENDBRANCH  25  26
ENDBRANCH   4  25
BRANCH  11  35
HETATM   35  C   UNL     1      25.911  44.565  52.435  1.00  0.00     0.252 C 
HETATM   36  N   UNL     1      26.453  43.368  52.858  1.00  0.00    -0.352 N 
HETATM   37  H   UNL     1      26.069  42.492  52.536  1.00  0.00     0.163 HD
HETATM   38  O   UNL     1      26.266  45.652  52.883  1.00  0.00    -0.268 OA
BRANCH  36  39
HETATM   39  C   UNL     1      27.470  43.323  53.907  1.00  0.00     0.084 C 
HETATM   40  C   UNL     1      27.767  41.873  54.320  1.00  0.00     0.025 C 
HETATM   41  C   UNL     1      28.589  41.112  53.279  1.00  0.00     0.002 C 
HETATM   42  C   UNL     1      29.866  41.859  52.915  1.00  0.00     0.000 C 
HETATM   43  C   UNL     1      29.568  43.281  52.451  1.00  0.00     0.002 C 
HETATM   44  C   UNL     1      28.758  44.052  53.493  1.00  0.00     0.025 C 
ENDBRANCH  36  39
ENDBRANCH  11  35
TORSDOF 7
ENDMDL
MODEL 5
REMARK VINA RESULT:      -9.8      2.276      9.246
REMARK  7 active torsions:
REMARK  status: ('A' for Active; 'I' for Inactive)
REMARK    1  A    between atoms: C_3  and  N_4 
REMARK       I    between atoms: N_4  and  C_5 
REMARK    2  A    between atoms: C_5  and  C_6 
REMARK    3  A    between atoms: C_6  and  N_7 
REMARK    4  A    between atoms: N_10  and  C_11 
REMARK    5  A    between atoms: C_11  and  C_12 
REMARK    6  A    between atoms: C_27  and  C_28 
REMARK       I    between atoms: C_28  and  N_29 
REMARK    7  A    between atoms: N_29  and  C_30 
ROOT
HETATM    1  N   UNL     1      24.296  47.310  49.236  1.00  0.00    -0.290 N 
HETATM    2  C   UNL     1      24.038  48.618  48.825  1.00  0.00     0.332 C 
HETATM    3  O   UNL     1      24.916  49.485  48.893  1.00  0.00    -0.246 OA
HETATM    4  N   UNL     1      22.780  48.882  48.308  1.00  0.00    -0.261 N 
HETATM    5  C   UNL     1      21.867  47.907  47.948  1.00  0.00     0.264 C 
HETATM    6  O   UNL     1      20.789  48.135  47.403  1.00  0.00    -0.267 OA
HETATM    7  C   UNL     1      22.249  46.508  48.207  1.00  0.00     0.059 A 
HETATM    8  C   UNL     1      23.434  46.233  48.888  1.00  0.00     0.056 A 
HETATM    9  C   UNL     1      21.427  45.474  47.727  1.00  0.00     0.020 A 
HETATM   10  C   UNL     1      21.776  44.139  47.929  1.00  0.00     0.018 A 
HETATM   11  C   UNL     1      22.930  43.835  48.651  1.00  0.00     0.034 A 
HETATM   12  C   UNL     1      23.740  44.884  49.135  1.00  0.00     0.048 A 
ENDROOT
BRANCH   1  13
HETATM   13  C   UNL     1      25.633  47.097  49.789  1.00  0.00     0.237 C 
BRANCH  13  14
HETATM   14  C   UNL     1      25.603  46.740  51.290  1.00  0.00     0.240 C 
HETATM   15  N   UNL     1      26.106  45.472  51.529  1.00  0.00    -0.323 N 
HETATM   16  H   UNL     1      26.554  44.992  50.754  1.00  0.00     0.169 HD
HETATM   17  O   UNL     1      25.130  47.505  52.127  1.00  0.00    -0.271 OA
BRANCH  15  18
HETATM   18  C   UNL     1      26.183  44.770  52.750  1.00  0.00     0.073 A 
HETATM   19  C   UNL     1      25.140  44.646  53.665  1.00  0.00     0.033 A 
HETATM   20  C   UNL     1      25.328  43.910  54.844  1.00  0.00     0.002 A 
HETATM   21  C   UNL     1      26.553  43.294  55.114  1.00  0.00     0.003 A 
HETATM   22  C   UNL     1      27.599  43.412  54.205  1.00  0.00     0.044 A 
HETATM   23  C   UNL     1      27.406  44.147  53.039  1.00  0.00     0.143 A 
HETATM   24  F   UNL     1      28.420  44.250  52.163  1.00  0.00    -0.204 F 
ENDBRANCH  15  18
ENDBRANCH  13  14
ENDBRANCH   1  13
BRANCH   4  25
HETATM   25  C   UNL     1      22.479  50.264  47.949  1.00  0.00     0.175 C 
BRANCH  25  26
HETATM   26  C   UNL     1      21.215  50.791  48.598  1.00  0.00    -0.037 A 
HETATM   27  C   UNL     1      20.162  51.298  47.818  1.00  0.00     0.048 A 
HETATM   28  C   UNL     1      19.040  51.766  48.470  1.00  0.00     0.105 A 
HETATM   29  C   UNL     1      18.936  51.758  49.842  1.00  0.00     0.105 A 
HETATM   30  O   UNL     1      17.930  52.280  47.872  1.00  0.00    -0.323 OA
HETATM   31  O   UNL     1      17.753  52.264  50.279  1.00  0.00    -0.323 OA
HETATM   32  C   UNL     1      19.950  51.279  50.641  1.00  0.00     0.040 A 
HETATM   33  C   UNL     1      17.108  52.563  49.024  1.00  0.00     0.352 A 
HETATM   34  C   UNL     1      21.097  50.791  50.010  1.00  0.00     0.012 A 
ENDBRANCH  25  26
ENDBRANCH   4  25
BRANCH  11  35
HETATM   35  C   UNL     1      23.396  42.435  48.897  1.00  0.00     0.252 C 
HETATM   36  N   UNL     1      24.711  42.248  49.272  1.00  0.00    -0.352 N 
HETATM   37  H   UNL     1      25.352  43.028  49.292  1.00  0.00     0.163 HD
HETATM   38  O   UNL     1      22.608  41.506  48.748  1.00  0.00    -0.268 OA
BRANCH  36  39
HETATM   39  C   UNL     1      25.260  40.909  49.479  1.00  0.00     0.084 C 
HETATM   40  C   UNL     1      25.942  40.393  48.204  1.00  0.00     0.025 C 
HETATM   41  C   UNL     1      27.287  41.068  47.932  1.00  0.00     0.002 C 
HETATM   42  C   UNL     1      28.217  40.976  49.137  1.00  0.00     0.000 C 
HETATM   43  C   UNL     1      27.560  41.539  50.392  1.00  0.00     0.002 C 
HETATM   44  C   UNL     1      26.222  40.860  50.677  1.00  0.00     0.025 C 
ENDBRANCH  36  39
ENDBRANCH  11  35
TORSDOF 7
ENDMDL
MODEL 6
REMARK VINA RESULT:      -9.5      3.430      7.640
REMARK  7 active torsions:
REMARK  status: ('A' for Active; 'I' for Inactive)
REMARK    1  A    between atoms: C_3  and  N_4 
REMARK       I    between atoms: N_4  and  C_5 
REMARK    2  A    between atoms: C_5  and  C_6 
REMARK    3  A    between atoms: C_6  and  N_7 
REMARK    4  A    between atoms: N_10  and  C_11 
REMARK    5  A    between atoms: C_11  and  C_12 
REMARK    6  A    between atoms: C_27  and  C_28 
REMARK       I    between atoms: C_28  and  N_29 
REMARK    7  A    between atoms: N_29  and  C_30 
ROOT
HETATM    1  N   UNL     1      25.950  46.254  50.530  1.00  0.00    -0.290 N 
HETATM    2  C   UNL     1      26.124  46.742  51.826  1.00  0.00     0.332 C 
HETATM    3  O   UNL     1      26.557  47.884  52.017  1.00  0.00    -0.246 OA
HETATM    4  N   UNL     1      25.757  45.909  52.870  1.00  0.00    -0.261 N 
HETATM    5  C   UNL     1      25.013  44.752  52.716  1.00  0.00     0.264 C 
HETATM    6  O   UNL     1      24.606  44.062  53.649  1.00  0.00    -0.267 OA
HETATM    7  C   UNL     1      24.664  44.362  51.340  1.00  0.00     0.059 A 
HETATM    8  C   UNL     1      25.175  45.090  50.267  1.00  0.00     0.056 A 
HETATM    9  C   UNL     1      23.788  43.282  51.136  1.00  0.00     0.020 A 
HETATM   10  C   UNL     1      23.413  42.907  49.846  1.00  0.00     0.018 A 
HETATM   11  C   UNL     1      23.949  43.587  48.752  1.00  0.00     0.034 A 
HETATM   12  C   UNL     1      24.836  44.662  48.973  1.00  0.00     0.048 A 
ENDROOT
BRANCH   1  13
HETATM   13  C   UNL     1      26.373  47.171  49.472  1.00  0.00     0.237 C 
BRANCH  13  14
HETATM   14  C   UNL     1      25.418  48.372  49.313  1.00  0.00     0.240 C 
HETATM   15  N   UNL     1      24.096  47.972  49.216  1.00  0.00    -0.323 N 
HETATM   16  H   UNL     1      23.889  46.994  49.396  1.00  0.00     0.169 HD
HETATM   17  O   UNL     1      25.838  49.525  49.235  1.00  0.00    -0.271 OA
BRANCH  15  18
HETATM   18  C   UNL     1      22.950  48.763  48.999  1.00  0.00     0.073 A 
HETATM   19  C   UNL     1      22.731  50.021  49.556  1.00  0.00     0.033 A 
HETATM   20  C   UNL     1      21.555  50.724  49.257  1.00  0.00     0.002 A 
HETATM   21  C   UNL     1      20.595  50.178  48.401  1.00  0.00     0.003 A 
HETATM   22  C   UNL     1      20.806  48.924  47.839  1.00  0.00     0.044 A 
HETATM   23  C   UNL     1      21.973  48.231  48.144  1.00  0.00     0.143 A 
HETATM   24  F   UNL     1      22.171  47.022  47.591  1.00  0.00    -0.204 F 
ENDBRANCH  15  18
ENDBRANCH  13  14
ENDBRANCH   1  13
BRANCH   4  25
HETATM   25  C   UNL     1      26.009  46.382  54.226  1.00  0.00     0.175 C 
BRANCH  25  26
HETATM   26  C   UNL     1      27.332  45.905  54.793  1.00  0.00    -0.037 A 
HETATM   27  C   UNL     1      27.917  44.708  54.345  1.00  0.00     0.048 A 
HETATM   28  C   UNL     1      29.119  44.326  54.903  1.00  0.00     0.105 A 
HETATM   29  C   UNL     1      29.740  45.072  55.878  1.00  0.00     0.105 A 
HETATM   30  O   UNL     1      29.825  43.208  54.582  1.00  0.00    -0.323 OA
HETATM   31  O   UNL     1      30.911  44.519  56.292  1.00  0.00    -0.323 OA
HETATM   32  C   UNL     1      29.194  46.245  56.350  1.00  0.00     0.040 A 
HETATM   33  C   UNL     1      30.973  43.355  55.443  1.00  0.00     0.352 A 
HETATM   34  C   UNL     1      27.980  46.662  55.799  1.00  0.00     0.012 A 
ENDBRANCH  25  26
ENDBRANCH   4  25
BRANCH  11  35
HETATM   35  C   UNL     1      23.588  43.270  47.336  1.00  0.00     0.252 C 
HETATM   36  N   UNL     1      22.731  44.131  46.679  1.00  0.00    -0.352 N 
HETATM   37  H   UNL     1      22.300  44.897  47.175  1.00  0.00     0.163 HD
HETATM   38  O   UNL     1      24.048  42.261  46.811  1.00  0.00    -0.268 OA
BRANCH  36  39
HETATM   39  C   UNL     1      22.286  43.865  45.313  1.00  0.00     0.084 C 
HETATM   40  C   UNL     1      21.027  42.986  45.308  1.00  0.00     0.025 C 
HETATM   41  C   UNL     1      19.768  43.744  45.733  1.00  0.00     0.002 C 
HETATM   42  C   UNL     1      19.567  45.009  44.906  1.00  0.00     0.000 C 
HETATM   43  C   UNL     1      20.797  45.909  44.955  1.00  0.00     0.002 C 
HETATM   44  C   UNL     1      22.056  45.161  44.520  1.00  0.00     0.025 C 
ENDBRANCH  36  39
ENDBRANCH  11  35
TORSDOF 7
ENDMDL
MODEL 7
REMARK VINA RESULT:      -9.5      2.854      6.850
REMARK  7 active torsions:
REMARK  status: ('A' for Active; 'I' for Inactive)
REMARK    1  A    between atoms: C_3  and  N_4 
REMARK       I    between atoms: N_4  and  C_5 
REMARK    2  A    between atoms: C_5  and  C_6 
REMARK    3  A    between atoms: C_6  and  N_7 
REMARK    4  A    between atoms: N_10  and  C_11 
REMARK    5  A    between atoms: C_11  and  C_12 
REMARK    6  A    between atoms: C_27  and  C_28 
REMARK       I    between atoms: C_28  and  N_29 
REMARK    7  A    between atoms: N_29  and  C_30 
ROOT
HETATM    1  N   UNL     1      23.543  47.399  48.850  1.00  0.00    -0.290 N 
HETATM    2  C   UNL     1      24.338  47.049  49.942  1.00  0.00     0.332 C 
HETATM    3  O   UNL     1      25.064  47.887  50.488  1.00  0.00    -0.246 OA
HETATM    4  N   UNL     1      24.245  45.746  50.401  1.00  0.00    -0.261 N 
HETATM    5  C   UNL     1      23.256  44.856  50.019  1.00  0.00     0.264 C 
HETATM    6  O   UNL     1      23.116  43.731  50.494  1.00  0.00    -0.267 OA
HETATM    7  C   UNL     1      22.296  45.322  49.004  1.00  0.00     0.059 A 
HETATM    8  C   UNL     1      22.481  46.565  48.401  1.00  0.00     0.056 A 
HETATM    9  C   UNL     1      21.188  44.517  48.690  1.00  0.00     0.020 A 
HETATM   10  C   UNL     1      20.244  44.943  47.755  1.00  0.00     0.018 A 
HETATM   11  C   UNL     1      20.430  46.161  47.100  1.00  0.00     0.034 A 
HETATM   12  C   UNL     1      21.554  46.953  47.420  1.00  0.00     0.048 A 
ENDROOT
BRANCH   1  13
HETATM   13  C   UNL     1      23.699  48.782  48.400  1.00  0.00     0.237 C 
BRANCH  13  14
HETATM   14  C   UNL     1      22.730  49.748  49.112  1.00  0.00     0.240 C 
HETATM   15  N   UNL     1      21.454  49.687  48.576  1.00  0.00    -0.323 N 
HETATM   16  H   UNL     1      21.263  48.949  47.905  1.00  0.00     0.169 HD
HETATM   17  O   UNL     1      23.108  50.499  50.008  1.00  0.00    -0.271 OA
BRANCH  15  18
HETATM   18  C   UNL     1      20.321  50.457  48.909  1.00  0.00     0.073 A 
HETATM   19  C   UNL     1      20.111  51.778  48.519  1.00  0.00     0.033 A 
HETATM   20  C   UNL     1      18.936  52.442  48.899  1.00  0.00     0.002 A 
HETATM   21  C   UNL     1      17.965  51.793  49.666  1.00  0.00     0.003 A 
HETATM   22  C   UNL     1      18.166  50.473  50.059  1.00  0.00     0.044 A 
HETATM   23  C   UNL     1      19.336  49.823  49.681  1.00  0.00     0.143 A 
HETATM   24  F   UNL     1      19.519  48.546  50.059  1.00  0.00    -0.204 F 
ENDBRANCH  15  18
ENDBRANCH  13  14
ENDBRANCH   1  13
BRANCH   4  25
HETATM   25  C   UNL     1      25.131  45.353  51.492  1.00  0.00     0.175 C 
BRANCH  25  26
HETATM   26  C   UNL     1      25.965  44.128  51.176  1.00  0.00    -0.037 A 
HETATM   27  C   UNL     1      26.224  43.755  49.847  1.00  0.00     0.048 A 
HETATM   28  C   UNL     1      26.987  42.627  49.626  1.00  0.00     0.105 A 
HETATM   29  C   UNL     1      27.481  41.867  50.662  1.00  0.00     0.105 A 
HETATM   30  O   UNL     1      27.341  42.132  48.409  1.00  0.00    -0.323 OA
HETATM   31  O   UNL     1      28.204  40.801  50.228  1.00  0.00    -0.323 OA
HETATM   32  C   UNL     1      27.240  42.193  51.977  1.00  0.00     0.040 A 
HETATM   33  C   UNL     1      28.136  40.993  48.800  1.00  0.00     0.352 A 
HETATM   34  C   UNL     1      26.476  43.335  52.233  1.00  0.00     0.012 A 
ENDBRANCH  25  26
ENDBRANCH   4  25
BRANCH  11  35
HETATM   35  C   UNL     1      19.461  46.709  46.102  1.00  0.00     0.252 C 
HETATM   36  N   UNL     1      18.360  47.392  46.578  1.00  0.00    -0.352 N 
HETATM   37  H   UNL     1      18.178  47.439  47.570  1.00  0.00     0.163 HD
HETATM   38  O   UNL     1      19.665  46.527  44.906  1.00  0.00    -0.268 OA
BRANCH  36  39
HETATM   39  C   UNL     1      17.338  47.912  45.672  1.00  0.00     0.084 C 
HETATM   40  C   UNL     1      15.954  47.897  46.340  1.00  0.00     0.025 C 
HETATM   41  C   UNL     1      15.790  48.990  47.397  1.00  0.00     0.002 C 
HETATM   42  C   UNL     1      16.123  50.368  46.838  1.00  0.00     0.000 C 
HETATM   43  C   UNL     1      17.519  50.399  46.225  1.00  0.00     0.002 C 
HETATM   44  C   UNL     1      17.686  49.318  45.158  1.00  0.00     0.025 C 
ENDBRANCH  36  39
ENDBRANCH  11  35
TORSDOF 7
ENDMDL
MODEL 8
REMARK VINA RESULT:      -9.3      3.999      7.772
REMARK  7 active torsions:
REMARK  status: ('A' for Active; 'I' for Inactive)
REMARK    1  A    between atoms: C_3  and  N_4 
REMARK       I    between atoms: N_4  and  C_5 
REMARK    2  A    between atoms: C_5  and  C_6 
REMARK    3  A    between atoms: C_6  and  N_7 
REMARK    4  A    between atoms: N_10  and  C_11 
REMARK    5  A    between atoms: C_11  and  C_12 
REMARK    6  A    between atoms: C_27  and  C_28 
REMARK       I    between atoms: C_28  and  N_29 
REMARK    7  A    between atoms: N_29  and  C_30 
ROOT
HETATM    1  N   UNL     1      22.637  46.884  48.953  1.00  0.00    -0.290 N 
HETATM    2  C   UNL     1      23.849  46.205  49.088  1.00  0.00     0.332 C 
HETATM    3  O   UNL     1      23.918  44.989  48.879  1.00  0.00    -0.246 OA
HETATM    4  N   UNL     1      24.962  46.959  49.425  1.00  0.00    -0.261 N 
HETATM    5  C   UNL     1      25.003  48.341  49.392  1.00  0.00     0.264 C 
HETATM    6  O   UNL     1      26.015  49.009  49.600  1.00  0.00    -0.267 OA
HETATM    7  C   UNL     1      23.753  49.038  49.045  1.00  0.00     0.059 A 
HETATM    8  C   UNL     1      22.580  48.304  48.877  1.00  0.00     0.056 A 
HETATM    9  C   UNL     1      23.775  50.430  48.853  1.00  0.00     0.020 A 
HETATM   10  C   UNL     1      22.615  51.115  48.494  1.00  0.00     0.018 A 
HETATM   11  C   UNL     1      21.416  50.412  48.367  1.00  0.00     0.034 A 
HETATM   12  C   UNL     1      21.408  49.016  48.574  1.00  0.00     0.048 A 
ENDROOT
BRANCH   1  13
HETATM   13  C   UNL     1      21.497  46.033  48.615  1.00  0.00     0.237 C 
BRANCH  13  14
HETATM   14  C   UNL     1      21.167  46.057  47.108  1.00  0.00     0.240 C 
HETATM   15  N   UNL     1      19.802  46.028  46.877  1.00  0.00    -0.323 N 
HETATM   16  H   UNL     1      19.189  46.137  47.680  1.00  0.00     0.169 HD
HETATM   17  O   UNL     1      22.050  46.050  46.253  1.00  0.00    -0.271 OA
BRANCH  15  18
HETATM   18  C   UNL     1      19.117  45.972  45.646  1.00  0.00     0.073 A 
HETATM   19  C   UNL     1      19.607  46.462  44.438  1.00  0.00     0.033 A 
HETATM   20  C   UNL     1      18.841  46.338  43.270  1.00  0.00     0.002 A 
HETATM   21  C   UNL     1      17.585  45.725  43.301  1.00  0.00     0.003 A 
HETATM   22  C   UNL     1      17.089  45.232  44.503  1.00  0.00     0.044 A 
HETATM   23  C   UNL     1      17.854  45.362  45.659  1.00  0.00     0.143 A 
HETATM   24  F   UNL     1      17.369  44.878  46.815  1.00  0.00    -0.204 F 
ENDBRANCH  15  18
ENDBRANCH  13  14
ENDBRANCH   1  13
BRANCH   4  25
HETATM   25  C   UNL     1      26.214  46.244  49.644  1.00  0.00     0.175 C 
BRANCH  25  26
HETATM   26  C   UNL     1      26.365  45.715  51.056  1.00  0.00    -0.037 A 
HETATM   27  C   UNL     1      26.858  44.421  51.291  1.00  0.00     0.048 A 
HETATM   28  C   UNL     1      26.968  43.996  52.600  1.00  0.00     0.105 A 
HETATM   29  C   UNL     1      26.599  44.794  53.658  1.00  0.00     0.105 A 
HETATM   30  O   UNL     1      27.433  42.784  53.006  1.00  0.00    -0.323 OA
HETATM   31  O   UNL     1      26.784  44.186  54.860  1.00  0.00    -0.323 OA
HETATM   32  C   UNL     1      26.101  46.064  53.468  1.00  0.00     0.040 A 
HETATM   33  C   UNL     1      27.342  42.924  54.439  1.00  0.00     0.352 A 
HETATM   34  C   UNL     1      25.986  46.525  52.154  1.00  0.00     0.012 A 
ENDBRANCH  25  26
ENDBRANCH   4  25
BRANCH  11  35
HETATM   35  C   UNL     1      20.128  51.057  47.965  1.00  0.00     0.252 C 
HETATM   36  N   UNL     1      19.330  50.394  47.054  1.00  0.00    -0.352 N 
HETATM   37  H   UNL     1      19.655  49.544  46.615  1.00  0.00     0.163 HD
HETATM   38  O   UNL     1      19.830  52.149  48.439  1.00  0.00    -0.268 OA
BRANCH  36  39
HETATM   39  C   UNL     1      18.083  50.980  46.567  1.00  0.00     0.084 C 
HETATM   40  C   UNL     1      18.101  51.113  45.037  1.00  0.00     0.025 C 
HETATM   41  C   UNL     1      17.930  49.774  44.319  1.00  0.00     0.002 C 
HETATM   42  C   UNL     1      16.687  49.034  44.798  1.00  0.00     0.000 C 
HETATM   43  C   UNL     1      16.695  48.852  46.312  1.00  0.00     0.002 C 
HETATM   44  C   UNL     1      16.853  50.188  47.036  1.00  0.00     0.025 C 
ENDBRANCH  36  39
ENDBRANCH  11  35
TORSDOF 7
ENDMDL
MODEL 9
REMARK VINA RESULT:      -9.2      2.679      8.313
REMARK  7 active torsions:
REMARK  status: ('A' for Active; 'I' for Inactive)
REMARK    1  A    between atoms: C_3  and  N_4 
REMARK       I    between atoms: N_4  and  C_5 
REMARK    2  A    between atoms: C_5  and  C_6 
REMARK    3  A    between atoms: C_6  and  N_7 
REMARK    4  A    between atoms: N_10  and  C_11 
REMARK    5  A    between atoms: C_11  and  C_12 
REMARK    6  A    between atoms: C_27  and  C_28 
REMARK       I    between atoms: C_28  and  N_29 
REMARK    7  A    between atoms: N_29  and  C_30 
ROOT
HETATM    1  N   UNL     1      24.037  43.185  49.879  1.00  0.00    -0.290 N 
HETATM    2  C   UNL     1      23.721  44.517  50.149  1.00  0.00     0.332 C 
HETATM    3  O   UNL     1      24.013  45.027  51.236  1.00  0.00    -0.246 OA
HETATM    4  N   UNL     1      23.109  45.239  49.137  1.00  0.00    -0.261 N 
HETATM    5  C   UNL     1      23.017  44.813  47.824  1.00  0.00     0.264 C 
HETATM    6  O   UNL     1      22.558  45.491  46.907  1.00  0.00    -0.267 OA
HETATM    7  C   UNL     1      23.546  43.473  47.519  1.00  0.00     0.059 A 
HETATM    8  C   UNL     1      24.004  42.662  48.556  1.00  0.00     0.056 A 
HETATM    9  C   UNL     1      23.613  43.052  46.180  1.00  0.00     0.020 A 
HETATM   10  C   UNL     1      24.137  41.801  45.855  1.00  0.00     0.018 A 
HETATM   11  C   UNL     1      24.558  40.949  46.877  1.00  0.00     0.034 A 
HETATM   12  C   UNL     1      24.473  41.382  48.218  1.00  0.00     0.048 A 
ENDROOT
BRANCH   1  13
HETATM   13  C   UNL     1      24.665  42.470  50.990  1.00  0.00     0.237 C 
BRANCH  13  14
HETATM   14  C   UNL     1      26.145  42.860  51.183  1.00  0.00     0.240 C 
HETATM   15  N   UNL     1      26.607  42.523  52.444  1.00  0.00    -0.323 N 
HETATM   16  H   UNL     1      26.002  41.953  53.028  1.00  0.00     0.169 HD
HETATM   17  O   UNL     1      26.778  43.446  50.309  1.00  0.00    -0.271 OA
BRANCH  15  18
HETATM   18  C   UNL     1      27.871  42.774  53.016  1.00  0.00     0.073 A 
HETATM   19  C   UNL     1      29.075  42.250  52.550  1.00  0.00     0.033 A 
HETATM   20  C   UNL     1      30.277  42.580  53.192  1.00  0.00     0.002 A 
HETATM   21  C   UNL     1      30.285  43.434  54.298  1.00  0.00     0.003 A 
HETATM   22  C   UNL     1      29.088  43.963  54.769  1.00  0.00     0.044 A 
HETATM   23  C   UNL     1      27.898  43.627  54.129  1.00  0.00     0.143 A 
HETATM   24  F   UNL     1      26.747  44.148  54.587  1.00  0.00    -0.204 F 
ENDBRANCH  15  18
ENDBRANCH  13  14
ENDBRANCH   1  13
BRANCH   4  25
HETATM   25  C   UNL     1      22.705  46.608  49.440  1.00  0.00     0.175 C 
BRANCH  25  26
HETATM   26  C   UNL     1      23.775  47.634  49.121  1.00  0.00    -0.037 A 
HETATM   27  C   UNL     1      25.089  47.472  49.588  1.00  0.00     0.048 A 
HETATM   28  C   UNL     1      26.015  48.443  49.267  1.00  0.00     0.105 A 
HETATM   29  C   UNL     1      25.681  49.552  48.524  1.00  0.00     0.105 A 
HETATM   30  O   UNL     1      27.328  48.440  49.627  1.00  0.00    -0.323 OA
HETATM   31  O   UNL     1      26.737  50.384  48.323  1.00  0.00    -0.323 OA
HETATM   32  C   UNL     1      24.402  49.751  48.057  1.00  0.00     0.040 A 
HETATM   33  C   UNL     1      27.784  49.656  48.998  1.00  0.00     0.352 A 
HETATM   34  C   UNL     1      23.443  48.781  48.360  1.00  0.00     0.012 A 
ENDBRANCH  25  26
ENDBRANCH   4  25
BRANCH  11  35
HETATM   35  C   UNL     1      25.153  39.601  46.624  1.00  0.00     0.252 C 
HETATM   36  N   UNL     1      26.069  39.117  47.537  1.00  0.00    -0.352 N 
HETATM   37  H   UNL     1      26.385  39.698  48.300  1.00  0.00     0.163 HD
HETATM   38  O   UNL     1      24.823  38.978  45.619  1.00  0.00    -0.268 OA
BRANCH  36  39
HETATM   39  C   UNL     1      26.738  37.833  47.336  1.00  0.00     0.084 C 
HETATM   40  C   UNL     1      28.264  38.008  47.310  1.00  0.00     0.025 C 
HETATM   41  C   UNL     1      28.857  38.273  48.695  1.00  0.00     0.002 C 
HETATM   42  C   UNL     1      28.436  37.209  49.701  1.00  0.00     0.000 C 
HETATM   43  C   UNL     1      26.919  37.073  49.767  1.00  0.00     0.002 C 
HETATM   44  C   UNL     1      26.320  36.795  48.390  1.00  0.00     0.025 C 
ENDBRANCH  36  39
ENDBRANCH  11  35
TORSDOF 7
ENDMDL
MODEL 10
REMARK VINA RESULT:      -9.1      3.101      7.641
REMARK  7 active torsions:
REMARK  status: ('A' for Active; 'I' for Inactive)
REMARK    1  A    between atoms: C_3  and  N_4 
REMARK       I    between atoms: N_4  and  C_5 
REMARK    2  A    between atoms: C_5  and  C_6 
REMARK    3  A    between atoms: C_6  and  N_7 
REMARK    4  A    between atoms: N_10  and  C_11 
REMARK    5  A    between atoms: C_11  and  C_12 
REMARK    6  A    between atoms: C_27  and  C_28 
REMARK       I    between atoms: C_28  and  N_29 
REMARK    7  A    between atoms: N_29  and  C_30 
ROOT
HETATM    1  N   UNL     1      23.223  43.545  48.834  1.00  0.00    -0.290 N 
HETATM    2  C   UNL     1      22.287  43.740  47.818  1.00  0.00     0.332 C 
HETATM    3  O   UNL     1      21.586  42.805  47.417  1.00  0.00    -0.246 OA
HETATM    4  N   UNL     1      22.159  45.025  47.316  1.00  0.00    -0.261 N 
HETATM    5  C   UNL     1      22.703  46.150  47.910  1.00  0.00     0.264 C 
HETATM    6  O   UNL     1      22.512  47.300  47.518  1.00  0.00    -0.267 OA
HETATM    7  C   UNL     1      23.527  45.937  49.111  1.00  0.00     0.059 A 
HETATM    8  C   UNL     1      23.814  44.638  49.528  1.00  0.00     0.056 A 
HETATM    9  C   UNL     1      23.979  47.052  49.837  1.00  0.00     0.020 A 
HETATM   10  C   UNL     1      24.736  46.883  50.997  1.00  0.00     0.018 A 
HETATM   11  C   UNL     1      25.080  45.596  51.409  1.00  0.00     0.034 A 
HETATM   12  C   UNL     1      24.627  44.487  50.663  1.00  0.00     0.048 A 
ENDROOT
BRANCH   1  13
HETATM   13  C   UNL     1      23.326  42.166  49.311  1.00  0.00     0.237 C 
BRANCH  13  14
HETATM   14  C   UNL     1      24.571  41.440  48.759  1.00  0.00     0.240 C 
HETATM   15  N   UNL     1      25.218  40.708  49.740  1.00  0.00    -0.323 N 
HETATM   16  H   UNL     1      24.751  40.611  50.637  1.00  0.00     0.169 HD
HETATM   17  O   UNL     1      24.932  41.572  47.592  1.00  0.00    -0.271 OA
BRANCH  15  18
HETATM   18  C   UNL     1      26.416  39.971  49.643  1.00  0.00     0.073 A 
HETATM   19  C   UNL     1      26.492  38.600  49.408  1.00  0.00     0.033 A 
HETATM   20  C   UNL     1      27.744  37.973  49.318  1.00  0.00     0.002 A 
HETATM   21  C   UNL     1      28.923  38.710  49.460  1.00  0.00     0.003 A 
HETATM   22  C   UNL     1      28.856  40.079  49.694  1.00  0.00     0.044 A 
HETATM   23  C   UNL     1      27.611  40.693  49.785  1.00  0.00     0.143 A 
HETATM   24  F   UNL     1      27.556  42.018  50.005  1.00  0.00    -0.204 F 
ENDBRANCH  15  18
ENDBRANCH  13  14
ENDBRANCH   1  13
BRANCH   4  25
HETATM   25  C   UNL     1      21.239  45.220  46.200  1.00  0.00     0.175 C 
BRANCH  25  26
HETATM   26  C   UNL     1      21.925  45.211  44.848  1.00  0.00    -0.037 A 
HETATM   27  C   UNL     1      23.188  44.619  44.685  1.00  0.00     0.048 A 
HETATM   28  C   UNL     1      23.760  44.646  43.430  1.00  0.00     0.105 A 
HETATM   29  C   UNL     1      23.136  45.241  42.357  1.00  0.00     0.105 A 
HETATM   30  O   UNL     1      24.967  44.115  43.094  1.00  0.00    -0.323 OA
HETATM   31  O   UNL     1      23.870  45.160  41.216  1.00  0.00    -0.323 OA
HETATM   32  C   UNL     1      21.903  45.841  42.479  1.00  0.00     0.040 A 
HETATM   33  C   UNL     1      25.014  44.417  41.684  1.00  0.00     0.352 A 
HETATM   34  C   UNL     1      21.294  45.823  43.737  1.00  0.00     0.012 A 
ENDBRANCH  25  26
ENDBRANCH   4  25
BRANCH  11  35
HETATM   35  C   UNL     1      25.868  45.317  52.649  1.00  0.00     0.252 C 
HETATM   36  N   UNL     1      26.885  44.387  52.572  1.00  0.00    -0.352 N 
HETATM   37  H   UNL     1      27.028  43.855  51.726  1.00  0.00     0.163 HD
HETATM   38  O   UNL     1      25.581  45.905  53.687  1.00  0.00    -0.268 OA
BRANCH  36  39
HETATM   39  C   UNL     1      27.667  44.016  53.751  1.00  0.00     0.084 C 
HETATM   40  C   UNL     1      27.251  42.633  54.272  1.00  0.00     0.025 C 
HETATM   41  C   UNL     1      27.753  41.488  53.391  1.00  0.00     0.002 C 
HETATM   42  C   UNL     1      29.259  41.569  53.167  1.00  0.00     0.000 C 
HETATM   43  C   UNL     1      29.666  42.924  52.597  1.00  0.00     0.002 C 
HETATM   44  C   UNL     1      29.179  44.071  53.479  1.00  0.00     0.025 C 
ENDBRANCH  36  39
ENDBRANCH  11  35
TORSDOF 7
ENDMDL
