MODEL 1
REMARK VINA RESULT:      -8.9      0.000      0.000
REMARK  7 active torsions:
REMARK  status: ('A' for Active; 'I' for Inactive)
REMARK    1  A    between atoms: N_3  and  C_4 
REMARK    2  A    between atoms: C_12  and  C_13 
REMARK       I    between atoms: C_13  and  N_14 
REMARK    3  A    between atoms: N_14  and  C_15 
REMARK    4  A    between atoms: C_15  and  C_16 
REMARK    5  A    between atoms: C_16  and  O_17 
REMARK    6  A    between atoms: C_16  and  C_18 
REMARK    7  A    between atoms: C_21  and  O_22 
ROOT
HETATM    1  C   UNL     1      25.557  44.007  51.446  1.00  0.00     0.255 C 
HETATM    2  N   UNL     1      26.898  43.728  51.305  1.00  0.00    -0.350 N 
HETATM    3  O   UNL     1      24.747  43.183  51.858  1.00  0.00    -0.268 OA
HETATM    4  H   UNL     1      27.525  44.518  51.244  1.00  0.00     0.163 HD
ENDROOT
BRANCH   2   5
HETATM    5  C   UNL     1      27.497  42.456  51.718  1.00  0.00     0.114 C 
HETATM    6  C   UNL     1      26.997  41.294  50.852  1.00  0.00     0.035 C 
BRANCH   5   7
HETATM    7  C   UNL     1      27.339  42.170  53.243  1.00  0.00     0.173 C 
BRANCH   7   8
HETATM    8  O   UNL     1      27.670  40.810  53.543  1.00  0.00    -0.389 OA
HETATM    9  H   UNL     1      28.635  40.781  53.665  1.00  0.00     0.210 HD
ENDBRANCH   7   8
BRANCH   7  10
HETATM   10  C   UNL     1      28.234  43.074  54.075  1.00  0.00    -0.028 A 
HETATM   11  C   UNL     1      27.749  44.300  54.554  1.00  0.00     0.012 A 
HETATM   12  C   UNL     1      28.569  45.142  55.310  1.00  0.00     0.037 A 
HETATM   13  C   UNL     1      29.875  44.766  55.621  1.00  0.00     0.068 A 
HETATM   14  C   UNL     1      30.379  43.563  55.128  1.00  0.00     0.037 A 
HETATM   15  C   UNL     1      29.563  42.725  54.360  1.00  0.00     0.012 A 
BRANCH  13  16
HETATM   16  O   UNL     1      30.576  45.657  56.387  1.00  0.00    -0.356 OA
HETATM   17  C   UNL     1      30.046  45.886  57.689  1.00  0.00     0.210 C 
ENDBRANCH  13  16
ENDBRANCH   7  10
ENDBRANCH   5   7
ENDBRANCH   2   5
BRANCH   1  18
HETATM   18  C   UNL     1      25.164  45.379  51.165  1.00  0.00     0.075 C 
HETATM   19  C   UNL     1      24.457  45.934  50.103  1.00  0.00     0.051 C 
HETATM   20  C   UNL     1      23.754  45.296  48.956  1.00  0.00     0.071 C 
HETATM   21  N   UNL     1      24.478  47.318  50.301  1.00  0.00    -0.220 N 
HETATM   22  N   UNL     1      24.990  47.631  51.525  1.00  0.00    -0.177 NA
HETATM   23  C   UNL     1      25.412  46.471  52.020  1.00  0.00     0.158 C 
BRANCH  21  24
HETATM   24  C   UNL     1      24.071  48.360  49.398  1.00  0.00     0.150 A 
HETATM   25  N   UNL     1      25.021  49.108  48.775  1.00  0.00    -0.241 NA
HETATM   26  C   UNL     1      24.599  50.103  47.964  1.00  0.00     0.119 A 
HETATM   27  C   UNL     1      23.266  50.400  47.735  1.00  0.00     0.019 A 
HETATM   28  C   UNL     1      22.305  49.628  48.375  1.00  0.00     0.005 A 
HETATM   29  C   UNL     1      22.707  48.596  49.220  1.00  0.00     0.052 A 
ENDBRANCH  21  24
ENDBRANCH   1  18
TORSDOF 7
ENDMDL
MODEL 2
REMARK VINA RESULT:      -8.5      2.762      4.266
REMARK  7 active torsions:
REMARK  status: ('A' for Active; 'I' for Inactive)
REMARK    1  A    between atoms: N_3  and  C_4 
REMARK    2  A    between atoms: C_12  and  C_13 
REMARK       I    between atoms: C_13  and  N_14 
REMARK    3  A    between atoms: N_14  and  C_15 
REMARK    4  A    between atoms: C_15  and  C_16 
REMARK    5  A    between atoms: C_16  and  O_17 
REMARK    6  A    between atoms: C_16  and  C_18 
REMARK    7  A    between atoms: C_21  and  O_22 
ROOT
HETATM    1  C   UNL     1      24.316  48.078  49.843  1.00  0.00     0.255 C 
HETATM    2  N   UNL     1      24.262  47.008  50.707  1.00  0.00    -0.350 N 
HETATM    3  O   UNL     1      25.362  48.655  49.565  1.00  0.00    -0.268 OA
HETATM    4  H   UNL     1      23.441  46.421  50.657  1.00  0.00     0.163 HD
ENDROOT
BRANCH   2   5
HETATM    5  C   UNL     1      25.456  46.402  51.303  1.00  0.00     0.114 C 
HETATM    6  C   UNL     1      26.122  45.411  50.340  1.00  0.00     0.035 C 
BRANCH   5   7
HETATM    7  C   UNL     1      25.191  45.778  52.707  1.00  0.00     0.173 C 
BRANCH   7   8
HETATM    8  O   UNL     1      24.752  44.420  52.586  1.00  0.00    -0.389 OA
HETATM    9  H   UNL     1      24.522  44.124  53.484  1.00  0.00     0.210 HD
ENDBRANCH   7   8
BRANCH   7  10
HETATM   10  C   UNL     1      26.441  45.801  53.572  1.00  0.00    -0.028 A 
HETATM   11  C   UNL     1      26.863  46.997  54.171  1.00  0.00     0.012 A 
HETATM   12  C   UNL     1      28.017  47.029  54.959  1.00  0.00     0.037 A 
HETATM   13  C   UNL     1      28.754  45.866  55.182  1.00  0.00     0.068 A 
HETATM   14  C   UNL     1      28.362  44.677  54.570  1.00  0.00     0.037 A 
HETATM   15  C   UNL     1      27.214  44.646  53.771  1.00  0.00     0.012 A 
BRANCH  13  16
HETATM   16  O   UNL     1      29.850  46.011  55.988  1.00  0.00    -0.356 OA
HETATM   17  C   UNL     1      29.586  45.950  57.387  1.00  0.00     0.210 C 
ENDBRANCH  13  16
ENDBRANCH   7  10
ENDBRANCH   5   7
ENDBRANCH   2   5
BRANCH   1  18
HETATM   18  C   UNL     1      23.062  48.431  49.195  1.00  0.00     0.075 C 
HETATM   19  C   UNL     1      22.531  49.665  48.830  1.00  0.00     0.051 C 
HETATM   20  C   UNL     1      23.120  51.032  48.863  1.00  0.00     0.071 C 
HETATM   21  N   UNL     1      21.243  49.409  48.350  1.00  0.00    -0.220 N 
HETATM   22  N   UNL     1      21.026  48.069  48.218  1.00  0.00    -0.177 NA
HETATM   23  C   UNL     1      22.107  47.500  48.743  1.00  0.00     0.158 C 
BRANCH  21  24
HETATM   24  C   UNL     1      20.200  50.346  48.034  1.00  0.00     0.150 A 
HETATM   25  N   UNL     1      19.457  50.158  46.910  1.00  0.00    -0.241 NA
HETATM   26  C   UNL     1      18.512  51.082  46.626  1.00  0.00     0.119 A 
HETATM   27  C   UNL     1      18.260  52.194  47.409  1.00  0.00     0.019 A 
HETATM   28  C   UNL     1      19.023  52.375  48.555  1.00  0.00     0.005 A 
HETATM   29  C   UNL     1      20.008  51.443  48.875  1.00  0.00     0.052 A 
ENDBRANCH  21  24
ENDBRANCH   1  18
TORSDOF 7
ENDMDL
MODEL 3
REMARK VINA RESULT:      -8.3      4.060     10.063
REMARK  7 active torsions:
REMARK  status: ('A' for Active; 'I' for Inactive)
REMARK    1  A    between atoms: N_3  and  C_4 
REMARK    2  A    between atoms: C_12  and  C_13 
REMARK       I    between atoms: C_13  and  N_14 
REMARK    3  A    between atoms: N_14  and  C_15 
REMARK    4  A    between atoms: C_15  and  C_16 
REMARK    5  A    between atoms: C_16  and  O_17 
REMARK    6  A    between atoms: C_16  and  C_18 
REMARK    7  A    between atoms: C_21  and  O_22 
ROOT
HETATM    1  C   UNL     1      24.094  47.819  49.762  1.00  0.00     0.255 C 
HETATM    2  N   UNL     1      22.776  47.836  49.364  1.00  0.00    -0.350 N 
HETATM    3  O   UNL     1      24.837  48.787  49.638  1.00  0.00    -0.268 OA
HETATM    4  H   UNL     1      22.171  47.127  49.757  1.00  0.00     0.163 HD
ENDROOT
BRANCH   2   5
HETATM    5  C   UNL     1      22.115  49.035  48.841  1.00  0.00     0.114 C 
HETATM    6  C   UNL     1      22.929  49.675  47.710  1.00  0.00     0.035 C 
BRANCH   5   7
HETATM    7  C   UNL     1      21.733  50.060  49.951  1.00  0.00     0.173 C 
BRANCH   7   8
HETATM    8  O   UNL     1      22.752  51.055  50.096  1.00  0.00    -0.389 OA
HETATM    9  H   UNL     1      23.485  50.631  50.575  1.00  0.00     0.210 HD
ENDBRANCH   7   8
BRANCH   7  10
HETATM   10  C   UNL     1      20.421  50.759  49.637  1.00  0.00    -0.028 A 
HETATM   11  C   UNL     1      19.243  50.380  50.298  1.00  0.00     0.012 A 
HETATM   12  C   UNL     1      18.031  51.012  50.006  1.00  0.00     0.037 A 
HETATM   13  C   UNL     1      17.977  52.046  49.071  1.00  0.00     0.068 A 
HETATM   14  C   UNL     1      19.135  52.413  48.388  1.00  0.00     0.037 A 
HETATM   15  C   UNL     1      20.347  51.773  48.669  1.00  0.00     0.012 A 
BRANCH  13  16
HETATM   16  O   UNL     1      16.743  52.605  48.885  1.00  0.00    -0.356 OA
HETATM   17  C   UNL     1      16.052  52.962  50.079  1.00  0.00     0.210 C 
ENDBRANCH  13  16
ENDBRANCH   7  10
ENDBRANCH   5   7
ENDBRANCH   2   5
BRANCH   1  18
HETATM   18  C   UNL     1      24.536  46.607  50.435  1.00  0.00     0.075 C 
HETATM   19  C   UNL     1      25.383  46.416  51.522  1.00  0.00     0.051 C 
HETATM   20  C   UNL     1      26.026  47.392  52.445  1.00  0.00     0.071 C 
HETATM   21  N   UNL     1      25.539  45.033  51.658  1.00  0.00    -0.220 N 
HETATM   22  N   UNL     1      24.682  44.361  50.837  1.00  0.00    -0.177 NA
HETATM   23  C   UNL     1      24.107  45.307  50.103  1.00  0.00     0.158 C 
BRANCH  21  24
HETATM   24  C   UNL     1      26.461  44.311  52.490  1.00  0.00     0.150 A 
HETATM   25  N   UNL     1      27.655  43.917  51.972  1.00  0.00    -0.241 NA
HETATM   26  C   UNL     1      28.479  43.206  52.774  1.00  0.00     0.119 A 
HETATM   27  C   UNL     1      28.178  42.863  54.080  1.00  0.00     0.019 A 
HETATM   28  C   UNL     1      26.957  43.272  54.600  1.00  0.00     0.005 A 
HETATM   29  C   UNL     1      26.083  44.004  53.798  1.00  0.00     0.052 A 
ENDBRANCH  21  24
ENDBRANCH   1  18
TORSDOF 7
ENDMDL
MODEL 4
REMARK VINA RESULT:      -8.2      2.821      7.741
REMARK  7 active torsions:
REMARK  status: ('A' for Active; 'I' for Inactive)
REMARK    1  A    between atoms: N_3  and  C_4 
REMARK    2  A    between atoms: C_12  and  C_13 
REMARK       I    between atoms: C_13  and  N_14 
REMARK    3  A    between atoms: N_14  and  C_15 
REMARK    4  A    between atoms: C_15  and  C_16 
REMARK    5  A    between atoms: C_16  and  O_17 
REMARK    6  A    between atoms: C_16  and  C_18 
REMARK    7  A    between atoms: C_21  and  O_22 
ROOT
HETATM    1  C   UNL     1      25.763  44.509  53.233  1.00  0.00     0.255 C 
HETATM    2  N   UNL     1      26.088  43.854  52.066  1.00  0.00    -0.350 N 
HETATM    3  O   UNL     1      24.607  44.637  53.622  1.00  0.00    -0.268 OA
HETATM    4  H   UNL     1      27.045  43.542  51.968  1.00  0.00     0.163 HD
ENDROOT
BRANCH   2   5
HETATM    5  C   UNL     1      25.096  43.173  51.229  1.00  0.00     0.114 C 
HETATM    6  C   UNL     1      25.711  41.976  50.494  1.00  0.00     0.035 C 
BRANCH   5   7
HETATM    7  C   UNL     1      24.341  44.138  50.265  1.00  0.00     0.173 C 
BRANCH   7   8
HETATM    8  O   UNL     1      23.071  44.512  50.811  1.00  0.00    -0.389 OA
HETATM    9  H   UNL     1      23.097  45.477  50.931  1.00  0.00     0.210 HD
ENDBRANCH   7   8
BRANCH   7  10
HETATM   10  C   UNL     1      25.141  45.403  50.003  1.00  0.00    -0.028 A 
HETATM   11  C   UNL     1      24.518  46.658  50.070  1.00  0.00     0.012 A 
HETATM   12  C   UNL     1      25.245  47.826  49.819  1.00  0.00     0.037 A 
HETATM   13  C   UNL     1      26.607  47.762  49.522  1.00  0.00     0.068 A 
HETATM   14  C   UNL     1      27.231  46.520  49.424  1.00  0.00     0.037 A 
HETATM   15  C   UNL     1      26.502  45.350  49.662  1.00  0.00     0.012 A 
BRANCH  13  16
HETATM   16  O   UNL     1      27.219  48.968  49.319  1.00  0.00    -0.356 OA
HETATM   17  C   UNL     1      26.556  49.840  48.408  1.00  0.00     0.210 C 
ENDBRANCH  13  16
ENDBRANCH   7  10
ENDBRANCH   5   7
ENDBRANCH   2   5
BRANCH   1  18
HETATM   18  C   UNL     1      26.887  44.962  54.038  1.00  0.00     0.075 C 
HETATM   19  C   UNL     1      27.976  44.274  54.565  1.00  0.00     0.051 C 
HETATM   20  C   UNL     1      28.428  42.867  54.380  1.00  0.00     0.071 C 
HETATM   21  N   UNL     1      28.675  45.195  55.352  1.00  0.00    -0.220 N 
HETATM   22  N   UNL     1      28.186  46.456  55.182  1.00  0.00    -0.177 NA
HETATM   23  C   UNL     1      27.111  46.300  54.414  1.00  0.00     0.158 C 
BRANCH  21  24
HETATM   24  C   UNL     1      29.754  44.954  56.270  1.00  0.00     0.150 A 
HETATM   25  N   UNL     1      30.677  44.000  55.974  1.00  0.00    -0.241 NA
HETATM   26  C   UNL     1      31.654  43.775  56.881  1.00  0.00     0.119 A 
HETATM   27  C   UNL     1      31.767  44.458  58.080  1.00  0.00     0.019 A 
HETATM   28  C   UNL     1      30.820  45.431  58.370  1.00  0.00     0.005 A 
HETATM   29  C   UNL     1      29.797  45.685  57.458  1.00  0.00     0.052 A 
ENDBRANCH  21  24
ENDBRANCH   1  18
TORSDOF 7
ENDMDL
MODEL 5
REMARK VINA RESULT:      -8.0      7.279     12.829
REMARK  7 active torsions:
REMARK  status: ('A' for Active; 'I' for Inactive)
REMARK    1  A    between atoms: N_3  and  C_4 
REMARK    2  A    between atoms: C_12  and  C_13 
REMARK       I    between atoms: C_13  and  N_14 
REMARK    3  A    between atoms: N_14  and  C_15 
REMARK    4  A    between atoms: C_15  and  C_16 
REMARK    5  A    between atoms: C_16  and  O_17 
REMARK    6  A    between atoms: C_16  and  C_18 
REMARK    7  A    between atoms: C_21  and  O_22 
ROOT
HETATM    1  C   UNL     1      18.753  49.990  49.461  1.00  0.00     0.255 C 
HETATM    2  N   UNL     1      18.006  50.152  48.316  1.00  0.00    -0.350 N 
HETATM    3  O   UNL     1      18.323  50.258  50.578  1.00  0.00    -0.268 OA
HETATM    4  H   UNL     1      18.313  49.648  47.495  1.00  0.00     0.163 HD
ENDROOT
BRANCH   2   5
HETATM    5  C   UNL     1      16.602  50.572  48.331  1.00  0.00     0.114 C 
HETATM    6  C   UNL     1      15.712  49.578  47.576  1.00  0.00     0.035 C 
BRANCH   5   7
HETATM    7  C   UNL     1      16.396  52.040  47.848  1.00  0.00     0.173 C 
BRANCH   7   8
HETATM    8  O   UNL     1      16.012  52.071  46.469  1.00  0.00    -0.389 OA
HETATM    9  H   UNL     1      15.766  52.992  46.272  1.00  0.00     0.210 HD
ENDBRANCH   7   8
BRANCH   7  10
HETATM   10  C   UNL     1      15.324  52.748  48.659  1.00  0.00    -0.028 A 
HETATM   11  C   UNL     1      15.093  52.385  49.994  1.00  0.00     0.012 A 
HETATM   12  C   UNL     1      14.101  53.025  50.743  1.00  0.00     0.037 A 
HETATM   13  C   UNL     1      13.342  54.052  50.182  1.00  0.00     0.068 A 
HETATM   14  C   UNL     1      13.542  54.403  48.849  1.00  0.00     0.037 A 
HETATM   15  C   UNL     1      14.525  53.755  48.093  1.00  0.00     0.012 A 
BRANCH  13  16
HETATM   16  O   UNL     1      12.418  54.621  51.016  1.00  0.00    -0.356 OA
HETATM   17  C   UNL     1      12.094  55.978  50.726  1.00  0.00     0.210 C 
ENDBRANCH  13  16
ENDBRANCH   7  10
ENDBRANCH   5   7
ENDBRANCH   2   5
BRANCH   1  18
HETATM   18  C   UNL     1      20.064  49.385  49.281  1.00  0.00     0.075 C 
HETATM   19  C   UNL     1      21.341  49.851  49.581  1.00  0.00     0.051 C 
HETATM   20  C   UNL     1      21.792  51.072  50.304  1.00  0.00     0.071 C 
HETATM   21  N   UNL     1      22.232  48.896  49.081  1.00  0.00    -0.220 N 
HETATM   22  N   UNL     1      21.571  47.779  48.664  1.00  0.00    -0.177 NA
HETATM   23  C   UNL     1      20.283  48.091  48.770  1.00  0.00     0.158 C 
BRANCH  21  24
HETATM   24  C   UNL     1      23.660  48.984  48.949  1.00  0.00     0.150 A 
HETATM   25  N   UNL     1      24.449  48.206  49.739  1.00  0.00    -0.241 NA
HETATM   26  C   UNL     1      25.788  48.346  49.613  1.00  0.00     0.119 A 
HETATM   27  C   UNL     1      26.393  49.225  48.732  1.00  0.00     0.019 A 
HETATM   28  C   UNL     1      25.578  50.013  47.929  1.00  0.00     0.005 A 
HETATM   29  C   UNL     1      24.194  49.896  48.037  1.00  0.00     0.052 A 
ENDBRANCH  21  24
ENDBRANCH   1  18
TORSDOF 7
ENDMDL
MODEL 6
REMARK VINA RESULT:      -8.0      3.957      8.040
REMARK  7 active torsions:
REMARK  status: ('A' for Active; 'I' for Inactive)
REMARK    1  A    between atoms: N_3  and  C_4 
REMARK    2  A    between atoms: C_12  and  C_13 
REMARK       I    between atoms: C_13  and  N_14 
REMARK    3  A    between atoms: N_14  and  C_15 
REMARK    4  A    between atoms: C_15  and  C_16 
REMARK    5  A    between atoms: C_16  and  O_17 
REMARK    6  A    between atoms: C_16  and  C_18 
REMARK    7  A    between atoms: C_21  and  O_22 
ROOT
HETATM    1  C   UNL     1      27.493  43.904  51.183  1.00  0.00     0.255 C 
HETATM    2  N   UNL     1      26.490  42.983  50.983  1.00  0.00    -0.350 N 
HETATM    3  O   UNL     1      27.611  44.916  50.500  1.00  0.00    -0.268 OA
HETATM    4  H   UNL     1      26.291  42.351  51.747  1.00  0.00     0.163 HD
ENDROOT
BRANCH   2   5
HETATM    5  C   UNL     1      25.420  43.167  49.999  1.00  0.00     0.114 C 
HETATM    6  C   UNL     1      24.137  43.687  50.658  1.00  0.00     0.035 C 
BRANCH   5   7
HETATM    7  C   UNL     1      25.167  41.903  49.123  1.00  0.00     0.173 C 
BRANCH   7   8
HETATM    8  O   UNL     1      24.823  42.273  47.783  1.00  0.00    -0.389 OA
HETATM    9  H   UNL     1      24.191  43.009  47.855  1.00  0.00     0.210 HD
ENDBRANCH   7   8
BRANCH   7  10
HETATM   10  C   UNL     1      26.393  41.006  49.071  1.00  0.00    -0.028 A 
HETATM   11  C   UNL     1      26.459  39.854  49.869  1.00  0.00     0.012 A 
HETATM   12  C   UNL     1      27.588  39.031  49.835  1.00  0.00     0.037 A 
HETATM   13  C   UNL     1      28.657  39.328  48.989  1.00  0.00     0.068 A 
HETATM   14  C   UNL     1      28.616  40.484  48.212  1.00  0.00     0.037 A 
HETATM   15  C   UNL     1      27.492  41.317  48.255  1.00  0.00     0.012 A 
BRANCH  13  16
HETATM   16  O   UNL     1      29.696  38.439  49.022  1.00  0.00    -0.356 OA
HETATM   17  C   UNL     1      29.971  37.874  50.302  1.00  0.00     0.210 C 
ENDBRANCH  13  16
ENDBRANCH   7  10
ENDBRANCH   5   7
ENDBRANCH   2   5
BRANCH   1  18
HETATM   18  C   UNL     1      28.359  43.658  52.326  1.00  0.00     0.075 C 
HETATM   19  C   UNL     1      28.349  44.178  53.617  1.00  0.00     0.051 C 
HETATM   20  C   UNL     1      27.373  45.067  54.305  1.00  0.00     0.071 C 
HETATM   21  N   UNL     1      29.487  43.671  54.251  1.00  0.00    -0.220 N 
HETATM   22  N   UNL     1      30.090  42.716  53.486  1.00  0.00    -0.177 NA
HETATM   23  C   UNL     1      29.422  42.733  52.338  1.00  0.00     0.158 C 
BRANCH  21  24
HETATM   24  C   UNL     1      30.052  44.049  55.517  1.00  0.00     0.150 A 
HETATM   25  N   UNL     1      29.710  45.245  56.067  1.00  0.00    -0.241 NA
HETATM   26  C   UNL     1      30.292  45.583  57.239  1.00  0.00     0.119 A 
HETATM   27  C   UNL     1      31.207  44.785  57.904  1.00  0.00     0.019 A 
HETATM   28  C   UNL     1      31.547  43.564  57.336  1.00  0.00     0.005 A 
HETATM   29  C   UNL     1      30.967  43.188  56.126  1.00  0.00     0.052 A 
ENDBRANCH  21  24
ENDBRANCH   1  18
TORSDOF 7
ENDMDL
MODEL 7
REMARK VINA RESULT:      -7.9      1.803      2.611
REMARK  7 active torsions:
REMARK  status: ('A' for Active; 'I' for Inactive)
REMARK    1  A    between atoms: N_3  and  C_4 
REMARK    2  A    between atoms: C_12  and  C_13 
REMARK       I    between atoms: C_13  and  N_14 
REMARK    3  A    between atoms: N_14  and  C_15 
REMARK    4  A    between atoms: C_15  and  C_16 
REMARK    5  A    between atoms: C_16  and  O_17 
REMARK    6  A    between atoms: C_16  and  C_18 
REMARK    7  A    between atoms: C_21  and  O_22 
ROOT
HETATM    1  C   UNL     1      24.628  44.217  49.381  1.00  0.00     0.255 C 
HETATM    2  N   UNL     1      25.998  44.350  49.378  1.00  0.00    -0.350 N 
HETATM    3  O   UNL     1      24.056  43.240  49.854  1.00  0.00    -0.268 OA
HETATM    4  H   UNL     1      26.367  45.282  49.243  1.00  0.00     0.163 HD
ENDROOT
BRANCH   2   5
HETATM    5  C   UNL     1      26.896  43.385  50.019  1.00  0.00     0.114 C 
HETATM    6  C   UNL     1      27.068  42.125  49.161  1.00  0.00     0.035 C 
BRANCH   5   7
HETATM    7  C   UNL     1      26.491  43.052  51.487  1.00  0.00     0.173 C 
BRANCH   7   8
HETATM    8  O   UNL     1      25.977  41.719  51.584  1.00  0.00    -0.389 OA
HETATM    9  H   UNL     1      25.746  41.580  52.519  1.00  0.00     0.210 HD
ENDBRANCH   7   8
BRANCH   7  10
HETATM   10  C   UNL     1      27.674  43.178  52.434  1.00  0.00    -0.028 A 
HETATM   11  C   UNL     1      27.591  44.011  53.559  1.00  0.00     0.012 A 
HETATM   12  C   UNL     1      28.679  44.141  54.428  1.00  0.00     0.037 A 
HETATM   13  C   UNL     1      29.855  43.425  54.203  1.00  0.00     0.068 A 
HETATM   14  C   UNL     1      29.960  42.616  53.073  1.00  0.00     0.037 A 
HETATM   15  C   UNL     1      28.877  42.495  52.195  1.00  0.00     0.012 A 
BRANCH  13  16
HETATM   16  O   UNL     1      30.842  43.612  55.131  1.00  0.00    -0.356 OA
HETATM   17  C   UNL     1      30.568  44.603  56.117  1.00  0.00     0.210 C 
ENDBRANCH  13  16
ENDBRANCH   7  10
ENDBRANCH   5   7
ENDBRANCH   2   5
BRANCH   1  18
HETATM   18  C   UNL     1      23.881  45.357  48.871  1.00  0.00     0.075 C 
HETATM   19  C   UNL     1      23.846  46.688  49.276  1.00  0.00     0.051 C 
HETATM   20  C   UNL     1      24.654  47.425  50.287  1.00  0.00     0.071 C 
HETATM   21  N   UNL     1      22.863  47.307  48.498  1.00  0.00    -0.220 N 
HETATM   22  N   UNL     1      22.429  46.478  47.506  1.00  0.00    -0.177 NA
HETATM   23  C   UNL     1      23.027  45.317  47.752  1.00  0.00     0.158 C 
BRANCH  21  24
HETATM   24  C   UNL     1      22.291  48.616  48.649  1.00  0.00     0.150 A 
HETATM   25  N   UNL     1      21.064  48.743  49.223  1.00  0.00    -0.241 NA
HETATM   26  C   UNL     1      20.543  49.987  49.311  1.00  0.00     0.119 A 
HETATM   27  C   UNL     1      21.183  51.127  48.858  1.00  0.00     0.019 A 
HETATM   28  C   UNL     1      22.437  50.986  48.276  1.00  0.00     0.005 A 
HETATM   29  C   UNL     1      23.001  49.717  48.166  1.00  0.00     0.052 A 
ENDBRANCH  21  24
ENDBRANCH   1  18
TORSDOF 7
ENDMDL
MODEL 8
REMARK VINA RESULT:      -7.8      4.796     10.648
REMARK  7 active torsions:
REMARK  status: ('A' for Active; 'I' for Inactive)
REMARK    1  A    between atoms: N_3  and  C_4 
REMARK    2  A    between atoms: C_12  and  C_13 
REMARK       I    between atoms: C_13  and  N_14 
REMARK    3  A    between atoms: N_14  and  C_15 
REMARK    4  A    between atoms: C_15  and  C_16 
REMARK    5  A    between atoms: C_16  and  O_17 
REMARK    6  A    between atoms: C_16  and  C_18 
REMARK    7  A    between atoms: C_21  and  O_22 
ROOT
HETATM    1  C   UNL     1      22.586  47.929  48.681  1.00  0.00     0.255 C 
HETATM    2  N   UNL     1      21.696  48.653  49.442  1.00  0.00    -0.350 N 
HETATM    3  O   UNL     1      22.391  47.671  47.498  1.00  0.00    -0.268 OA
HETATM    4  H   UNL     1      22.052  49.064  50.295  1.00  0.00     0.163 HD
ENDROOT
BRANCH   2   5
HETATM    5  C   UNL     1      20.480  49.258  48.891  1.00  0.00     0.114 C 
HETATM    6  C   UNL     1      20.765  50.638  48.287  1.00  0.00     0.035 C 
BRANCH   5   7
HETATM    7  C   UNL     1      19.295  49.287  49.904  1.00  0.00     0.173 C 
BRANCH   7   8
HETATM    8  O   UNL     1      19.744  49.698  51.200  1.00  0.00    -0.389 OA
HETATM    9  H   UNL     1      19.966  48.884  51.685  1.00  0.00     0.210 HD
ENDBRANCH   7   8
BRANCH   7  10
HETATM   10  C   UNL     1      18.199  50.238  49.453  1.00  0.00    -0.028 A 
HETATM   11  C   UNL     1      18.147  51.546  49.958  1.00  0.00     0.012 A 
HETATM   12  C   UNL     1      17.136  52.423  49.557  1.00  0.00     0.037 A 
HETATM   13  C   UNL     1      16.176  52.019  48.629  1.00  0.00     0.068 A 
HETATM   14  C   UNL     1      16.199  50.714  48.140  1.00  0.00     0.037 A 
HETATM   15  C   UNL     1      17.203  49.831  48.551  1.00  0.00     0.012 A 
BRANCH  13  16
HETATM   16  O   UNL     1      15.249  52.969  48.292  1.00  0.00    -0.356 OA
HETATM   17  C   UNL     1      14.566  53.565  49.391  1.00  0.00     0.210 C 
ENDBRANCH  13  16
ENDBRANCH   7  10
ENDBRANCH   5   7
ENDBRANCH   2   5
BRANCH   1  18
HETATM   18  C   UNL     1      23.831  47.566  49.339  1.00  0.00     0.075 C 
HETATM   19  C   UNL     1      24.273  46.356  49.867  1.00  0.00     0.051 C 
HETATM   20  C   UNL     1      23.674  44.994  49.825  1.00  0.00     0.071 C 
HETATM   21  N   UNL     1      25.500  46.623  50.481  1.00  0.00    -0.220 N 
HETATM   22  N   UNL     1      25.929  47.885  50.192  1.00  0.00    -0.177 NA
HETATM   23  C   UNL     1      24.919  48.441  49.530  1.00  0.00     0.158 C 
BRANCH  21  24
HETATM   24  C   UNL     1      26.277  45.774  51.341  1.00  0.00     0.150 A 
HETATM   25  N   UNL     1      27.040  44.791  50.791  1.00  0.00    -0.241 NA
HETATM   26  C   UNL     1      27.726  43.988  51.634  1.00  0.00     0.119 A 
HETATM   27  C   UNL     1      27.697  44.111  53.012  1.00  0.00     0.019 A 
HETATM   28  C   UNL     1      26.917  45.119  53.563  1.00  0.00     0.005 A 
HETATM   29  C   UNL     1      26.194  45.963  52.722  1.00  0.00     0.052 A 
ENDBRANCH  21  24
ENDBRANCH   1  18
TORSDOF 7
ENDMDL
MODEL 9
REMARK VINA RESULT:      -7.8      4.641     10.537
REMARK  7 active torsions:
REMARK  status: ('A' for Active; 'I' for Inactive)
REMARK    1  A    between atoms: N_3  and  C_4 
REMARK    2  A    between atoms: C_12  and  C_13 
REMARK       I    between atoms: C_13  and  N_14 
REMARK    3  A    between atoms: N_14  and  C_15 
REMARK    4  A    between atoms: C_15  and  C_16 
REMARK    5  A    between atoms: C_16  and  O_17 
REMARK    6  A    between atoms: C_16  and  C_18 
REMARK    7  A    between atoms: C_21  and  O_22 
ROOT
HETATM    1  C   UNL     1      22.754  47.960  48.730  1.00  0.00     0.255 C 
HETATM    2  N   UNL     1      21.915  48.724  49.510  1.00  0.00    -0.350 N 
HETATM    3  O   UNL     1      22.535  47.734  47.544  1.00  0.00    -0.268 OA
HETATM    4  H   UNL     1      22.302  49.098  50.366  1.00  0.00     0.163 HD
ENDROOT
BRANCH   2   5
HETATM    5  C   UNL     1      20.734  49.411  48.978  1.00  0.00     0.114 C 
HETATM    6  C   UNL     1      21.076  50.831  48.511  1.00  0.00     0.035 C 
BRANCH   5   7
HETATM    7  C   UNL     1      19.518  49.383  49.953  1.00  0.00     0.173 C 
BRANCH   7   8
HETATM    8  O   UNL     1      19.338  50.658  50.578  1.00  0.00    -0.389 OA
HETATM    9  H   UNL     1      20.227  51.033  50.700  1.00  0.00     0.210 HD
ENDBRANCH   7   8
BRANCH   7  10
HETATM   10  C   UNL     1      18.232  49.019  49.229  1.00  0.00    -0.028 A 
HETATM   11  C   UNL     1      17.509  50.002  48.537  1.00  0.00     0.012 A 
HETATM   12  C   UNL     1      16.320  49.677  47.878  1.00  0.00     0.037 A 
HETATM   13  C   UNL     1      15.846  48.365  47.878  1.00  0.00     0.068 A 
HETATM   14  C   UNL     1      16.539  47.385  48.585  1.00  0.00     0.037 A 
HETATM   15  C   UNL     1      17.723  47.711  49.256  1.00  0.00     0.012 A 
BRANCH  13  16
HETATM   16  O   UNL     1      14.686  48.160  47.182  1.00  0.00    -0.356 OA
HETATM   17  C   UNL     1      14.438  49.090  46.131  1.00  0.00     0.210 C 
ENDBRANCH  13  16
ENDBRANCH   7  10
ENDBRANCH   5   7
ENDBRANCH   2   5
BRANCH   1  18
HETATM   18  C   UNL     1      23.979  47.511  49.372  1.00  0.00     0.075 C 
HETATM   19  C   UNL     1      24.331  46.282  49.924  1.00  0.00     0.051 C 
HETATM   20  C   UNL     1      23.619  44.974  49.932  1.00  0.00     0.071 C 
HETATM   21  N   UNL     1      25.590  46.461  50.504  1.00  0.00    -0.220 N 
HETATM   22  N   UNL     1      26.115  47.674  50.172  1.00  0.00    -0.177 NA
HETATM   23  C   UNL     1      25.140  48.295  49.516  1.00  0.00     0.158 C 
BRANCH  21  24
HETATM   24  C   UNL     1      26.313  45.571  51.371  1.00  0.00     0.150 A 
HETATM   25  N   UNL     1      26.178  45.703  52.719  1.00  0.00    -0.241 NA
HETATM   26  C   UNL     1      26.905  44.874  53.502  1.00  0.00     0.119 A 
HETATM   27  C   UNL     1      27.766  43.908  53.013  1.00  0.00     0.019 A 
HETATM   28  C   UNL     1      27.893  43.780  51.635  1.00  0.00     0.005 A 
HETATM   29  C   UNL     1      27.162  44.622  50.800  1.00  0.00     0.052 A 
ENDBRANCH  21  24
ENDBRANCH   1  18
TORSDOF 7
ENDMDL
MODEL 10
REMARK VINA RESULT:      -7.8      2.770      8.631
REMARK  7 active torsions:
REMARK  status: ('A' for Active; 'I' for Inactive)
REMARK    1  A    between atoms: N_3  and  C_4 
REMARK    2  A    between atoms: C_12  and  C_13 
REMARK       I    between atoms: C_13  and  N_14 
REMARK    3  A    between atoms: N_14  and  C_15 
REMARK    4  A    between atoms: C_15  and  C_16 
REMARK    5  A    between atoms: C_16  and  O_17 
REMARK    6  A    between atoms: C_16  and  C_18 
REMARK    7  A    between atoms: C_21  and  O_22 
ROOT
HETATM    1  C   UNL     1      25.434  45.068  51.451  1.00  0.00     0.255 C 
HETATM    2  N   UNL     1      24.892  44.164  50.564  1.00  0.00    -0.350 N 
HETATM    3  O   UNL     1      24.893  46.135  51.724  1.00  0.00    -0.268 OA
HETATM    4  H   UNL     1      25.233  43.213  50.615  1.00  0.00     0.163 HD
ENDROOT
BRANCH   2   5
HETATM    5  C   UNL     1      23.581  44.349  49.935  1.00  0.00     0.114 C 
HETATM    6  C   UNL     1      22.857  43.011  49.747  1.00  0.00     0.035 C 
BRANCH   5   7
HETATM    7  C   UNL     1      23.645  45.180  48.617  1.00  0.00     0.173 C 
BRANCH   7   8
HETATM    8  O   UNL     1      23.159  44.414  47.509  1.00  0.00    -0.389 OA
HETATM    9  H   UNL     1      23.113  43.490  47.812  1.00  0.00     0.210 HD
ENDBRANCH   7   8
BRANCH   7  10
HETATM   10  C   UNL     1      22.818  46.451  48.719  1.00  0.00    -0.028 A 
HETATM   11  C   UNL     1      21.454  46.434  48.393  1.00  0.00     0.012 A 
HETATM   12  C   UNL     1      20.690  47.602  48.473  1.00  0.00     0.037 A 
HETATM   13  C   UNL     1      21.267  48.797  48.903  1.00  0.00     0.068 A 
HETATM   14  C   UNL     1      22.627  48.834  49.204  1.00  0.00     0.037 A 
HETATM   15  C   UNL     1      23.396  47.669  49.112  1.00  0.00     0.012 A 
BRANCH  13  16
HETATM   16  O   UNL     1      20.418  49.869  48.966  1.00  0.00    -0.356 OA
HETATM   17  C   UNL     1      20.748  50.847  49.948  1.00  0.00     0.210 C 
ENDBRANCH  13  16
ENDBRANCH   7  10
ENDBRANCH   5   7
ENDBRANCH   2   5
BRANCH   1  18
HETATM   18  C   UNL     1      26.648  44.640  52.126  1.00  0.00     0.075 C 
HETATM   19  C   UNL     1      27.010  44.665  53.470  1.00  0.00     0.051 C 
HETATM   20  C   UNL     1      26.230  45.022  54.687  1.00  0.00     0.071 C 
HETATM   21  N   UNL     1      28.340  44.236  53.525  1.00  0.00    -0.220 N 
HETATM   22  N   UNL     1      28.753  43.764  52.314  1.00  0.00    -0.177 NA
HETATM   23  C   UNL     1      27.745  44.029  51.488  1.00  0.00     0.158 C 
BRANCH  21  24
HETATM   24  C   UNL     1      29.249  44.268  54.637  1.00  0.00     0.150 A 
HETATM   25  N   UNL     1      29.341  45.400  55.386  1.00  0.00    -0.241 NA
HETATM   26  C   UNL     1      30.236  45.406  56.400  1.00  0.00     0.119 A 
HETATM   27  C   UNL     1      31.052  44.333  56.716  1.00  0.00     0.019 A 
HETATM   28  C   UNL     1      30.947  43.182  55.946  1.00  0.00     0.005 A 
HETATM   29  C   UNL     1      30.037  43.145  54.891  1.00  0.00     0.052 A 
ENDBRANCH  21  24
ENDBRANCH   1  18
TORSDOF 7
ENDMDL
