MODEL 1
REMARK VINA RESULT:     -10.0      0.000      0.000
REMARK  4 active torsions:
REMARK  status: ('A' for Active; 'I' for Inactive)
REMARK    1  A    between atoms: N_4  and  C_5 
REMARK    2  A    between atoms: C_14  and  C_15 
REMARK       I    between atoms: C_15  and  N_16 
REMARK    3  A    between atoms: N_16  and  N_17 
REMARK       I    between atoms: N_17  and  C_18 
REMARK       I    between atoms: C_18  and  N_19 
REMARK    4  A    between atoms: N_19  and  C_20 
ROOT
HETATM    1  C   UNL     1      24.018  43.510  50.515  1.00  0.00     0.277 C 
HETATM    2  N   UNL     1      24.024  44.605  49.673  1.00  0.00    -0.261 N 
HETATM    3  O   UNL     1      22.980  42.889  50.745  1.00  0.00    -0.265 OA
HETATM    4  H   UNL     1      24.852  45.189  49.552  1.00  0.00     0.190 HD
ENDROOT
BRANCH   1   5
HETATM    5  C   UNL     1      25.309  43.162  51.091  1.00  0.00     0.077 A 
HETATM    6  S   UNL     1      26.056  44.169  52.310  1.00  0.00    -0.064 SA
HETATM    7  C   UNL     1      27.345  43.122  52.428  1.00  0.00     0.113 A 
HETATM    8  N   UNL     1      28.515  42.964  53.128  1.00  0.00    -0.226 N 
HETATM    9  C   UNL     1      27.235  42.082  51.595  1.00  0.00     0.027 A 
HETATM   10  N   UNL     1      29.154  41.813  52.691  1.00  0.00    -0.171 NA
HETATM   11  C   UNL     1      28.351  41.281  51.750  1.00  0.00     0.064 A 
HETATM   12  C   UNL     1      28.722  40.031  51.052  1.00  0.00     0.073 C 
HETATM   13  C   UNL     1      26.088  42.038  50.808  1.00  0.00     0.041 A 
BRANCH   8  14
HETATM   14  C   UNL     1      29.095  43.753  54.164  1.00  0.00     0.059 A 
HETATM   15  C   UNL     1      30.265  43.296  54.793  1.00  0.00     0.031 A 
HETATM   16  C   UNL     1      30.856  44.033  55.824  1.00  0.00     0.002 A 
HETATM   17  C   UNL     1      30.287  45.234  56.237  1.00  0.00     0.000 A 
HETATM   18  C   UNL     1      29.129  45.699  55.618  1.00  0.00     0.002 A 
HETATM   19  C   UNL     1      28.534  44.964  54.587  1.00  0.00     0.031 A 
ENDBRANCH   8  14
ENDBRANCH   1   5
BRANCH   2  20
HETATM   20  N   UNL     1      22.816  45.138  49.194  1.00  0.00    -0.249 N 
HETATM   21  C   UNL     1      22.721  46.523  49.218  1.00  0.00     0.339 C 
HETATM   22  N   UNL     1      21.472  46.962  48.842  1.00  0.00    -0.308 N 
HETATM   23  O   UNL     1      23.691  47.212  49.519  1.00  0.00    -0.245 OA
HETATM   24  H   UNL     1      20.811  46.245  48.582  1.00  0.00     0.170 HD
HETATM   25  H   UNL     1      21.996  44.561  49.367  1.00  0.00     0.192 HD
BRANCH  22  26
HETATM   26  C   UNL     1      21.039  48.297  48.712  1.00  0.00     0.036 A 
HETATM   27  C   UNL     1      21.596  49.215  47.816  1.00  0.00     0.031 A 
HETATM   28  C   UNL     1      21.101  50.521  47.733  1.00  0.00     0.026 A 
HETATM   29  C   UNL     1      20.046  50.916  48.548  1.00  0.00     0.034 A 
HETATM   30 CL   UNL     1      19.434  52.520  48.441  1.00  0.00    -0.084 Cl
HETATM   31  C   UNL     1      19.483  50.018  49.449  1.00  0.00     0.026 A 
HETATM   32  C   UNL     1      19.979  48.712  49.530  1.00  0.00     0.031 A 
ENDBRANCH  22  26
ENDBRANCH   2  20
TORSDOF 4
ENDMDL
MODEL 2
REMARK VINA RESULT:      -9.8      2.612      3.717
REMARK  4 active torsions:
REMARK  status: ('A' for Active; 'I' for Inactive)
REMARK    1  A    between atoms: N_4  and  C_5 
REMARK    2  A    between atoms: C_14  and  C_15 
REMARK       I    between atoms: C_15  and  N_16 
REMARK    3  A    between atoms: N_16  and  N_17 
REMARK       I    between atoms: N_17  and  C_18 
REMARK       I    between atoms: C_18  and  N_19 
REMARK    4  A    between atoms: N_19  and  C_20 
ROOT
HETATM    1  C   UNL     1      24.828  45.839  51.279  1.00  0.00     0.277 C 
HETATM    2  N   UNL     1      24.819  46.872  50.362  1.00  0.00    -0.261 N 
HETATM    3  O   UNL     1      24.192  44.805  51.080  1.00  0.00    -0.265 OA
HETATM    4  H   UNL     1      25.257  47.772  50.557  1.00  0.00     0.190 HD
ENDROOT
BRANCH   1   5
HETATM    5  C   UNL     1      25.636  46.072  52.468  1.00  0.00     0.077 A 
HETATM    6  S   UNL     1      26.885  44.945  52.947  1.00  0.00    -0.064 SA
HETATM    7  C   UNL     1      27.293  45.904  54.245  1.00  0.00     0.113 A 
HETATM    8  N   UNL     1      28.188  45.946  55.285  1.00  0.00    -0.226 N 
HETATM    9  C   UNL     1      26.533  47.000  54.329  1.00  0.00     0.027 A 
HETATM   10  N   UNL     1      27.951  47.083  56.043  1.00  0.00    -0.171 NA
HETATM   11  C   UNL     1      26.930  47.722  55.440  1.00  0.00     0.064 A 
HETATM   12  C   UNL     1      26.398  48.990  55.984  1.00  0.00     0.073 C 
HETATM   13  C   UNL     1      25.571  47.163  53.337  1.00  0.00     0.041 A 
BRANCH   8  14
HETATM   14  C   UNL     1      29.246  45.058  55.642  1.00  0.00     0.059 A 
HETATM   15  C   UNL     1      29.994  45.323  56.801  1.00  0.00     0.031 A 
HETATM   16  C   UNL     1      31.048  44.485  57.177  1.00  0.00     0.002 A 
HETATM   17  C   UNL     1      31.367  43.375  56.400  1.00  0.00     0.000 A 
HETATM   18  C   UNL     1      30.630  43.102  55.250  1.00  0.00     0.002 A 
HETATM   19  C   UNL     1      29.575  43.937  54.870  1.00  0.00     0.031 A 
ENDBRANCH   8  14
ENDBRANCH   1   5
BRANCH   2  20
HETATM   20  N   UNL     1      23.947  46.835  49.261  1.00  0.00    -0.249 N 
HETATM   21  C   UNL     1      23.066  47.903  49.158  1.00  0.00     0.339 C 
HETATM   22  N   UNL     1      22.173  47.738  48.124  1.00  0.00    -0.308 N 
HETATM   23  O   UNL     1      23.156  48.864  49.916  1.00  0.00    -0.245 OA
HETATM   24  H   UNL     1      22.283  46.900  47.574  1.00  0.00     0.170 HD
HETATM   25  H   UNL     1      23.663  45.901  48.973  1.00  0.00     0.192 HD
BRANCH  22  26
HETATM   26  C   UNL     1      21.174  48.642  47.706  1.00  0.00     0.036 A 
HETATM   27  C   UNL     1      21.257  50.027  47.869  1.00  0.00     0.031 A 
HETATM   28  C   UNL     1      20.230  50.862  47.412  1.00  0.00     0.026 A 
HETATM   29  C   UNL     1      19.114  50.312  46.792  1.00  0.00     0.034 A 
HETATM   30 CL   UNL     1      17.855  51.339  46.227  1.00  0.00    -0.084 Cl
HETATM   31  C   UNL     1      19.012  48.934  46.627  1.00  0.00     0.026 A 
HETATM   32  C   UNL     1      20.040  48.102  47.083  1.00  0.00     0.031 A 
ENDBRANCH  22  26
ENDBRANCH   2  20
TORSDOF 4
ENDMDL
MODEL 3
REMARK VINA RESULT:      -9.7      3.903     10.085
REMARK  4 active torsions:
REMARK  status: ('A' for Active; 'I' for Inactive)
REMARK    1  A    between atoms: N_4  and  C_5 
REMARK    2  A    between atoms: C_14  and  C_15 
REMARK       I    between atoms: C_15  and  N_16 
REMARK    3  A    between atoms: N_16  and  N_17 
REMARK       I    between atoms: N_17  and  C_18 
REMARK       I    between atoms: C_18  and  N_19 
REMARK    4  A    between atoms: N_19  and  C_20 
ROOT
HETATM    1  C   UNL     1      26.343  44.934  49.842  1.00  0.00     0.277 C 
HETATM    2  N   UNL     1      26.336  43.946  50.806  1.00  0.00    -0.261 N 
HETATM    3  O   UNL     1      27.400  45.389  49.404  1.00  0.00    -0.265 OA
HETATM    4  H   UNL     1      25.473  43.631  51.251  1.00  0.00     0.190 HD
ENDROOT
BRANCH   1   5
HETATM    5  C   UNL     1      25.029  45.380  49.399  1.00  0.00     0.077 A 
HETATM    6  S   UNL     1      24.485  47.016  49.693  1.00  0.00    -0.064 SA
HETATM    7  C   UNL     1      23.051  46.712  48.903  1.00  0.00     0.113 A 
HETATM    8  N   UNL     1      21.891  47.349  48.540  1.00  0.00    -0.226 N 
HETATM    9  C   UNL     1      22.973  45.455  48.455  1.00  0.00     0.027 A 
HETATM   10  N   UNL     1      21.067  46.451  47.879  1.00  0.00    -0.171 NA
HETATM   11  C   UNL     1      21.749  45.291  47.832  1.00  0.00     0.064 A 
HETATM   12  C   UNL     1      21.166  44.091  47.193  1.00  0.00     0.073 C 
HETATM   13  C   UNL     1      24.076  44.642  48.696  1.00  0.00     0.041 A 
BRANCH   8  14
HETATM   14  C   UNL     1      21.471  48.700  48.727  1.00  0.00     0.059 A 
HETATM   15  C   UNL     1      20.161  48.950  49.167  1.00  0.00     0.031 A 
HETATM   16  C   UNL     1      19.706  50.259  49.347  1.00  0.00     0.002 A 
HETATM   17  C   UNL     1      20.554  51.333  49.091  1.00  0.00     0.000 A 
HETATM   18  C   UNL     1      21.856  51.097  48.657  1.00  0.00     0.002 A 
HETATM   19  C   UNL     1      22.315  49.788  48.475  1.00  0.00     0.031 A 
ENDBRANCH   8  14
ENDBRANCH   1   5
BRANCH   2  20
HETATM   20  N   UNL     1      27.531  43.556  51.432  1.00  0.00    -0.249 N 
HETATM   21  C   UNL     1      27.758  44.105  52.686  1.00  0.00     0.339 C 
HETATM   22  N   UNL     1      28.997  43.767  53.182  1.00  0.00    -0.308 N 
HETATM   23  O   UNL     1      26.895  44.779  53.241  1.00  0.00    -0.245 OA
HETATM   24  H   UNL     1      29.556  43.161  52.600  1.00  0.00     0.170 HD
HETATM   25  H   UNL     1      28.306  43.378  50.798  1.00  0.00     0.192 HD
BRANCH  22  26
HETATM   26  C   UNL     1      29.538  44.112  54.438  1.00  0.00     0.036 A 
HETATM   27  C   UNL     1      29.149  45.235  55.173  1.00  0.00     0.031 A 
HETATM   28  C   UNL     1      29.721  45.503  56.423  1.00  0.00     0.026 A 
HETATM   29  C   UNL     1      30.687  44.648  56.941  1.00  0.00     0.034 A 
HETATM   30 CL   UNL     1      31.386  44.975  58.478  1.00  0.00    -0.084 Cl
HETATM   31  C   UNL     1      31.090  43.528  56.220  1.00  0.00     0.026 A 
HETATM   32  C   UNL     1      30.516  43.261  54.971  1.00  0.00     0.031 A 
ENDBRANCH  22  26
ENDBRANCH   2  20
TORSDOF 4
ENDMDL
MODEL 4
REMARK VINA RESULT:      -9.6      2.501      3.882
REMARK  4 active torsions:
REMARK  status: ('A' for Active; 'I' for Inactive)
REMARK    1  A    between atoms: N_4  and  C_5 
REMARK    2  A    between atoms: C_14  and  C_15 
REMARK       I    between atoms: C_15  and  N_16 
REMARK    3  A    between atoms: N_16  and  N_17 
REMARK       I    between atoms: N_17  and  C_18 
REMARK       I    between atoms: C_18  and  N_19 
REMARK    4  A    between atoms: N_19  and  C_20 
ROOT
HETATM    1  C   UNL     1      24.304  48.353  49.595  1.00  0.00     0.277 C 
HETATM    2  N   UNL     1      22.940  48.568  49.614  1.00  0.00    -0.261 N 
HETATM    3  O   UNL     1      25.082  49.232  49.224  1.00  0.00    -0.265 OA
HETATM    4  H   UNL     1      22.278  47.820  49.821  1.00  0.00     0.190 HD
ENDROOT
BRANCH   1   5
HETATM    5  C   UNL     1      24.732  47.034  50.039  1.00  0.00     0.077 A 
HETATM    6  S   UNL     1      26.126  46.838  51.075  1.00  0.00    -0.064 SA
HETATM    7  C   UNL     1      25.897  45.190  51.123  1.00  0.00     0.113 A 
HETATM    8  N   UNL     1      26.442  44.065  51.689  1.00  0.00    -0.226 N 
HETATM    9  C   UNL     1      24.845  44.801  50.395  1.00  0.00     0.027 A 
HETATM   10  N   UNL     1      25.724  42.953  51.273  1.00  0.00    -0.171 NA
HETATM   11  C   UNL     1      24.744  43.424  50.480  1.00  0.00     0.064 A 
HETATM   12  C   UNL     1      23.772  42.507  49.845  1.00  0.00     0.073 C 
HETATM   13  C   UNL     1      24.128  45.807  49.756  1.00  0.00     0.041 A 
BRANCH   8  14
HETATM   14  C   UNL     1      27.543  43.910  52.582  1.00  0.00     0.059 A 
HETATM   15  C   UNL     1      28.604  43.066  52.214  1.00  0.00     0.031 A 
HETATM   16  C   UNL     1      29.694  42.876  53.069  1.00  0.00     0.002 A 
HETATM   17  C   UNL     1      29.737  43.526  54.298  1.00  0.00     0.000 A 
HETATM   18  C   UNL     1      28.693  44.368  54.672  1.00  0.00     0.002 A 
HETATM   19  C   UNL     1      27.600  44.561  53.821  1.00  0.00     0.031 A 
ENDBRANCH   8  14
ENDBRANCH   1   5
BRANCH   2  20
HETATM   20  N   UNL     1      22.398  49.735  49.052  1.00  0.00    -0.249 N 
HETATM   21  C   UNL     1      21.026  49.890  49.199  1.00  0.00     0.339 C 
HETATM   22  N   UNL     1      20.555  50.994  48.526  1.00  0.00    -0.308 N 
HETATM   23  O   UNL     1      20.379  49.111  49.892  1.00  0.00    -0.245 OA
HETATM   24  H   UNL     1      21.248  51.548  48.046  1.00  0.00     0.170 HD
HETATM   25  H   UNL     1      22.867  50.061  48.210  1.00  0.00     0.192 HD
BRANCH  22  26
HETATM   26  C   UNL     1      19.230  51.475  48.495  1.00  0.00     0.036 A 
HETATM   27  C   UNL     1      18.405  51.416  47.369  1.00  0.00     0.031 A 
HETATM   28  C   UNL     1      17.092  51.900  47.419  1.00  0.00     0.026 A 
HETATM   29  C   UNL     1      16.601  52.449  48.598  1.00  0.00     0.034 A 
HETATM   30 CL   UNL     1      14.987  53.039  48.662  1.00  0.00    -0.084 Cl
HETATM   31  C   UNL     1      17.410  52.521  49.728  1.00  0.00     0.026 A 
HETATM   32  C   UNL     1      18.722  52.035  49.675  1.00  0.00     0.031 A 
ENDBRANCH  22  26
ENDBRANCH   2  20
TORSDOF 4
ENDMDL
MODEL 5
REMARK VINA RESULT:      -9.5      5.842      8.492
REMARK  4 active torsions:
REMARK  status: ('A' for Active; 'I' for Inactive)
REMARK    1  A    between atoms: N_4  and  C_5 
REMARK    2  A    between atoms: C_14  and  C_15 
REMARK       I    between atoms: C_15  and  N_16 
REMARK    3  A    between atoms: N_16  and  N_17 
REMARK       I    between atoms: N_17  and  C_18 
REMARK       I    between atoms: C_18  and  N_19 
REMARK    4  A    between atoms: N_19  and  C_20 
ROOT
HETATM    1  C   UNL     1      26.049  42.076  51.362  1.00  0.00     0.277 C 
HETATM    2  N   UNL     1      26.531  40.793  51.532  1.00  0.00    -0.261 N 
HETATM    3  O   UNL     1      25.246  42.341  50.467  1.00  0.00    -0.265 OA
HETATM    4  H   UNL     1      27.271  40.578  52.201  1.00  0.00     0.190 HD
ENDROOT
BRANCH   1   5
HETATM    5  C   UNL     1      26.557  43.061  52.306  1.00  0.00     0.077 A 
HETATM    6  S   UNL     1      27.833  42.658  53.432  1.00  0.00    -0.064 SA
HETATM    7  C   UNL     1      27.829  44.209  54.037  1.00  0.00     0.113 A 
HETATM    8  N   UNL     1      28.480  44.981  54.968  1.00  0.00    -0.226 N 
HETATM    9  C   UNL     1      26.917  44.986  53.443  1.00  0.00     0.027 A 
HETATM   10  N   UNL     1      27.933  46.255  54.964  1.00  0.00    -0.171 NA
HETATM   11  C   UNL     1      26.975  46.242  54.018  1.00  0.00     0.064 A 
HETATM   12  C   UNL     1      26.167  47.449  53.737  1.00  0.00     0.073 C 
HETATM   13  C   UNL     1      26.163  44.394  52.435  1.00  0.00     0.041 A 
BRANCH   8  14
HETATM   14  C   UNL     1      29.560  44.669  55.845  1.00  0.00     0.059 A 
HETATM   15  C   UNL     1      29.727  45.431  57.014  1.00  0.00     0.031 A 
HETATM   16  C   UNL     1      30.783  45.168  57.892  1.00  0.00     0.002 A 
HETATM   17  C   UNL     1      31.681  44.142  57.614  1.00  0.00     0.000 A 
HETATM   18  C   UNL     1      31.523  43.378  56.460  1.00  0.00     0.002 A 
HETATM   19  C   UNL     1      30.469  43.639  55.578  1.00  0.00     0.031 A 
ENDBRANCH   8  14
ENDBRANCH   1   5
BRANCH   2  20
HETATM   20  N   UNL     1      26.247  39.797  50.584  1.00  0.00    -0.249 N 
HETATM   21  C   UNL     1      27.160  39.680  49.545  1.00  0.00     0.339 C 
HETATM   22  N   UNL     1      26.754  38.765  48.601  1.00  0.00    -0.308 N 
HETATM   23  O   UNL     1      28.202  40.328  49.551  1.00  0.00    -0.245 OA
HETATM   24  H   UNL     1      25.884  38.291  48.789  1.00  0.00     0.170 HD
HETATM   25  H   UNL     1      25.256  39.631  50.422  1.00  0.00     0.192 HD
BRANCH  22  26
HETATM   26  C   UNL     1      27.453  38.365  47.442  1.00  0.00     0.036 A 
HETATM   27  C   UNL     1      28.365  37.307  47.407  1.00  0.00     0.031 A 
HETATM   28  C   UNL     1      29.008  36.959  46.214  1.00  0.00     0.026 A 
HETATM   29  C   UNL     1      28.742  37.671  45.050  1.00  0.00     0.034 A 
HETATM   30 CL   UNL     1      29.529  37.239  43.582  1.00  0.00    -0.084 Cl
HETATM   31  C   UNL     1      27.841  38.731  45.067  1.00  0.00     0.026 A 
HETATM   32  C   UNL     1      27.198  39.076  46.262  1.00  0.00     0.031 A 
ENDBRANCH  22  26
ENDBRANCH   2  20
TORSDOF 4
ENDMDL
MODEL 6
REMARK VINA RESULT:      -9.2      5.722      8.465
REMARK  4 active torsions:
REMARK  status: ('A' for Active; 'I' for Inactive)
REMARK    1  A    between atoms: N_4  and  C_5 
REMARK    2  A    between atoms: C_14  and  C_15 
REMARK       I    between atoms: C_15  and  N_16 
REMARK    3  A    between atoms: N_16  and  N_17 
REMARK       I    between atoms: N_17  and  C_18 
REMARK       I    between atoms: C_18  and  N_19 
REMARK    4  A    between atoms: N_19  and  C_20 
ROOT
HETATM    1  C   UNL     1      26.966  41.769  50.123  1.00  0.00     0.277 C 
HETATM    2  N   UNL     1      26.924  42.298  48.849  1.00  0.00    -0.261 N 
HETATM    3  O   UNL     1      26.860  40.558  50.315  1.00  0.00    -0.265 OA
HETATM    4  H   UNL     1      26.909  43.304  48.680  1.00  0.00     0.190 HD
ENDROOT
BRANCH   1   5
HETATM    5  C   UNL     1      27.141  42.742  51.194  1.00  0.00     0.077 A 
HETATM    6  S   UNL     1      28.326  42.492  52.455  1.00  0.00    -0.064 SA
HETATM    7  C   UNL     1      27.928  43.947  53.158  1.00  0.00     0.113 A 
HETATM    8  N   UNL     1      28.288  44.739  54.220  1.00  0.00    -0.226 N 
HETATM    9  C   UNL     1      26.955  44.583  52.498  1.00  0.00     0.027 A 
HETATM   10  N   UNL     1      27.494  45.877  54.228  1.00  0.00    -0.171 NA
HETATM   11  C   UNL     1      26.681  45.766  53.161  1.00  0.00     0.064 A 
HETATM   12  C   UNL     1      25.681  46.812  52.853  1.00  0.00     0.073 C 
HETATM   13  C   UNL     1      26.466  43.953  51.358  1.00  0.00     0.041 A 
BRANCH   8  14
HETATM   14  C   UNL     1      29.294  44.564  55.215  1.00  0.00     0.059 A 
HETATM   15  C   UNL     1      29.424  45.530  56.228  1.00  0.00     0.031 A 
HETATM   16  C   UNL     1      30.409  45.402  57.212  1.00  0.00     0.002 A 
HETATM   17  C   UNL     1      31.272  44.311  57.197  1.00  0.00     0.000 A 
HETATM   18  C   UNL     1      31.150  43.346  56.200  1.00  0.00     0.002 A 
HETATM   19  C   UNL     1      30.167  43.470  55.212  1.00  0.00     0.031 A 
ENDBRANCH   8  14
ENDBRANCH   1   5
BRANCH   2  20
HETATM   20  N   UNL     1      26.591  41.484  47.754  1.00  0.00    -0.249 N 
HETATM   21  C   UNL     1      27.661  41.046  46.985  1.00  0.00     0.339 C 
HETATM   22  N   UNL     1      27.247  40.352  45.871  1.00  0.00    -0.308 N 
HETATM   23  O   UNL     1      28.816  41.263  47.337  1.00  0.00    -0.245 OA
HETATM   24  H   UNL     1      26.250  40.232  45.770  1.00  0.00     0.170 HD
HETATM   25  H   UNL     1      25.696  41.697  47.320  1.00  0.00     0.192 HD
BRANCH  22  26
HETATM   26  C   UNL     1      28.060  39.731  44.899  1.00  0.00     0.036 A 
HETATM   27  C   UNL     1      28.241  38.349  44.801  1.00  0.00     0.031 A 
HETATM   28  C   UNL     1      29.051  37.805  43.798  1.00  0.00     0.026 A 
HETATM   29  C   UNL     1      29.687  38.644  42.890  1.00  0.00     0.034 A 
HETATM   30 CL   UNL     1      30.679  37.975  41.654  1.00  0.00    -0.084 Cl
HETATM   31  C   UNL     1      29.522  40.023  42.976  1.00  0.00     0.026 A 
HETATM   32  C   UNL     1      28.710  40.564  43.979  1.00  0.00     0.031 A 
ENDBRANCH  22  26
ENDBRANCH   2  20
TORSDOF 4
ENDMDL
MODEL 7
REMARK VINA RESULT:      -9.0      1.423      1.970
REMARK  4 active torsions:
REMARK  status: ('A' for Active; 'I' for Inactive)
REMARK    1  A    between atoms: N_4  and  C_5 
REMARK    2  A    between atoms: C_14  and  C_15 
REMARK       I    between atoms: C_15  and  N_16 
REMARK    3  A    between atoms: N_16  and  N_17 
REMARK       I    between atoms: N_17  and  C_18 
REMARK       I    between atoms: C_18  and  N_19 
REMARK    4  A    between atoms: N_19  and  C_20 
ROOT
HETATM    1  C   UNL     1      23.140  43.162  49.085  1.00  0.00     0.277 C 
HETATM    2  N   UNL     1      22.913  44.480  49.426  1.00  0.00    -0.261 N 
HETATM    3  O   UNL     1      22.354  42.545  48.367  1.00  0.00    -0.265 OA
HETATM    4  H   UNL     1      23.499  44.974  50.100  1.00  0.00     0.190 HD
ENDROOT
BRANCH   1   5
HETATM    5  C   UNL     1      24.358  42.580  49.632  1.00  0.00     0.077 A 
HETATM    6  S   UNL     1      25.291  43.418  50.850  1.00  0.00    -0.064 SA
HETATM    7  C   UNL     1      26.374  42.156  50.931  1.00  0.00     0.113 A 
HETATM    8  N   UNL     1      27.509  41.781  51.606  1.00  0.00    -0.226 N 
HETATM    9  C   UNL     1      26.067  41.166  50.086  1.00  0.00     0.027 A 
HETATM   10  N   UNL     1      27.925  40.541  51.143  1.00  0.00    -0.171 NA
HETATM   11  C   UNL     1      27.025  40.176  50.210  1.00  0.00     0.064 A 
HETATM   12  C   UNL     1      27.155  38.891  49.489  1.00  0.00     0.073 C 
HETATM   13  C   UNL     1      24.919  41.340  49.321  1.00  0.00     0.041 A 
BRANCH   8  14
HETATM   14  C   UNL     1      28.237  42.437  52.642  1.00  0.00     0.059 A 
HETATM   15  C   UNL     1      27.539  43.235  53.563  1.00  0.00     0.031 A 
HETATM   16  C   UNL     1      28.219  43.908  54.583  1.00  0.00     0.002 A 
HETATM   17  C   UNL     1      29.601  43.790  54.695  1.00  0.00     0.000 A 
HETATM   18  C   UNL     1      30.303  42.999  53.789  1.00  0.00     0.002 A 
HETATM   19  C   UNL     1      29.627  42.325  52.766  1.00  0.00     0.031 A 
ENDBRANCH   8  14
ENDBRANCH   1   5
BRANCH   2  20
HETATM   20  N   UNL     1      21.693  45.097  49.102  1.00  0.00    -0.249 N 
HETATM   21  C   UNL     1      21.729  46.482  49.006  1.00  0.00     0.339 C 
HETATM   22  N   UNL     1      20.479  47.018  48.799  1.00  0.00    -0.308 N 
HETATM   23  O   UNL     1      22.794  47.088  49.076  1.00  0.00    -0.245 OA
HETATM   24  H   UNL     1      19.721  46.356  48.720  1.00  0.00     0.170 HD
HETATM   25  H   UNL     1      20.867  44.625  49.461  1.00  0.00     0.192 HD
BRANCH  22  26
HETATM   26  C   UNL     1      20.152  48.377  48.611  1.00  0.00     0.036 A 
HETATM   27  C   UNL     1      20.178  49.023  47.372  1.00  0.00     0.031 A 
HETATM   28  C   UNL     1      19.823  50.372  47.263  1.00  0.00     0.026 A 
HETATM   29  C   UNL     1      19.444  51.083  48.396  1.00  0.00     0.034 A 
HETATM   30 CL   UNL     1      19.003  52.740  48.260  1.00  0.00    -0.084 Cl
HETATM   31  C   UNL     1      19.417  50.458  49.639  1.00  0.00     0.026 A 
HETATM   32  C   UNL     1      19.771  49.108  49.745  1.00  0.00     0.031 A 
ENDBRANCH  22  26
ENDBRANCH   2  20
TORSDOF 4
ENDMDL
MODEL 8
REMARK VINA RESULT:      -8.9      3.043      3.501
REMARK  4 active torsions:
REMARK  status: ('A' for Active; 'I' for Inactive)
REMARK    1  A    between atoms: N_4  and  C_5 
REMARK    2  A    between atoms: C_14  and  C_15 
REMARK       I    between atoms: C_15  and  N_16 
REMARK    3  A    between atoms: N_16  and  N_17 
REMARK       I    between atoms: N_17  and  C_18 
REMARK       I    between atoms: C_18  and  N_19 
REMARK    4  A    between atoms: N_19  and  C_20 
ROOT
HETATM    1  C   UNL     1      24.751  45.782  51.044  1.00  0.00     0.277 C 
HETATM    2  N   UNL     1      23.828  45.098  50.278  1.00  0.00    -0.261 N 
HETATM    3  O   UNL     1      24.639  46.990  51.250  1.00  0.00    -0.265 OA
HETATM    4  H   UNL     1      23.961  44.122  50.014  1.00  0.00     0.190 HD
ENDROOT
BRANCH   1   5
HETATM    5  C   UNL     1      25.840  44.973  51.573  1.00  0.00     0.077 A 
HETATM    6  S   UNL     1      26.785  45.515  52.941  1.00  0.00    -0.064 SA
HETATM    7  C   UNL     1      27.686  44.115  52.912  1.00  0.00     0.113 A 
HETATM    8  N   UNL     1      28.710  43.505  53.592  1.00  0.00    -0.226 N 
HETATM    9  C   UNL     1      27.314  43.290  51.927  1.00  0.00     0.027 A 
HETATM   10  N   UNL     1      28.994  42.287  52.991  1.00  0.00    -0.171 NA
HETATM   11  C   UNL     1      28.123  42.170  51.969  1.00  0.00     0.064 A 
HETATM   12  C   UNL     1      28.137  40.979  51.091  1.00  0.00     0.073 C 
HETATM   13  C   UNL     1      26.256  43.716  51.130  1.00  0.00     0.041 A 
BRANCH   8  14
HETATM   14  C   UNL     1      29.442  43.919  54.744  1.00  0.00     0.059 A 
HETATM   15  C   UNL     1      30.445  43.077  55.252  1.00  0.00     0.031 A 
HETATM   16  C   UNL     1      31.173  43.440  56.388  1.00  0.00     0.002 A 
HETATM   17  C   UNL     1      30.910  44.647  57.029  1.00  0.00     0.000 A 
HETATM   18  C   UNL     1      29.920  45.492  56.532  1.00  0.00     0.002 A 
HETATM   19  C   UNL     1      29.188  45.132  55.396  1.00  0.00     0.031 A 
ENDBRANCH   8  14
ENDBRANCH   1   5
BRANCH   2  20
HETATM   20  N   UNL     1      22.832  45.797  49.576  1.00  0.00    -0.249 N 
HETATM   21  C   UNL     1      21.943  45.011  48.856  1.00  0.00     0.339 C 
HETATM   22  N   UNL     1      21.072  45.770  48.107  1.00  0.00    -0.308 N 
HETATM   23  O   UNL     1      21.970  43.788  48.950  1.00  0.00    -0.245 OA
HETATM   24  H   UNL     1      21.171  46.770  48.193  1.00  0.00     0.170 HD
HETATM   25  H   UNL     1      23.117  46.709  49.225  1.00  0.00     0.192 HD
BRANCH  22  26
HETATM   26  C   UNL     1      20.016  45.307  47.296  1.00  0.00     0.036 A 
HETATM   27  C   UNL     1      20.197  44.541  46.140  1.00  0.00     0.031 A 
HETATM   28  C   UNL     1      19.097  44.104  45.395  1.00  0.00     0.026 A 
HETATM   29  C   UNL     1      17.808  44.433  45.801  1.00  0.00     0.034 A 
HETATM   30 CL   UNL     1      16.456  43.891  44.887  1.00  0.00    -0.084 Cl
HETATM   31  C   UNL     1      17.609  45.199  46.945  1.00  0.00     0.026 A 
HETATM   32  C   UNL     1      18.711  45.634  47.690  1.00  0.00     0.031 A 
ENDBRANCH  22  26
ENDBRANCH   2  20
TORSDOF 4
ENDMDL
MODEL 9
REMARK VINA RESULT:      -8.7      4.306     11.462
REMARK  4 active torsions:
REMARK  status: ('A' for Active; 'I' for Inactive)
REMARK    1  A    between atoms: N_4  and  C_5 
REMARK    2  A    between atoms: C_14  and  C_15 
REMARK       I    between atoms: C_15  and  N_16 
REMARK    3  A    between atoms: N_16  and  N_17 
REMARK       I    between atoms: N_17  and  C_18 
REMARK       I    between atoms: C_18  and  N_19 
REMARK    4  A    between atoms: N_19  and  C_20 
ROOT
HETATM    1  C   UNL     1      23.323  48.765  49.359  1.00  0.00     0.277 C 
HETATM    2  N   UNL     1      23.552  47.565  50.003  1.00  0.00    -0.261 N 
HETATM    3  O   UNL     1      24.204  49.620  49.274  1.00  0.00    -0.265 OA
HETATM    4  H   UNL     1      22.805  46.890  50.170  1.00  0.00     0.190 HD
ENDROOT
BRANCH   1   5
HETATM    5  C   UNL     1      21.986  48.927  48.804  1.00  0.00     0.077 A 
HETATM    6  S   UNL     1      20.873  50.104  49.462  1.00  0.00    -0.064 SA
HETATM    7  C   UNL     1      19.724  49.694  48.329  1.00  0.00     0.113 A 
HETATM    8  N   UNL     1      18.454  50.042  47.940  1.00  0.00    -0.226 N 
HETATM    9  C   UNL     1      20.139  48.723  47.511  1.00  0.00     0.027 A 
HETATM   10  N   UNL     1      18.070  49.243  46.874  1.00  0.00    -0.171 NA
HETATM   11  C   UNL     1      19.120  48.438  46.621  1.00  0.00     0.064 A 
HETATM   12  C   UNL     1      19.065  47.435  45.535  1.00  0.00     0.073 C 
HETATM   13  C   UNL     1      21.429  48.246  47.721  1.00  0.00     0.041 A 
BRANCH   8  14
HETATM   14  C   UNL     1      17.568  51.043  48.438  1.00  0.00     0.059 A 
HETATM   15  C   UNL     1      16.291  51.166  47.865  1.00  0.00     0.031 A 
HETATM   16  C   UNL     1      15.399  52.144  48.314  1.00  0.00     0.002 A 
HETATM   17  C   UNL     1      15.770  53.008  49.340  1.00  0.00     0.000 A 
HETATM   18  C   UNL     1      17.032  52.892  49.919  1.00  0.00     0.002 A 
HETATM   19  C   UNL     1      17.929  51.916  49.472  1.00  0.00     0.031 A 
ENDBRANCH   8  14
ENDBRANCH   1   5
BRANCH   2  20
HETATM   20  N   UNL     1      24.741  47.361  50.722  1.00  0.00    -0.249 N 
HETATM   21  C   UNL     1      25.022  46.042  51.053  1.00  0.00     0.339 C 
HETATM   22  N   UNL     1      26.138  45.936  51.851  1.00  0.00    -0.308 N 
HETATM   23  O   UNL     1      24.330  45.126  50.619  1.00  0.00    -0.245 OA
HETATM   24  H   UNL     1      26.610  46.801  52.068  1.00  0.00     0.170 HD
HETATM   25  H   UNL     1      24.992  48.117  51.354  1.00  0.00     0.192 HD
BRANCH  22  26
HETATM   26  C   UNL     1      26.734  44.753  52.335  1.00  0.00     0.036 A 
HETATM   27  C   UNL     1      26.553  44.263  53.632  1.00  0.00     0.031 A 
HETATM   28  C   UNL     1      27.165  43.071  54.035  1.00  0.00     0.026 A 
HETATM   29  C   UNL     1      27.964  42.365  53.143  1.00  0.00     0.034 A 
HETATM   30 CL   UNL     1      28.712  40.897  53.637  1.00  0.00    -0.084 Cl
HETATM   31  C   UNL     1      28.159  42.841  51.850  1.00  0.00     0.026 A 
HETATM   32  C   UNL     1      27.545  44.033  51.448  1.00  0.00     0.031 A 
ENDBRANCH  22  26
ENDBRANCH   2  20
TORSDOF 4
ENDMDL
MODEL 10
REMARK VINA RESULT:      -8.7      3.979     10.874
REMARK  4 active torsions:
REMARK  status: ('A' for Active; 'I' for Inactive)
REMARK    1  A    between atoms: N_4  and  C_5 
REMARK    2  A    between atoms: C_14  and  C_15 
REMARK       I    between atoms: C_15  and  N_16 
REMARK    3  A    between atoms: N_16  and  N_17 
REMARK       I    between atoms: N_17  and  C_18 
REMARK       I    between atoms: C_18  and  N_19 
REMARK    4  A    between atoms: N_19  and  C_20 
ROOT
HETATM    1  C   UNL     1      23.492  45.003  49.115  1.00  0.00     0.277 C 
HETATM    2  N   UNL     1      23.476  44.666  50.454  1.00  0.00    -0.261 N 
HETATM    3  O   UNL     1      24.144  44.349  48.301  1.00  0.00    -0.265 OA
HETATM    4  H   UNL     1      23.024  45.255  51.154  1.00  0.00     0.190 HD
ENDROOT
BRANCH   1   5
HETATM    5  C   UNL     1      22.691  46.166  48.757  1.00  0.00     0.077 A 
HETATM    6  S   UNL     1      20.985  46.013  48.404  1.00  0.00    -0.064 SA
HETATM    7  C   UNL     1      20.859  47.656  48.162  1.00  0.00     0.113 A 
HETATM    8  N   UNL     1      19.919  48.607  47.853  1.00  0.00    -0.226 N 
HETATM    9  C   UNL     1      22.027  48.286  48.323  1.00  0.00     0.027 A 
HETATM   10  N   UNL     1      20.533  49.850  47.792  1.00  0.00    -0.171 NA
HETATM   11  C   UNL     1      21.829  49.634  48.087  1.00  0.00     0.064 A 
HETATM   12  C   UNL     1      22.799  50.751  48.113  1.00  0.00     0.073 C 
HETATM   13  C   UNL     1      23.115  47.493  48.674  1.00  0.00     0.041 A 
BRANCH   8  14
HETATM   14  C   UNL     1      18.516  48.492  47.623  1.00  0.00     0.059 A 
HETATM   15  C   UNL     1      17.700  47.974  48.642  1.00  0.00     0.031 A 
HETATM   16  C   UNL     1      16.323  47.831  48.450  1.00  0.00     0.002 A 
HETATM   17  C   UNL     1      15.746  48.203  47.240  1.00  0.00     0.000 A 
HETATM   18  C   UNL     1      16.544  48.722  46.224  1.00  0.00     0.002 A 
HETATM   19  C   UNL     1      17.923  48.866  46.411  1.00  0.00     0.031 A 
ENDBRANCH   8  14
ENDBRANCH   1   5
BRANCH   2  20
HETATM   20  N   UNL     1      24.338  43.673  50.946  1.00  0.00    -0.249 N 
HETATM   21  C   UNL     1      25.412  44.129  51.698  1.00  0.00     0.339 C 
HETATM   22  N   UNL     1      26.270  43.111  52.046  1.00  0.00    -0.308 N 
HETATM   23  O   UNL     1      25.503  45.314  52.005  1.00  0.00    -0.245 OA
HETATM   24  H   UNL     1      26.005  42.186  51.741  1.00  0.00     0.170 HD
HETATM   25  H   UNL     1      24.438  42.858  50.345  1.00  0.00     0.192 HD
BRANCH  22  26
HETATM   26  C   UNL     1      27.432  43.206  52.839  1.00  0.00     0.036 A 
HETATM   27  C   UNL     1      28.671  42.672  52.475  1.00  0.00     0.031 A 
HETATM   28  C   UNL     1      29.785  42.821  53.309  1.00  0.00     0.026 A 
HETATM   29  C   UNL     1      29.663  43.504  54.514  1.00  0.00     0.034 A 
HETATM   30 CL   UNL     1      31.033  43.691  55.536  1.00  0.00    -0.084 Cl
HETATM   31  C   UNL     1      28.435  44.038  54.895  1.00  0.00     0.026 A 
HETATM   32  C   UNL     1      27.323  43.888  54.059  1.00  0.00     0.031 A 
ENDBRANCH  22  26
ENDBRANCH   2  20
TORSDOF 4
ENDMDL
