MODEL 1
REMARK VINA RESULT:     -10.0      0.000      0.000
REMARK  4 active torsions:
REMARK  status: ('A' for Active; 'I' for Inactive)
REMARK    1  A    between atoms: C_5  and  C_6 
REMARK    2  A    between atoms: C_10  and  C_11 
REMARK       I    between atoms: C_11  and  N_12 
REMARK    3  A    between atoms: N_12  and  N_13 
REMARK    4  A    between atoms: C_14  and  C_15 
ROOT
HETATM    1  C   UNL     1      26.184  45.943  49.941  1.00  0.00     0.289 C 
HETATM    2  N   UNL     1      26.148  45.241  51.140  1.00  0.00    -0.242 N 
HETATM    3  O   UNL     1      27.175  46.056  49.224  1.00  0.00    -0.264 OA
HETATM    4  H   UNL     1      25.378  45.422  51.775  1.00  0.00     0.192 HD
ENDROOT
BRANCH   1   5
HETATM    5  C   UNL     1      24.935  46.568  49.581  1.00  0.00     0.121 A 
HETATM    6  N   UNL     1      23.875  45.834  49.128  1.00  0.00    -0.272 N 
HETATM    7  N   UNL     1      22.787  46.561  48.839  1.00  0.00    -0.174 NA
HETATM    8  H   UNL     1      23.844  44.828  48.993  1.00  0.00     0.189 HD
HETATM    9  C   UNL     1      23.126  47.823  49.146  1.00  0.00     0.089 A 
HETATM   10  C   UNL     1      24.475  47.870  49.603  1.00  0.00     0.071 A 
BRANCH   9  11
HETATM   11  C   UNL     1      22.178  48.934  49.002  1.00  0.00    -0.006 A 
HETATM   12  C   UNL     1      20.802  48.744  49.192  1.00  0.00     0.014 A 
HETATM   13  C   UNL     1      19.905  49.809  49.049  1.00  0.00     0.007 A 
HETATM   14  C   UNL     1      20.367  51.085  48.711  1.00  0.00    -0.062 A 
HETATM   15  C   UNL     1      19.417  52.236  48.559  1.00  0.00     0.048 C 
HETATM   16  C   UNL     1      21.739  51.281  48.521  1.00  0.00     0.007 A 
HETATM   17  C   UNL     1      22.633  50.215  48.663  1.00  0.00     0.014 A 
ENDBRANCH   9  11
ENDBRANCH   1   5
BRANCH   2  18
HETATM   18  N   UNL     1      27.198  44.586  51.739  1.00  0.00    -0.183 NA
HETATM   19  C   UNL     1      27.113  44.292  52.998  1.00  0.00     0.153 C 
BRANCH  19  20
HETATM   20  C   UNL     1      28.198  43.587  53.660  1.00  0.00     0.018 A 
HETATM   21  C   UNL     1      29.047  44.134  54.681  1.00  0.00     0.004 A 
HETATM   22  C   UNL     1      29.966  43.149  55.036  1.00  0.00     0.043 A 
HETATM   23  C   UNL     1      29.121  45.383  55.335  1.00  0.00     0.014 A 
HETATM   24  C   UNL     1      30.957  43.347  56.007  1.00  0.00     0.030 A 
HETATM   25  N   UNL     1      29.686  42.042  54.274  1.00  0.00    -0.358 N 
HETATM   26  C   UNL     1      31.008  44.592  56.636  1.00  0.00     0.002 A 
HETATM   27  C   UNL     1      30.103  45.599  56.308  1.00  0.00     0.001 A 
HETATM   28  H   UNL     1      30.196  41.172  54.327  1.00  0.00     0.166 HD
HETATM   29  C   UNL     1      28.624  42.283  53.437  1.00  0.00     0.018 A 
HETATM   30  C   UNL     1      28.129  41.234  52.506  1.00  0.00     0.069 C 
ENDBRANCH  19  20
ENDBRANCH   2  18
TORSDOF 4
ENDMDL
MODEL 2
REMARK VINA RESULT:      -9.8      1.965     10.844
REMARK  4 active torsions:
REMARK  status: ('A' for Active; 'I' for Inactive)
REMARK    1  A    between atoms: C_5  and  C_6 
REMARK    2  A    between atoms: C_10  and  C_11 
REMARK       I    between atoms: C_11  and  N_12 
REMARK    3  A    between atoms: N_12  and  N_13 
REMARK    4  A    between atoms: C_14  and  C_15 
ROOT
HETATM    1  C   UNL     1      24.249  47.481  49.985  1.00  0.00     0.289 C 
HETATM    2  N   UNL     1      23.090  46.988  49.398  1.00  0.00    -0.242 N 
HETATM    3  O   UNL     1      24.708  48.605  49.797  1.00  0.00    -0.264 OA
HETATM    4  H   UNL     1      22.941  45.986  49.408  1.00  0.00     0.192 HD
ENDROOT
BRANCH   1   5
HETATM    5  C   UNL     1      24.917  46.547  50.858  1.00  0.00     0.121 A 
HETATM    6  N   UNL     1      24.341  45.358  51.205  1.00  0.00    -0.272 N 
HETATM    7  N   UNL     1      25.090  44.601  52.018  1.00  0.00    -0.174 NA
HETATM    8  H   UNL     1      23.429  45.015  50.915  1.00  0.00     0.189 HD
HETATM    9  C   UNL     1      26.224  45.298  52.188  1.00  0.00     0.089 A 
HETATM   10  C   UNL     1      26.148  46.535  51.485  1.00  0.00     0.071 A 
BRANCH   9  11
HETATM   11  C   UNL     1      27.333  44.783  52.998  1.00  0.00    -0.006 A 
HETATM   12  C   UNL     1      28.130  43.721  52.548  1.00  0.00     0.014 A 
HETATM   13  C   UNL     1      29.184  43.233  53.329  1.00  0.00     0.007 A 
HETATM   14  C   UNL     1      29.460  43.797  54.579  1.00  0.00    -0.062 A 
HETATM   15  C   UNL     1      30.589  43.288  55.425  1.00  0.00     0.048 C 
HETATM   16  C   UNL     1      28.669  44.857  55.034  1.00  0.00     0.007 A 
HETATM   17  C   UNL     1      27.615  45.341  54.252  1.00  0.00     0.014 A 
ENDBRANCH   9  11
ENDBRANCH   1   5
BRANCH   2  18
HETATM   18  N   UNL     1      22.282  47.645  48.500  1.00  0.00    -0.183 NA
HETATM   19  C   UNL     1      21.035  47.825  48.800  1.00  0.00     0.153 C 
BRANCH  19  20
HETATM   20  C   UNL     1      20.156  48.528  47.880  1.00  0.00     0.018 A 
HETATM   21  C   UNL     1      19.716  49.888  48.023  1.00  0.00     0.004 A 
HETATM   22  C   UNL     1      18.875  50.173  46.949  1.00  0.00     0.043 A 
HETATM   23  C   UNL     1      19.954  50.905  48.973  1.00  0.00     0.014 A 
HETATM   24  C   UNL     1      18.256  51.418  46.776  1.00  0.00     0.030 A 
HETATM   25  N   UNL     1      18.812  49.041  46.175  1.00  0.00    -0.358 N 
HETATM   26  C   UNL     1      18.507  52.405  47.732  1.00  0.00     0.002 A 
HETATM   27  C   UNL     1      19.345  52.156  48.816  1.00  0.00     0.001 A 
HETATM   28  H   UNL     1      18.273  48.964  45.324  1.00  0.00     0.166 HD
HETATM   29  C   UNL     1      19.575  48.036  46.717  1.00  0.00     0.018 A 
HETATM   30  C   UNL     1      19.667  46.704  46.062  1.00  0.00     0.069 C 
ENDBRANCH  19  20
ENDBRANCH   2  18
TORSDOF 4
ENDMDL
MODEL 3
REMARK VINA RESULT:      -9.6      1.628     10.386
REMARK  4 active torsions:
REMARK  status: ('A' for Active; 'I' for Inactive)
REMARK    1  A    between atoms: C_5  and  C_6 
REMARK    2  A    between atoms: C_10  and  C_11 
REMARK       I    between atoms: C_11  and  N_12 
REMARK    3  A    between atoms: N_12  and  N_13 
REMARK    4  A    between atoms: C_14  and  C_15 
ROOT
HETATM    1  C   UNL     1      24.855  44.447  51.274  1.00  0.00     0.289 C 
HETATM    2  N   UNL     1      24.748  45.618  50.534  1.00  0.00    -0.242 N 
HETATM    3  O   UNL     1      23.960  43.616  51.406  1.00  0.00    -0.264 OA
HETATM    4  H   UNL     1      25.431  46.349  50.697  1.00  0.00     0.192 HD
ENDROOT
BRANCH   1   5
HETATM    5  C   UNL     1      26.134  44.265  51.917  1.00  0.00     0.121 A 
HETATM    6  N   UNL     1      27.240  43.886  51.210  1.00  0.00    -0.272 N 
HETATM    7  N   UNL     1      28.350  43.764  51.950  1.00  0.00    -0.174 NA
HETATM    8  H   UNL     1      27.290  43.693  50.214  1.00  0.00     0.189 HD
HETATM    9  C   UNL     1      27.974  44.110  53.192  1.00  0.00     0.089 A 
HETATM   10  C   UNL     1      26.583  44.418  53.214  1.00  0.00     0.071 A 
BRANCH   9  11
HETATM   11  C   UNL     1      28.927  44.140  54.306  1.00  0.00    -0.006 A 
HETATM   12  C   UNL     1      28.984  45.231  55.185  1.00  0.00     0.014 A 
HETATM   13  C   UNL     1      29.899  45.252  56.244  1.00  0.00     0.007 A 
HETATM   14  C   UNL     1      30.778  44.183  56.444  1.00  0.00    -0.062 A 
HETATM   15  C   UNL     1      31.760  44.190  57.577  1.00  0.00     0.048 C 
HETATM   16  C   UNL     1      30.726  43.091  55.571  1.00  0.00     0.007 A 
HETATM   17  C   UNL     1      29.812  43.073  54.513  1.00  0.00     0.014 A 
ENDBRANCH   9  11
ENDBRANCH   1   5
BRANCH   2  18
HETATM   18  N   UNL     1      23.638  46.060  49.854  1.00  0.00    -0.183 NA
HETATM   19  C   UNL     1      23.722  47.157  49.170  1.00  0.00     0.153 C 
BRANCH  19  20
HETATM   20  C   UNL     1      22.571  47.646  48.427  1.00  0.00     0.018 A 
HETATM   21  C   UNL     1      21.988  48.952  48.558  1.00  0.00     0.004 A 
HETATM   22  C   UNL     1      20.900  49.016  47.691  1.00  0.00     0.043 A 
HETATM   23  C   UNL     1      22.286  50.089  49.341  1.00  0.00     0.014 A 
HETATM   24  C   UNL     1      20.091  50.153  47.568  1.00  0.00     0.030 A 
HETATM   25  N   UNL     1      20.826  47.805  47.048  1.00  0.00    -0.358 N 
HETATM   26  C   UNL     1      20.406  51.262  48.356  1.00  0.00     0.002 A 
HETATM   27  C   UNL     1      21.489  51.234  49.231  1.00  0.00     0.001 A 
HETATM   28  H   UNL     1      20.128  47.572  46.355  1.00  0.00     0.166 HD
HETATM   29  C   UNL     1      21.823  46.963  47.475  1.00  0.00     0.018 A 
HETATM   30  C   UNL     1      21.952  45.587  46.927  1.00  0.00     0.069 C 
ENDBRANCH  19  20
ENDBRANCH   2  18
TORSDOF 4
ENDMDL
MODEL 4
REMARK VINA RESULT:      -9.6      1.802      2.941
REMARK  4 active torsions:
REMARK  status: ('A' for Active; 'I' for Inactive)
REMARK    1  A    between atoms: C_5  and  C_6 
REMARK    2  A    between atoms: C_10  and  C_11 
REMARK       I    between atoms: C_11  and  N_12 
REMARK    3  A    between atoms: N_12  and  N_13 
REMARK    4  A    between atoms: C_14  and  C_15 
ROOT
HETATM    1  C   UNL     1      25.208  47.691  50.177  1.00  0.00     0.289 C 
HETATM    2  N   UNL     1      25.160  47.468  51.548  1.00  0.00    -0.242 N 
HETATM    3  O   UNL     1      26.231  47.666  49.497  1.00  0.00    -0.264 OA
HETATM    4  H   UNL     1      24.331  47.764  52.050  1.00  0.00     0.192 HD
ENDROOT
BRANCH   1   5
HETATM    5  C   UNL     1      23.929  47.982  49.577  1.00  0.00     0.121 A 
HETATM    6  N   UNL     1      23.065  46.984  49.221  1.00  0.00    -0.272 N 
HETATM    7  N   UNL     1      21.918  47.417  48.681  1.00  0.00    -0.174 NA
HETATM    8  H   UNL     1      23.215  45.984  49.323  1.00  0.00     0.189 HD
HETATM    9  C   UNL     1      22.008  48.756  48.712  1.00  0.00     0.089 A 
HETATM   10  C   UNL     1      23.265  49.149  49.256  1.00  0.00     0.071 A 
BRANCH   9  11
HETATM   11  C   UNL     1      20.919  49.614  48.234  1.00  0.00    -0.006 A 
HETATM   12  C   UNL     1      20.788  50.938  48.677  1.00  0.00     0.014 A 
HETATM   13  C   UNL     1      19.743  51.748  48.218  1.00  0.00     0.007 A 
HETATM   14  C   UNL     1      18.806  51.249  47.308  1.00  0.00    -0.062 A 
HETATM   15  C   UNL     1      17.684  52.107  46.804  1.00  0.00     0.048 C 
HETATM   16  C   UNL     1      18.931  49.929  46.861  1.00  0.00     0.007 A 
HETATM   17  C   UNL     1      19.975  49.121  47.323  1.00  0.00     0.014 A 
ENDBRANCH   9  11
ENDBRANCH   1   5
BRANCH   2  18
HETATM   18  N   UNL     1      26.229  47.210  52.375  1.00  0.00    -0.183 NA
HETATM   19  C   UNL     1      26.115  46.278  53.267  1.00  0.00     0.153 C 
BRANCH  19  20
HETATM   20  C   UNL     1      27.230  45.969  54.148  1.00  0.00     0.018 A 
HETATM   21  C   UNL     1      28.133  44.864  53.993  1.00  0.00     0.004 A 
HETATM   22  C   UNL     1      29.042  44.912  55.049  1.00  0.00     0.043 A 
HETATM   23  C   UNL     1      28.261  43.821  53.050  1.00  0.00     0.014 A 
HETATM   24  C   UNL     1      30.066  43.971  55.215  1.00  0.00     0.030 A 
HETATM   25  N   UNL     1      28.715  46.006  55.812  1.00  0.00    -0.358 N 
HETATM   26  C   UNL     1      30.167  42.949  54.269  1.00  0.00     0.002 A 
HETATM   27  C   UNL     1      29.279  42.873  53.199  1.00  0.00     0.001 A 
HETATM   28  H   UNL     1      29.213  46.286  56.645  1.00  0.00     0.166 HD
HETATM   29  C   UNL     1      27.626  46.659  55.288  1.00  0.00     0.018 A 
HETATM   30  C   UNL     1      27.077  47.877  55.940  1.00  0.00     0.069 C 
ENDBRANCH  19  20
ENDBRANCH   2  18
TORSDOF 4
ENDMDL
MODEL 5
REMARK VINA RESULT:      -9.5      1.875     10.586
REMARK  4 active torsions:
REMARK  status: ('A' for Active; 'I' for Inactive)
REMARK    1  A    between atoms: C_5  and  C_6 
REMARK    2  A    between atoms: C_10  and  C_11 
REMARK       I    between atoms: C_11  and  N_12 
REMARK    3  A    between atoms: N_12  and  N_13 
REMARK    4  A    between atoms: C_14  and  C_15 
ROOT
HETATM    1  C   UNL     1      25.057  45.651  51.533  1.00  0.00     0.289 C 
HETATM    2  N   UNL     1      25.192  46.963  51.097  1.00  0.00    -0.242 N 
HETATM    3  O   UNL     1      24.037  44.976  51.423  1.00  0.00    -0.264 OA
HETATM    4  H   UNL     1      25.965  47.509  51.461  1.00  0.00     0.192 HD
ENDROOT
BRANCH   1   5
HETATM    5  C   UNL     1      26.238  45.109  52.161  1.00  0.00     0.121 A 
HETATM    6  N   UNL     1      27.053  44.228  51.509  1.00  0.00    -0.272 N 
HETATM    7  N   UNL     1      28.109  43.821  52.226  1.00  0.00    -0.174 NA
HETATM    8  H   UNL     1      26.929  43.867  50.567  1.00  0.00     0.189 HD
HETATM    9  C   UNL     1      28.011  44.486  53.388  1.00  0.00     0.089 A 
HETATM   10  C   UNL     1      26.839  45.296  53.391  1.00  0.00     0.071 A 
BRANCH   9  11
HETATM   11  C   UNL     1      29.014  44.340  54.448  1.00  0.00    -0.006 A 
HETATM   12  C   UNL     1      29.201  45.338  55.415  1.00  0.00     0.014 A 
HETATM   13  C   UNL     1      30.164  45.191  56.420  1.00  0.00     0.007 A 
HETATM   14  C   UNL     1      30.960  44.043  56.478  1.00  0.00    -0.062 A 
HETATM   15  C   UNL     1      31.992  43.871  57.552  1.00  0.00     0.048 C 
HETATM   16  C   UNL     1      30.778  43.043  55.517  1.00  0.00     0.007 A 
HETATM   17  C   UNL     1      29.817  43.193  54.512  1.00  0.00     0.014 A 
ENDBRANCH   9  11
ENDBRANCH   1   5
BRANCH   2  18
HETATM   18  N   UNL     1      24.220  47.734  50.503  1.00  0.00    -0.183 NA
HETATM   19  C   UNL     1      23.980  47.570  49.241  1.00  0.00     0.153 C 
BRANCH  19  20
HETATM   20  C   UNL     1      22.950  48.358  48.584  1.00  0.00     0.018 A 
HETATM   21  C   UNL     1      21.594  47.939  48.364  1.00  0.00     0.004 A 
HETATM   22  C   UNL     1      20.939  48.968  47.691  1.00  0.00     0.043 A 
HETATM   23  C   UNL     1      20.861  46.773  48.674  1.00  0.00     0.014 A 
HETATM   24  C   UNL     1      19.595  48.893  47.307  1.00  0.00     0.030 A 
HETATM   25  N   UNL     1      21.852  49.979  47.515  1.00  0.00    -0.358 N 
HETATM   26  C   UNL     1      18.894  47.727  47.624  1.00  0.00     0.002 A 
HETATM   27  C   UNL     1      19.516  46.680  48.299  1.00  0.00     0.001 A 
HETATM   28  H   UNL     1      21.648  50.856  47.056  1.00  0.00     0.166 HD
HETATM   29  C   UNL     1      23.071  49.634  48.045  1.00  0.00     0.018 A 
HETATM   30  C   UNL     1      24.228  50.565  47.977  1.00  0.00     0.069 C 
ENDBRANCH  19  20
ENDBRANCH   2  18
TORSDOF 4
ENDMDL
MODEL 6
REMARK VINA RESULT:      -9.4      5.891      9.396
REMARK  4 active torsions:
REMARK  status: ('A' for Active; 'I' for Inactive)
REMARK    1  A    between atoms: C_5  and  C_6 
REMARK    2  A    between atoms: C_10  and  C_11 
REMARK       I    between atoms: C_11  and  N_12 
REMARK    3  A    between atoms: N_12  and  N_13 
REMARK    4  A    between atoms: C_14  and  C_15 
ROOT
HETATM    1  C   UNL     1      27.821  41.088  51.654  1.00  0.00     0.289 C 
HETATM    2  N   UNL     1      28.703  41.198  52.723  1.00  0.00    -0.242 N 
HETATM    3  O   UNL     1      26.862  41.829  51.457  1.00  0.00    -0.264 OA
HETATM    4  H   UNL     1      29.289  40.400  52.939  1.00  0.00     0.192 HD
ENDROOT
BRANCH   1   5
HETATM    5  C   UNL     1      28.107  39.995  50.757  1.00  0.00     0.121 A 
HETATM    6  N   UNL     1      29.195  39.189  50.939  1.00  0.00    -0.272 N 
HETATM    7  N   UNL     1      29.319  38.217  50.025  1.00  0.00    -0.174 NA
HETATM    8  H   UNL     1      29.892  39.263  51.675  1.00  0.00     0.189 HD
HETATM    9  C   UNL     1      28.250  38.361  49.225  1.00  0.00     0.089 A 
HETATM   10  C   UNL     1      27.471  39.478  49.646  1.00  0.00     0.071 A 
BRANCH   9  11
HETATM   11  C   UNL     1      27.999  37.452  48.102  1.00  0.00    -0.006 A 
HETATM   12  C   UNL     1      26.902  36.578  48.106  1.00  0.00     0.014 A 
HETATM   13  C   UNL     1      26.672  35.711  47.032  1.00  0.00     0.007 A 
HETATM   14  C   UNL     1      27.536  35.699  45.932  1.00  0.00    -0.062 A 
HETATM   15  C   UNL     1      27.299  34.779  44.772  1.00  0.00     0.048 C 
HETATM   16  C   UNL     1      28.631  36.569  45.921  1.00  0.00     0.007 A 
HETATM   17  C   UNL     1      28.860  37.433  46.997  1.00  0.00     0.014 A 
ENDBRANCH   9  11
ENDBRANCH   1   5
BRANCH   2  18
HETATM   18  N   UNL     1      28.644  42.117  53.743  1.00  0.00    -0.183 NA
HETATM   19  C   UNL     1      29.276  43.240  53.607  1.00  0.00     0.153 C 
BRANCH  19  20
HETATM   20  C   UNL     1      29.224  44.241  54.661  1.00  0.00     0.018 A 
HETATM   21  C   UNL     1      30.073  44.278  55.818  1.00  0.00     0.004 A 
HETATM   22  C   UNL     1      29.691  45.377  56.585  1.00  0.00     0.043 A 
HETATM   23  C   UNL     1      31.134  43.473  56.287  1.00  0.00     0.014 A 
HETATM   24  C   UNL     1      30.309  45.711  57.797  1.00  0.00     0.030 A 
HETATM   25  N   UNL     1      28.660  45.993  55.921  1.00  0.00    -0.358 N 
HETATM   26  C   UNL     1      31.354  44.896  58.238  1.00  0.00     0.002 A 
HETATM   27  C   UNL     1      31.764  43.792  57.495  1.00  0.00     0.001 A 
HETATM   28  H   UNL     1      28.188  46.824  56.249  1.00  0.00     0.166 HD
HETATM   29  C   UNL     1      28.360  45.326  54.758  1.00  0.00     0.018 A 
HETATM   30  C   UNL     1      27.272  45.799  53.861  1.00  0.00     0.069 C 
ENDBRANCH  19  20
ENDBRANCH   2  18
TORSDOF 4
ENDMDL
MODEL 7
REMARK VINA RESULT:      -8.3      4.067      5.185
REMARK  4 active torsions:
REMARK  status: ('A' for Active; 'I' for Inactive)
REMARK    1  A    between atoms: C_5  and  C_6 
REMARK    2  A    between atoms: C_10  and  C_11 
REMARK       I    between atoms: C_11  and  N_12 
REMARK    3  A    between atoms: N_12  and  N_13 
REMARK    4  A    between atoms: C_14  and  C_15 
ROOT
HETATM    1  C   UNL     1      25.071  45.037  49.997  1.00  0.00     0.289 C 
HETATM    2  N   UNL     1      24.888  45.306  51.348  1.00  0.00    -0.242 N 
HETATM    3  O   UNL     1      26.132  45.173  49.393  1.00  0.00    -0.264 OA
HETATM    4  H   UNL     1      23.939  45.414  51.687  1.00  0.00     0.192 HD
ENDROOT
BRANCH   1   5
HETATM    5  C   UNL     1      23.884  44.582  49.315  1.00  0.00     0.121 A 
HETATM    6  N   UNL     1      22.646  44.701  49.881  1.00  0.00    -0.272 N 
HETATM    7  N   UNL     1      21.647  44.236  49.119  1.00  0.00    -0.174 NA
HETATM    8  H   UNL     1      22.429  45.093  50.792  1.00  0.00     0.189 HD
HETATM    9  C   UNL     1      22.241  43.825  47.988  1.00  0.00     0.089 A 
HETATM   10  C   UNL     1      23.650  44.013  48.079  1.00  0.00     0.071 A 
BRANCH   9  11
HETATM   11  C   UNL     1      21.470  43.273  46.868  1.00  0.00    -0.006 A 
HETATM   12  C   UNL     1      21.758  42.006  46.342  1.00  0.00     0.014 A 
HETATM   13  C   UNL     1      21.019  41.489  45.271  1.00  0.00     0.007 A 
HETATM   14  C   UNL     1      19.978  42.231  44.704  1.00  0.00    -0.062 A 
HETATM   15  C   UNL     1      19.175  41.688  43.560  1.00  0.00     0.048 C 
HETATM   16  C   UNL     1      19.685  43.496  45.225  1.00  0.00     0.007 A 
HETATM   17  C   UNL     1      20.426  44.010  46.294  1.00  0.00     0.014 A 
ENDBRANCH   9  11
ENDBRANCH   1   5
BRANCH   2  18
HETATM   18  N   UNL     1      25.832  45.786  52.225  1.00  0.00    -0.183 NA
HETATM   19  C   UNL     1      26.218  45.028  53.201  1.00  0.00     0.153 C 
BRANCH  19  20
HETATM   20  C   UNL     1      27.226  45.499  54.138  1.00  0.00     0.018 A 
HETATM   21  C   UNL     1      28.401  44.775  54.532  1.00  0.00     0.004 A 
HETATM   22  C   UNL     1      29.091  45.560  55.453  1.00  0.00     0.043 A 
HETATM   23  C   UNL     1      28.942  43.516  54.190  1.00  0.00     0.014 A 
HETATM   24  C   UNL     1      30.289  45.153  56.054  1.00  0.00     0.030 A 
HETATM   25  N   UNL     1      28.375  46.721  55.608  1.00  0.00    -0.358 N 
HETATM   26  C   UNL     1      30.800  43.902  55.700  1.00  0.00     0.002 A 
HETATM   27  C   UNL     1      30.139  43.093  54.780  1.00  0.00     0.001 A 
HETATM   28  H   UNL     1      28.647  47.479  56.219  1.00  0.00     0.166 HD
HETATM   29  C   UNL     1      27.246  46.707  54.826  1.00  0.00     0.018 A 
HETATM   30  C   UNL     1      26.302  47.855  54.822  1.00  0.00     0.069 C 
ENDBRANCH  19  20
ENDBRANCH   2  18
TORSDOF 4
ENDMDL
MODEL 8
REMARK VINA RESULT:      -8.2      5.275      9.203
REMARK  4 active torsions:
REMARK  status: ('A' for Active; 'I' for Inactive)
REMARK    1  A    between atoms: C_5  and  C_6 
REMARK    2  A    between atoms: C_10  and  C_11 
REMARK       I    between atoms: C_11  and  N_12 
REMARK    3  A    between atoms: N_12  and  N_13 
REMARK    4  A    between atoms: C_14  and  C_15 
ROOT
HETATM    1  C   UNL     1      27.154  40.799  50.648  1.00  0.00     0.289 C 
HETATM    2  N   UNL     1      28.356  41.232  51.195  1.00  0.00    -0.242 N 
HETATM    3  O   UNL     1      26.041  41.116  51.059  1.00  0.00    -0.264 OA
HETATM    4  H   UNL     1      29.197  40.719  50.959  1.00  0.00     0.192 HD
ENDROOT
BRANCH   1   5
HETATM    5  C   UNL     1      27.299  39.905  49.525  1.00  0.00     0.121 A 
HETATM    6  N   UNL     1      26.457  38.844  49.345  1.00  0.00    -0.272 N 
HETATM    7  N   UNL     1      26.721  38.113  48.254  1.00  0.00    -0.174 NA
HETATM    8  H   UNL     1      25.684  38.571  49.945  1.00  0.00     0.189 HD
HETATM    9  C   UNL     1      27.755  38.734  47.666  1.00  0.00     0.089 A 
HETATM   10  C   UNL     1      28.157  39.858  48.443  1.00  0.00     0.071 A 
BRANCH   9  11
HETATM   11  C   UNL     1      28.327  38.254  46.403  1.00  0.00    -0.006 A 
HETATM   12  C   UNL     1      28.163  38.973  45.211  1.00  0.00     0.014 A 
HETATM   13  C   UNL     1      28.709  38.506  44.010  1.00  0.00     0.007 A 
HETATM   14  C   UNL     1      29.430  37.308  43.977  1.00  0.00    -0.062 A 
HETATM   15  C   UNL     1      30.024  36.797  42.699  1.00  0.00     0.048 C 
HETATM   16  C   UNL     1      29.598  36.585  45.164  1.00  0.00     0.007 A 
HETATM   17  C   UNL     1      29.049  37.054  46.362  1.00  0.00     0.014 A 
ENDBRANCH   9  11
ENDBRANCH   1   5
BRANCH   2  18
HETATM   18  N   UNL     1      28.512  42.052  52.288  1.00  0.00    -0.183 NA
HETATM   19  C   UNL     1      28.138  43.288  52.197  1.00  0.00     0.153 C 
BRANCH  19  20
HETATM   20  C   UNL     1      28.275  44.180  53.337  1.00  0.00     0.018 A 
HETATM   21  C   UNL     1      29.274  44.073  54.363  1.00  0.00     0.004 A 
HETATM   22  C   UNL     1      29.050  45.101  55.277  1.00  0.00     0.043 A 
HETATM   23  C   UNL     1      30.350  43.190  54.601  1.00  0.00     0.014 A 
HETATM   24  C   UNL     1      29.841  45.291  56.417  1.00  0.00     0.030 A 
HETATM   25  N   UNL     1      27.968  45.814  54.824  1.00  0.00    -0.358 N 
HETATM   26  C   UNL     1      30.897  44.402  56.630  1.00  0.00     0.002 A 
HETATM   27  C   UNL     1      31.151  43.365  55.735  1.00  0.00     0.001 A 
HETATM   28  H   UNL     1      27.584  46.623  55.293  1.00  0.00     0.166 HD
HETATM   29  C   UNL     1      27.483  45.277  53.657  1.00  0.00     0.018 A 
HETATM   30  C   UNL     1      26.307  45.873  52.969  1.00  0.00     0.069 C 
ENDBRANCH  19  20
ENDBRANCH   2  18
TORSDOF 4
ENDMDL
MODEL 9
REMARK VINA RESULT:      -8.2      1.958      2.283
REMARK  4 active torsions:
REMARK  status: ('A' for Active; 'I' for Inactive)
REMARK    1  A    between atoms: C_5  and  C_6 
REMARK    2  A    between atoms: C_10  and  C_11 
REMARK       I    between atoms: C_11  and  N_12 
REMARK    3  A    between atoms: N_12  and  N_13 
REMARK    4  A    between atoms: C_14  and  C_15 
ROOT
HETATM    1  C   UNL     1      24.264  43.844  49.617  1.00  0.00     0.289 C 
HETATM    2  N   UNL     1      24.563  43.928  50.971  1.00  0.00    -0.242 N 
HETATM    3  O   UNL     1      24.893  43.176  48.800  1.00  0.00    -0.264 OA
HETATM    4  H   UNL     1      24.159  44.692  51.500  1.00  0.00     0.192 HD
ENDROOT
BRANCH   1   5
HETATM    5  C   UNL     1      23.129  44.633  49.207  1.00  0.00     0.121 A 
HETATM    6  N   UNL     1      21.858  44.132  49.253  1.00  0.00    -0.272 N 
HETATM    7  N   UNL     1      20.914  44.991  48.844  1.00  0.00    -0.174 NA
HETATM    8  H   UNL     1      21.581  43.203  49.553  1.00  0.00     0.189 HD
HETATM    9  C   UNL     1      21.580  46.118  48.549  1.00  0.00     0.089 A 
HETATM   10  C   UNL     1      22.977  45.928  48.752  1.00  0.00     0.071 A 
BRANCH   9  11
HETATM   11  C   UNL     1      20.886  47.327  48.092  1.00  0.00    -0.006 A 
HETATM   12  C   UNL     1      21.444  48.600  48.278  1.00  0.00     0.014 A 
HETATM   13  C   UNL     1      20.773  49.748  47.841  1.00  0.00     0.007 A 
HETATM   14  C   UNL     1      19.529  49.646  47.211  1.00  0.00    -0.062 A 
HETATM   15  C   UNL     1      18.801  50.867  46.734  1.00  0.00     0.048 C 
HETATM   16  C   UNL     1      18.967  48.379  47.021  1.00  0.00     0.007 A 
HETATM   17  C   UNL     1      19.639  47.234  47.460  1.00  0.00     0.014 A 
ENDBRANCH   9  11
ENDBRANCH   1   5
BRANCH   2  18
HETATM   18  N   UNL     1      25.608  43.315  51.621  1.00  0.00    -0.183 NA
HETATM   19  C   UNL     1      26.765  43.896  51.627  1.00  0.00     0.153 C 
BRANCH  19  20
HETATM   20  C   UNL     1      27.889  43.283  52.316  1.00  0.00     0.018 A 
HETATM   21  C   UNL     1      28.555  43.821  53.468  1.00  0.00     0.004 A 
HETATM   22  C   UNL     1      29.583  42.945  53.808  1.00  0.00     0.043 A 
HETATM   23  C   UNL     1      28.378  44.981  54.255  1.00  0.00     0.014 A 
HETATM   24  C   UNL     1      30.447  43.168  54.888  1.00  0.00     0.030 A 
HETATM   25  N   UNL     1      29.542  41.908  52.910  1.00  0.00    -0.358 N 
HETATM   26  C   UNL     1      30.252  44.324  55.647  1.00  0.00     0.002 A 
HETATM   27  C   UNL     1      29.231  45.220  55.338  1.00  0.00     0.001 A 
HETATM   28  H   UNL     1      30.176  41.121  52.921  1.00  0.00     0.166 HD
HETATM   29  C   UNL     1      28.529  42.090  52.000  1.00  0.00     0.018 A 
HETATM   30  C   UNL     1      28.282  41.099  50.920  1.00  0.00     0.069 C 
ENDBRANCH  19  20
ENDBRANCH   2  18
TORSDOF 4
ENDMDL
MODEL 10
REMARK VINA RESULT:      -8.0      2.838     10.626
REMARK  4 active torsions:
REMARK  status: ('A' for Active; 'I' for Inactive)
REMARK    1  A    between atoms: C_5  and  C_6 
REMARK    2  A    between atoms: C_10  and  C_11 
REMARK       I    between atoms: C_11  and  N_12 
REMARK    3  A    between atoms: N_12  and  N_13 
REMARK    4  A    between atoms: C_14  and  C_15 
ROOT
HETATM    1  C   UNL     1      24.303  43.775  50.655  1.00  0.00     0.289 C 
HETATM    2  N   UNL     1      24.575  44.546  49.531  1.00  0.00    -0.242 N 
HETATM    3  O   UNL     1      23.187  43.385  50.986  1.00  0.00    -0.264 OA
HETATM    4  H   UNL     1      25.465  45.028  49.488  1.00  0.00     0.192 HD
ENDROOT
BRANCH   1   5
HETATM    5  C   UNL     1      25.463  43.458  51.452  1.00  0.00     0.121 A 
HETATM    6  N   UNL     1      26.119  42.267  51.315  1.00  0.00    -0.272 N 
HETATM    7  N   UNL     1      27.178  42.127  52.124  1.00  0.00    -0.174 NA
HETATM    8  H   UNL     1      25.880  41.510  50.682  1.00  0.00     0.189 HD
HETATM    9  C   UNL     1      27.250  43.284  52.799  1.00  0.00     0.089 A 
HETATM   10  C   UNL     1      26.180  44.142  52.414  1.00  0.00     0.071 A 
BRANCH   9  11
HETATM   11  C   UNL     1      28.314  43.544  53.775  1.00  0.00    -0.006 A 
HETATM   12  C   UNL     1      28.321  44.712  54.550  1.00  0.00     0.014 A 
HETATM   13  C   UNL     1      29.342  44.953  55.476  1.00  0.00     0.007 A 
HETATM   14  C   UNL     1      30.379  44.030  55.645  1.00  0.00    -0.062 A 
HETATM   15  C   UNL     1      31.477  44.272  56.637  1.00  0.00     0.048 C 
HETATM   16  C   UNL     1      30.377  42.861  54.875  1.00  0.00     0.007 A 
HETATM   17  C   UNL     1      29.357  42.624  53.949  1.00  0.00     0.014 A 
ENDBRANCH   9  11
ENDBRANCH   1   5
BRANCH   2  18
HETATM   18  N   UNL     1      23.658  45.022  48.623  1.00  0.00    -0.183 NA
HETATM   19  C   UNL     1      22.867  45.982  48.981  1.00  0.00     0.153 C 
BRANCH  19  20
HETATM   20  C   UNL     1      21.896  46.520  48.042  1.00  0.00     0.018 A 
HETATM   21  C   UNL     1      20.941  45.748  47.297  1.00  0.00     0.004 A 
HETATM   22  C   UNL     1      20.214  46.632  46.502  1.00  0.00     0.043 A 
HETATM   23  C   UNL     1      20.630  44.373  47.224  1.00  0.00     0.014 A 
HETATM   24  C   UNL     1      19.197  46.214  45.635  1.00  0.00     0.030 A 
HETATM   25  N   UNL     1      20.695  47.892  46.757  1.00  0.00    -0.358 N 
HETATM   26  C   UNL     1      18.911  44.848  45.580  1.00  0.00     0.002 A 
HETATM   27  C   UNL     1      19.616  43.937  46.363  1.00  0.00     0.001 A 
HETATM   28  H   UNL     1      20.346  48.733  46.319  1.00  0.00     0.166 HD
HETATM   29  C   UNL     1      21.710  47.850  47.682  1.00  0.00     0.018 A 
HETATM   30  C   UNL     1      22.398  49.092  48.122  1.00  0.00     0.069 C 
ENDBRANCH  19  20
ENDBRANCH   2  18
TORSDOF 4
ENDMDL
