MODEL 1
REMARK VINA RESULT:      -7.4      0.000      0.000
REMARK  14 active torsions:
REMARK  status: ('A' for Active; 'I' for Inactive)
REMARK    1  A    between atoms: C_2  and  O_3 
REMARK    2  A    between atoms: O_3  and  C_4 
REMARK    3  A    between atoms: C_5  and  O_6 
REMARK    4  A    between atoms: C_9  and  C_10 
REMARK    5  A    between atoms: N_11  and  C_12 
REMARK    6  A    between atoms: C_12  and  C_13 
REMARK    7  A    between atoms: C_13  and  C_14 
REMARK    8  A    between atoms: C_14  and  N_15 
REMARK    9  A    between atoms: C_21  and  O_22 
REMARK   10  A    between atoms: C_23  and  C_24 
REMARK   11  A    between atoms: C_24  and  C_25 
REMARK   12  A    between atoms: C_29  and  O_30 
REMARK   13  A    between atoms: O_30  and  C_31 
REMARK   14  A    between atoms: C_31  and  C_32 
ROOT
HETATM    1  C   UNL     1      25.237  43.001  48.683  1.00  0.00     0.161 A 
HETATM    2  N   UNL     1      23.796  42.761  48.628  1.00  0.00    -0.333 N 
HETATM    3  C   UNL     1      23.099  43.706  49.343  1.00  0.00     0.278 A 
HETATM    4  O   UNL     1      21.885  43.818  49.421  1.00  0.00    -0.265 OA
HETATM    5  C   UNL     1      24.081  44.569  50.024  1.00  0.00     0.146 A 
HETATM    6  C   UNL     1      25.296  44.174  49.625  1.00  0.00     0.059 A 
ENDROOT
BRANCH   6   7
HETATM    7  C   UNL     1      26.605  44.761  49.981  1.00  0.00     0.193 C 
HETATM    8  O   UNL     1      27.192  45.511  49.209  1.00  0.00    -0.287 OA
BRANCH   7   9
HETATM    9  C   UNL     1      27.219  44.467  51.287  1.00  0.00     0.015 A 
HETATM   10  C   UNL     1      26.821  45.168  52.429  1.00  0.00     0.025 A 
HETATM   11  C   UNL     1      27.449  44.918  53.658  1.00  0.00    -0.028 A 
HETATM   12  C   UNL     1      27.035  45.688  54.882  1.00  0.00     0.051 C 
HETATM   13  C   UNL     1      28.498  43.981  53.721  1.00  0.00     0.074 A 
HETATM   14  C   UNL     1      28.882  43.281  52.572  1.00  0.00     0.038 A 
HETATM   15  C   UNL     1      28.255  43.535  51.351  1.00  0.00     0.018 A 
BRANCH  13  16
HETATM   16  O   UNL     1      29.071  43.813  54.952  1.00  0.00    -0.350 OA
BRANCH  16  17
HETATM   17  C   UNL     1      30.421  43.344  54.981  1.00  0.00     0.179 C 
BRANCH  17  18
HETATM   18  C   UNL     1      31.211  44.112  56.052  1.00  0.00     0.002 C 
HETATM   19  C   UNL     1      30.358  45.223  56.669  1.00  0.00     0.011 C 
HETATM   20  C   UNL     1      31.725  43.179  57.149  1.00  0.00     0.011 C 
ENDBRANCH  17  18
ENDBRANCH  16  17
ENDBRANCH  13  16
ENDBRANCH   7   9
ENDBRANCH   6   7
BRANCH   1  21
HETATM   21  C   UNL     1      25.985  41.741  49.072  1.00  0.00    -0.028 A 
HETATM   22  C   UNL     1      25.721  41.160  50.329  1.00  0.00     0.012 A 
HETATM   23  C   UNL     1      26.394  40.013  50.742  1.00  0.00     0.040 A 
HETATM   24  C   UNL     1      27.321  39.428  49.893  1.00  0.00     0.099 A 
HETATM   25  C   UNL     1      27.591  39.964  48.631  1.00  0.00     0.102 A 
HETATM   26  C   UNL     1      26.945  41.137  48.235  1.00  0.00     0.049 A 
BRANCH  24  27
HETATM   27  O   UNL     1      27.955  38.294  50.317  1.00  0.00    -0.358 OA
HETATM   28  H   UNL     1      28.831  38.588  50.636  1.00  0.00     0.218 HD
ENDBRANCH  24  27
BRANCH  25  29
HETATM   29  O   UNL     1      28.514  39.274  47.891  1.00  0.00    -0.349 OA
BRANCH  29  30
HETATM   30  C   UNL     1      28.003  38.551  46.770  1.00  0.00     0.171 C 
HETATM   31  C   UNL     1      28.851  37.304  46.593  1.00  0.00     0.034 C 
ENDBRANCH  29  30
ENDBRANCH  25  29
ENDBRANCH   1  21
BRANCH   5  32
HETATM   32  O   UNL     1      23.735  45.576  50.870  1.00  0.00    -0.355 OA
HETATM   33  H   UNL     1      24.131  46.400  50.526  1.00  0.00     0.218 HD
ENDBRANCH   5  32
BRANCH   2  34
HETATM   34  C   UNL     1      23.180  41.867  47.663  1.00  0.00     0.129 C 
BRANCH  34  35
HETATM   35  C   UNL     1      23.243  42.366  46.216  1.00  0.00     0.048 C 
BRANCH  35  36
HETATM   36  C   UNL     1      21.943  42.872  45.588  1.00  0.00     0.235 C 
BRANCH  36  37
HETATM   37  N   UNL     1      21.222  43.920  46.401  1.00  0.00    -0.079 N 
HETATM   38  H   UNL     1      21.352  43.655  47.399  1.00  0.00     0.278 HD
HETATM   39  C   UNL     1      21.706  45.324  46.201  1.00  0.00     0.269 C 
HETATM   40  C   UNL     1      19.730  43.834  46.209  1.00  0.00     0.269 C 
ENDBRANCH  36  37
ENDBRANCH  35  36
ENDBRANCH  34  35
ENDBRANCH   2  34
TORSDOF 14
ENDMDL
MODEL 2
REMARK VINA RESULT:      -7.2      2.737      8.895
REMARK  14 active torsions:
REMARK  status: ('A' for Active; 'I' for Inactive)
REMARK    1  A    between atoms: C_2  and  O_3 
REMARK    2  A    between atoms: O_3  and  C_4 
REMARK    3  A    between atoms: C_5  and  O_6 
REMARK    4  A    between atoms: C_9  and  C_10 
REMARK    5  A    between atoms: N_11  and  C_12 
REMARK    6  A    between atoms: C_12  and  C_13 
REMARK    7  A    between atoms: C_13  and  C_14 
REMARK    8  A    between atoms: C_14  and  N_15 
REMARK    9  A    between atoms: C_21  and  O_22 
REMARK   10  A    between atoms: C_23  and  C_24 
REMARK   11  A    between atoms: C_24  and  C_25 
REMARK   12  A    between atoms: C_29  and  O_30 
REMARK   13  A    between atoms: O_30  and  C_31 
REMARK   14  A    between atoms: C_31  and  C_32 
ROOT
HETATM    1  C   UNL     1      27.566  43.296  50.816  1.00  0.00     0.161 A 
HETATM    2  N   UNL     1      27.954  42.936  52.179  1.00  0.00    -0.333 N 
HETATM    3  C   UNL     1      27.621  41.635  52.471  1.00  0.00     0.278 A 
HETATM    4  O   UNL     1      27.884  41.022  53.494  1.00  0.00    -0.265 OA
HETATM    5  C   UNL     1      26.868  41.095  51.325  1.00  0.00     0.146 A 
HETATM    6  C   UNL     1      26.859  42.041  50.377  1.00  0.00     0.059 A 
ENDROOT
BRANCH   6   7
HETATM    7  C   UNL     1      26.280  41.965  49.020  1.00  0.00     0.193 C 
HETATM    8  O   UNL     1      26.930  41.519  48.081  1.00  0.00    -0.287 OA
BRANCH   7   9
HETATM    9  C   UNL     1      24.896  42.406  48.778  1.00  0.00     0.015 A 
HETATM   10  C   UNL     1      24.414  42.536  47.473  1.00  0.00     0.025 A 
HETATM   11  C   UNL     1      23.112  43.008  47.251  1.00  0.00    -0.028 A 
HETATM   12  C   UNL     1      22.601  43.168  45.846  1.00  0.00     0.051 C 
HETATM   13  C   UNL     1      22.312  43.374  48.351  1.00  0.00     0.074 A 
HETATM   14  C   UNL     1      22.804  43.232  49.653  1.00  0.00     0.038 A 
HETATM   15  C   UNL     1      24.102  42.764  49.868  1.00  0.00     0.018 A 
BRANCH  13  16
HETATM   16  O   UNL     1      21.064  43.845  48.047  1.00  0.00    -0.350 OA
BRANCH  16  17
HETATM   17  C   UNL     1      20.755  45.177  48.463  1.00  0.00     0.179 C 
BRANCH  17  18
HETATM   18  C   UNL     1      21.523  46.182  47.589  1.00  0.00     0.002 C 
HETATM   19  C   UNL     1      20.602  46.809  46.540  1.00  0.00     0.011 C 
HETATM   20  C   UNL     1      22.177  47.276  48.432  1.00  0.00     0.011 C 
ENDBRANCH  17  18
ENDBRANCH  16  17
ENDBRANCH  13  16
ENDBRANCH   7   9
ENDBRANCH   6   7
BRANCH   1  21
HETATM   21  C   UNL     1      26.782  44.595  50.798  1.00  0.00    -0.028 A 
HETATM   22  C   UNL     1      25.825  44.819  51.808  1.00  0.00     0.012 A 
HETATM   23  C   UNL     1      25.066  45.987  51.827  1.00  0.00     0.040 A 
HETATM   24  C   UNL     1      25.273  46.945  50.847  1.00  0.00     0.099 A 
HETATM   25  C   UNL     1      26.229  46.766  49.844  1.00  0.00     0.102 A 
HETATM   26  C   UNL     1      26.961  45.577  49.803  1.00  0.00     0.049 A 
BRANCH  24  27
HETATM   27  O   UNL     1      24.525  48.089  50.899  1.00  0.00    -0.358 OA
HETATM   28  H   UNL     1      25.146  48.793  51.170  1.00  0.00     0.218 HD
ENDBRANCH  24  27
BRANCH  25  29
HETATM   29  O   UNL     1      26.340  47.801  48.953  1.00  0.00    -0.349 OA
BRANCH  29  30
HETATM   30  C   UNL     1      27.523  48.595  49.063  1.00  0.00     0.171 C 
HETATM   31  C   UNL     1      27.160  50.023  48.695  1.00  0.00     0.034 C 
ENDBRANCH  29  30
ENDBRANCH  25  29
ENDBRANCH   1  21
BRANCH   5  32
HETATM   32  O   UNL     1      26.330  39.846  51.301  1.00  0.00    -0.355 OA
HETATM   33  H   UNL     1      25.744  39.791  50.522  1.00  0.00     0.218 HD
ENDBRANCH   5  32
BRANCH   2  34
HETATM   34  C   UNL     1      28.877  43.727  52.973  1.00  0.00     0.129 C 
BRANCH  34  35
HETATM   35  C   UNL     1      28.373  44.050  54.383  1.00  0.00     0.048 C 
BRANCH  35  36
HETATM   36  C   UNL     1      28.830  45.369  55.011  1.00  0.00     0.235 C 
BRANCH  36  37
HETATM   37  N   UNL     1      30.098  45.267  55.825  1.00  0.00    -0.079 N 
HETATM   38  H   UNL     1      30.820  45.808  55.307  1.00  0.00     0.278 HD
HETATM   39  C   UNL     1      29.999  45.794  57.223  1.00  0.00     0.269 C 
HETATM   40  C   UNL     1      30.643  43.862  55.818  1.00  0.00     0.269 C 
ENDBRANCH  36  37
ENDBRANCH  35  36
ENDBRANCH  34  35
ENDBRANCH   2  34
TORSDOF 14
ENDMDL
MODEL 3
REMARK VINA RESULT:      -7.1      4.890      7.833
REMARK  14 active torsions:
REMARK  status: ('A' for Active; 'I' for Inactive)
REMARK    1  A    between atoms: C_2  and  O_3 
REMARK    2  A    between atoms: O_3  and  C_4 
REMARK    3  A    between atoms: C_5  and  O_6 
REMARK    4  A    between atoms: C_9  and  C_10 
REMARK    5  A    between atoms: N_11  and  C_12 
REMARK    6  A    between atoms: C_12  and  C_13 
REMARK    7  A    between atoms: C_13  and  C_14 
REMARK    8  A    between atoms: C_14  and  N_15 
REMARK    9  A    between atoms: C_21  and  O_22 
REMARK   10  A    between atoms: C_23  and  C_24 
REMARK   11  A    between atoms: C_24  and  C_25 
REMARK   12  A    between atoms: C_29  and  O_30 
REMARK   13  A    between atoms: O_30  and  C_31 
REMARK   14  A    between atoms: C_31  and  C_32 
ROOT
HETATM    1  C   UNL     1      20.246  48.990  47.834  1.00  0.00     0.161 A 
HETATM    2  N   UNL     1      19.100  49.172  48.724  1.00  0.00    -0.333 N 
HETATM    3  C   UNL     1      19.442  49.894  49.844  1.00  0.00     0.278 A 
HETATM    4  O   UNL     1      18.690  50.273  50.728  1.00  0.00    -0.265 OA
HETATM    5  C   UNL     1      20.896  50.125  49.804  1.00  0.00     0.146 A 
HETATM    6  C   UNL     1      21.344  49.626  48.645  1.00  0.00     0.059 A 
ENDROOT
BRANCH   6   7
HETATM    7  C   UNL     1      22.722  49.660  48.111  1.00  0.00     0.193 C 
HETATM    8  O   UNL     1      22.998  50.329  47.122  1.00  0.00    -0.287 OA
BRANCH   7   9
HETATM    9  C   UNL     1      23.794  48.902  48.777  1.00  0.00     0.015 A 
HETATM   10  C   UNL     1      25.124  49.323  48.678  1.00  0.00     0.025 A 
HETATM   11  C   UNL     1      26.144  48.566  49.271  1.00  0.00    -0.028 A 
HETATM   12  C   UNL     1      27.576  49.008  49.145  1.00  0.00     0.051 C 
HETATM   13  C   UNL     1      25.819  47.369  49.937  1.00  0.00     0.074 A 
HETATM   14  C   UNL     1      24.484  46.962  50.035  1.00  0.00     0.038 A 
HETATM   15  C   UNL     1      23.472  47.719  49.441  1.00  0.00     0.018 A 
BRANCH  13  16
HETATM   16  O   UNL     1      26.875  46.679  50.467  1.00  0.00    -0.350 OA
BRANCH  16  17
HETATM   17  C   UNL     1      26.934  45.276  50.199  1.00  0.00     0.179 C 
BRANCH  17  18
HETATM   18  C   UNL     1      26.816  44.494  51.516  1.00  0.00     0.002 C 
HETATM   19  C   UNL     1      28.053  43.622  51.747  1.00  0.00     0.011 C 
HETATM   20  C   UNL     1      26.605  45.428  52.708  1.00  0.00     0.011 C 
ENDBRANCH  17  18
ENDBRANCH  16  17
ENDBRANCH  13  16
ENDBRANCH   7   9
ENDBRANCH   6   7
BRANCH   1  21
HETATM   21  C   UNL     1      20.406  47.533  47.443  1.00  0.00    -0.028 A 
HETATM   22  C   UNL     1      20.329  47.189  46.078  1.00  0.00     0.012 A 
HETATM   23  C   UNL     1      20.451  45.864  45.667  1.00  0.00     0.040 A 
HETATM   24  C   UNL     1      20.671  44.878  46.616  1.00  0.00     0.099 A 
HETATM   25  C   UNL     1      20.776  45.187  47.975  1.00  0.00     0.102 A 
HETATM   26  C   UNL     1      20.613  46.511  48.389  1.00  0.00     0.049 A 
BRANCH  24  27
HETATM   27  O   UNL     1      20.803  43.588  46.184  1.00  0.00    -0.358 OA
HETATM   28  H   UNL     1      21.055  43.072  46.975  1.00  0.00     0.218 HD
ENDBRANCH  24  27
BRANCH  25  29
HETATM   29  O   UNL     1      21.012  44.117  48.798  1.00  0.00    -0.349 OA
BRANCH  29  30
HETATM   30  C   UNL     1      22.261  44.127  49.492  1.00  0.00     0.171 C 
HETATM   31  C   UNL     1      23.176  43.121  48.817  1.00  0.00     0.034 C 
ENDBRANCH  29  30
ENDBRANCH  25  29
ENDBRANCH   1  21
BRANCH   5  32
HETATM   32  O   UNL     1      21.583  50.758  50.793  1.00  0.00    -0.355 OA
HETATM   33  H   UNL     1      22.406  50.257  50.950  1.00  0.00     0.218 HD
ENDBRANCH   5  32
BRANCH   2  34
HETATM   34  C   UNL     1      17.730  48.935  48.307  1.00  0.00     0.129 C 
BRANCH  34  35
HETATM   35  C   UNL     1      17.049  50.150  47.669  1.00  0.00     0.048 C 
BRANCH  35  36
HETATM   36  C   UNL     1      15.846  50.749  48.401  1.00  0.00     0.235 C 
BRANCH  36  37
HETATM   37  N   UNL     1      16.202  51.761  49.463  1.00  0.00    -0.079 N 
HETATM   38  H   UNL     1      16.518  51.216  50.291  1.00  0.00     0.278 HD
HETATM   39  C   UNL     1      17.275  52.734  49.080  1.00  0.00     0.269 C 
HETATM   40  C   UNL     1      14.978  52.482  49.966  1.00  0.00     0.269 C 
ENDBRANCH  36  37
ENDBRANCH  35  36
ENDBRANCH  34  35
ENDBRANCH   2  34
TORSDOF 14
ENDMDL
MODEL 4
REMARK VINA RESULT:      -7.1      2.705      8.884
REMARK  14 active torsions:
REMARK  status: ('A' for Active; 'I' for Inactive)
REMARK    1  A    between atoms: C_2  and  O_3 
REMARK    2  A    between atoms: O_3  and  C_4 
REMARK    3  A    between atoms: C_5  and  O_6 
REMARK    4  A    between atoms: C_9  and  C_10 
REMARK    5  A    between atoms: N_11  and  C_12 
REMARK    6  A    between atoms: C_12  and  C_13 
REMARK    7  A    between atoms: C_13  and  C_14 
REMARK    8  A    between atoms: C_14  and  N_15 
REMARK    9  A    between atoms: C_21  and  O_22 
REMARK   10  A    between atoms: C_23  and  C_24 
REMARK   11  A    between atoms: C_24  and  C_25 
REMARK   12  A    between atoms: C_29  and  O_30 
REMARK   13  A    between atoms: O_30  and  C_31 
REMARK   14  A    between atoms: C_31  and  C_32 
ROOT
HETATM    1  C   UNL     1      27.670  43.300  50.833  1.00  0.00     0.161 A 
HETATM    2  N   UNL     1      27.874  42.930  52.232  1.00  0.00    -0.333 N 
HETATM    3  C   UNL     1      27.679  41.583  52.431  1.00  0.00     0.278 A 
HETATM    4  O   UNL     1      27.851  40.963  53.469  1.00  0.00    -0.265 OA
HETATM    5  C   UNL     1      27.205  41.005  51.161  1.00  0.00     0.146 A 
HETATM    6  C   UNL     1      27.223  41.986  50.249  1.00  0.00     0.059 A 
ENDROOT
BRANCH   6   7
HETATM    7  C   UNL     1      26.892  41.899  48.812  1.00  0.00     0.193 C 
HETATM    8  O   UNL     1      27.773  41.780  47.967  1.00  0.00    -0.287 OA
BRANCH   7   9
HETATM    9  C   UNL     1      25.487  41.934  48.371  1.00  0.00     0.015 A 
HETATM   10  C   UNL     1      24.775  43.137  48.375  1.00  0.00     0.025 A 
HETATM   11  C   UNL     1      23.422  43.151  48.004  1.00  0.00    -0.028 A 
HETATM   12  C   UNL     1      22.652  44.442  48.029  1.00  0.00     0.051 C 
HETATM   13  C   UNL     1      22.787  41.942  47.660  1.00  0.00     0.074 A 
HETATM   14  C   UNL     1      23.513  40.746  47.654  1.00  0.00     0.038 A 
HETATM   15  C   UNL     1      24.859  40.738  48.025  1.00  0.00     0.018 A 
BRANCH  13  16
HETATM   16  O   UNL     1      21.462  42.040  47.333  1.00  0.00    -0.350 OA
BRANCH  16  17
HETATM   17  C   UNL     1      21.075  41.561  46.043  1.00  0.00     0.179 C 
BRANCH  17  18
HETATM   18  C   UNL     1      20.435  42.704  45.240  1.00  0.00     0.002 C 
HETATM   19  C   UNL     1      19.562  43.583  46.139  1.00  0.00     0.011 C 
HETATM   20  C   UNL     1      21.491  43.560  44.540  1.00  0.00     0.011 C 
ENDBRANCH  17  18
ENDBRANCH  16  17
ENDBRANCH  13  16
ENDBRANCH   7   9
ENDBRANCH   6   7
BRANCH   1  21
HETATM   21  C   UNL     1      26.730  44.485  50.714  1.00  0.00    -0.028 A 
HETATM   22  C   UNL     1      25.533  44.473  51.459  1.00  0.00     0.012 A 
HETATM   23  C   UNL     1      24.628  45.528  51.373  1.00  0.00     0.040 A 
HETATM   24  C   UNL     1      24.921  46.608  50.556  1.00  0.00     0.099 A 
HETATM   25  C   UNL     1      26.109  46.663  49.821  1.00  0.00     0.102 A 
HETATM   26  C   UNL     1      26.998  45.587  49.878  1.00  0.00     0.049 A 
BRANCH  24  27
HETATM   27  O   UNL     1      24.022  47.636  50.502  1.00  0.00    -0.358 OA
HETATM   28  H   UNL     1      23.761  47.803  51.429  1.00  0.00     0.218 HD
ENDBRANCH  24  27
BRANCH  25  29
HETATM   29  O   UNL     1      26.278  47.797  49.071  1.00  0.00    -0.349 OA
BRANCH  29  30
HETATM   30  C   UNL     1      27.562  48.418  49.158  1.00  0.00     0.171 C 
HETATM   31  C   UNL     1      27.396  49.883  48.795  1.00  0.00     0.034 C 
ENDBRANCH  29  30
ENDBRANCH  25  29
ENDBRANCH   1  21
BRANCH   5  32
HETATM   32  O   UNL     1      26.854  39.699  51.015  1.00  0.00    -0.355 OA
HETATM   33  H   UNL     1      26.617  39.559  50.078  1.00  0.00     0.218 HD
ENDBRANCH   5  32
BRANCH   2  34
HETATM   34  C   UNL     1      28.536  43.796  53.191  1.00  0.00     0.129 C 
BRANCH  34  35
HETATM   35  C   UNL     1      27.705  44.099  54.441  1.00  0.00     0.048 C 
BRANCH  35  36
HETATM   36  C   UNL     1      27.019  45.464  54.518  1.00  0.00     0.235 C 
BRANCH  36  37
HETATM   37  N   UNL     1      27.667  46.437  55.474  1.00  0.00    -0.079 N 
HETATM   38  H   UNL     1      26.964  46.628  56.217  1.00  0.00     0.278 HD
HETATM   39  C   UNL     1      28.933  45.953  56.111  1.00  0.00     0.269 C 
HETATM   40  C   UNL     1      27.871  47.785  54.832  1.00  0.00     0.269 C 
ENDBRANCH  36  37
ENDBRANCH  35  36
ENDBRANCH  34  35
ENDBRANCH   2  34
TORSDOF 14
ENDMDL
MODEL 5
REMARK VINA RESULT:      -7.0      3.065      6.228
REMARK  14 active torsions:
REMARK  status: ('A' for Active; 'I' for Inactive)
REMARK    1  A    between atoms: C_2  and  O_3 
REMARK    2  A    between atoms: O_3  and  C_4 
REMARK    3  A    between atoms: C_5  and  O_6 
REMARK    4  A    between atoms: C_9  and  C_10 
REMARK    5  A    between atoms: N_11  and  C_12 
REMARK    6  A    between atoms: C_12  and  C_13 
REMARK    7  A    between atoms: C_13  and  C_14 
REMARK    8  A    between atoms: C_14  and  N_15 
REMARK    9  A    between atoms: C_21  and  O_22 
REMARK   10  A    between atoms: C_23  and  C_24 
REMARK   11  A    between atoms: C_24  and  C_25 
REMARK   12  A    between atoms: C_29  and  O_30 
REMARK   13  A    between atoms: O_30  and  C_31 
REMARK   14  A    between atoms: C_31  and  C_32 
ROOT
HETATM    1  C   UNL     1      21.943  45.331  47.919  1.00  0.00     0.161 A 
HETATM    2  N   UNL     1      22.250  45.272  46.490  1.00  0.00    -0.333 N 
HETATM    3  C   UNL     1      23.107  44.235  46.202  1.00  0.00     0.278 A 
HETATM    4  O   UNL     1      23.484  43.882  45.095  1.00  0.00    -0.265 OA
HETATM    5  C   UNL     1      23.512  43.618  47.478  1.00  0.00     0.146 A 
HETATM    6  C   UNL     1      22.828  44.235  48.449  1.00  0.00     0.059 A 
ENDROOT
BRANCH   6   7
HETATM    7  C   UNL     1      22.841  43.942  49.898  1.00  0.00     0.193 C 
HETATM    8  O   UNL     1      21.820  43.591  50.480  1.00  0.00    -0.287 OA
BRANCH   7   9
HETATM    9  C   UNL     1      24.093  44.048  50.665  1.00  0.00     0.015 A 
HETATM   10  C   UNL     1      24.523  45.286  51.150  1.00  0.00     0.025 A 
HETATM   11  C   UNL     1      25.743  45.385  51.834  1.00  0.00    -0.028 A 
HETATM   12  C   UNL     1      26.215  46.722  52.336  1.00  0.00     0.051 C 
HETATM   13  C   UNL     1      26.539  44.236  51.998  1.00  0.00     0.074 A 
HETATM   14  C   UNL     1      26.095  43.001  51.514  1.00  0.00     0.038 A 
HETATM   15  C   UNL     1      24.880  42.908  50.832  1.00  0.00     0.018 A 
BRANCH  13  16
HETATM   16  O   UNL     1      27.724  44.423  52.656  1.00  0.00    -0.350 OA
BRANCH  16  17
HETATM   17  C   UNL     1      27.828  43.881  53.974  1.00  0.00     0.179 C 
BRANCH  17  18
HETATM   18  C   UNL     1      29.153  43.114  54.113  1.00  0.00     0.002 C 
HETATM   19  C   UNL     1      29.864  43.001  52.763  1.00  0.00     0.011 C 
HETATM   20  C   UNL     1      30.078  43.773  55.136  1.00  0.00     0.011 C 
ENDBRANCH  17  18
ENDBRANCH  16  17
ENDBRANCH  13  16
ENDBRANCH   7   9
ENDBRANCH   6   7
BRANCH   1  21
HETATM   21  C   UNL     1      22.147  46.733  48.462  1.00  0.00    -0.028 A 
HETATM   22  C   UNL     1      21.013  47.533  48.708  1.00  0.00     0.012 A 
HETATM   23  C   UNL     1      21.146  48.832  49.190  1.00  0.00     0.040 A 
HETATM   24  C   UNL     1      22.412  49.334  49.447  1.00  0.00     0.099 A 
HETATM   25  C   UNL     1      23.557  48.560  49.236  1.00  0.00     0.102 A 
HETATM   26  C   UNL     1      23.424  47.271  48.715  1.00  0.00     0.049 A 
BRANCH  24  27
HETATM   27  O   UNL     1      22.513  50.606  49.934  1.00  0.00    -0.358 OA
HETATM   28  H   UNL     1      23.468  50.756  50.077  1.00  0.00     0.218 HD
ENDBRANCH  24  27
BRANCH  25  29
HETATM   29  O   UNL     1      24.741  49.175  49.549  1.00  0.00    -0.349 OA
BRANCH  29  30
HETATM   30  C   UNL     1      25.564  49.548  48.443  1.00  0.00     0.171 C 
HETATM   31  C   UNL     1      27.004  49.233  48.807  1.00  0.00     0.034 C 
ENDBRANCH  29  30
ENDBRANCH  25  29
ENDBRANCH   1  21
BRANCH   5  32
HETATM   32  O   UNL     1      24.407  42.598  47.567  1.00  0.00    -0.355 OA
HETATM   33  H   UNL     1      24.703  42.383  46.661  1.00  0.00     0.218 HD
ENDBRANCH   5  32
BRANCH   2  34
HETATM   34  C   UNL     1      21.479  45.980  45.485  1.00  0.00     0.129 C 
BRANCH  34  35
HETATM   35  C   UNL     1      20.014  45.542  45.394  1.00  0.00     0.048 C 
BRANCH  35  36
HETATM   36  C   UNL     1      18.959  46.637  45.226  1.00  0.00     0.235 C 
BRANCH  36  37
HETATM   37  N   UNL     1      17.908  46.663  46.310  1.00  0.00    -0.079 N 
HETATM   38  H   UNL     1      16.992  46.543  45.830  1.00  0.00     0.278 HD
HETATM   39  C   UNL     1      18.052  45.605  47.360  1.00  0.00     0.269 C 
HETATM   40  C   UNL     1      17.798  48.029  46.936  1.00  0.00     0.269 C 
ENDBRANCH  36  37
ENDBRANCH  35  36
ENDBRANCH  34  35
ENDBRANCH   2  34
TORSDOF 14
ENDMDL
MODEL 6
REMARK VINA RESULT:      -7.0      5.277     10.388
REMARK  14 active torsions:
REMARK  status: ('A' for Active; 'I' for Inactive)
REMARK    1  A    between atoms: C_2  and  O_3 
REMARK    2  A    between atoms: O_3  and  C_4 
REMARK    3  A    between atoms: C_5  and  O_6 
REMARK    4  A    between atoms: C_9  and  C_10 
REMARK    5  A    between atoms: N_11  and  C_12 
REMARK    6  A    between atoms: C_12  and  C_13 
REMARK    7  A    between atoms: C_13  and  C_14 
REMARK    8  A    between atoms: C_14  and  N_15 
REMARK    9  A    between atoms: C_21  and  O_22 
REMARK   10  A    between atoms: C_23  and  C_24 
REMARK   11  A    between atoms: C_24  and  C_25 
REMARK   12  A    between atoms: C_29  and  O_30 
REMARK   13  A    between atoms: O_30  and  C_31 
REMARK   14  A    between atoms: C_31  and  C_32 
ROOT
HETATM    1  C   UNL     1      23.413  47.911  49.462  1.00  0.00     0.161 A 
HETATM    2  N   UNL     1      24.569  47.166  49.959  1.00  0.00    -0.333 N 
HETATM    3  C   UNL     1      25.748  47.804  49.656  1.00  0.00     0.278 A 
HETATM    4  O   UNL     1      26.871  47.472  50.002  1.00  0.00    -0.265 OA
HETATM    5  C   UNL     1      25.425  48.971  48.816  1.00  0.00     0.146 A 
HETATM    6  C   UNL     1      24.091  49.037  48.728  1.00  0.00     0.059 A 
ENDROOT
BRANCH   6   7
HETATM    7  C   UNL     1      23.274  50.060  48.043  1.00  0.00     0.193 C 
HETATM    8  O   UNL     1      23.726  50.702  47.101  1.00  0.00    -0.287 OA
BRANCH   7   9
HETATM    9  C   UNL     1      21.888  50.311  48.471  1.00  0.00     0.015 A 
HETATM   10  C   UNL     1      20.844  50.277  47.543  1.00  0.00     0.025 A 
HETATM   11  C   UNL     1      19.534  50.569  47.951  1.00  0.00    -0.028 A 
HETATM   12  C   UNL     1      18.415  50.553  46.946  1.00  0.00     0.051 C 
HETATM   13  C   UNL     1      19.290  50.924  49.291  1.00  0.00     0.074 A 
HETATM   14  C   UNL     1      20.343  50.948  50.212  1.00  0.00     0.038 A 
HETATM   15  C   UNL     1      21.645  50.658  49.800  1.00  0.00     0.018 A 
BRANCH  13  16
HETATM   16  O   UNL     1      17.990  51.216  49.601  1.00  0.00    -0.350 OA
BRANCH  16  17
HETATM   17  C   UNL     1      17.681  52.583  49.881  1.00  0.00     0.179 C 
BRANCH  17  18
HETATM   18  C   UNL     1      16.242  52.888  49.434  1.00  0.00     0.002 C 
HETATM   19  C   UNL     1      15.517  51.608  49.012  1.00  0.00     0.011 C 
HETATM   20  C   UNL     1      15.451  53.599  50.532  1.00  0.00     0.011 C 
ENDBRANCH  17  18
ENDBRANCH  16  17
ENDBRANCH  13  16
ENDBRANCH   7   9
ENDBRANCH   6   7
BRANCH   1  21
HETATM   21  C   UNL     1      22.482  47.010  48.673  1.00  0.00    -0.028 A 
HETATM   22  C   UNL     1      23.026  46.204  47.653  1.00  0.00     0.012 A 
HETATM   23  C   UNL     1      22.212  45.372  46.888  1.00  0.00     0.040 A 
HETATM   24  C   UNL     1      20.852  45.327  47.151  1.00  0.00     0.099 A 
HETATM   25  C   UNL     1      20.282  46.094  48.170  1.00  0.00     0.102 A 
HETATM   26  C   UNL     1      21.094  46.958  48.910  1.00  0.00     0.049 A 
BRANCH  24  27
HETATM   27  O   UNL     1      20.079  44.490  46.396  1.00  0.00    -0.358 OA
HETATM   28  H   UNL     1      19.289  45.012  46.154  1.00  0.00     0.218 HD
ENDBRANCH  24  27
BRANCH  25  29
HETATM   29  O   UNL     1      18.931  45.937  48.332  1.00  0.00    -0.349 OA
BRANCH  29  30
HETATM   30  C   UNL     1      18.113  46.992  47.825  1.00  0.00     0.171 C 
HETATM   31  C   UNL     1      17.383  47.620  48.998  1.00  0.00     0.034 C 
ENDBRANCH  29  30
ENDBRANCH  25  29
ENDBRANCH   1  21
BRANCH   5  32
HETATM   32  O   UNL     1      26.367  49.795  48.283  1.00  0.00    -0.355 OA
HETATM   33  H   UNL     1      26.323  49.706  47.312  1.00  0.00     0.218 HD
ENDBRANCH   5  32
BRANCH   2  34
HETATM   34  C   UNL     1      24.460  46.099  50.939  1.00  0.00     0.129 C 
BRANCH  34  35
HETATM   35  C   UNL     1      24.924  44.731  50.430  1.00  0.00     0.048 C 
BRANCH  35  36
HETATM   36  C   UNL     1      24.396  43.493  51.158  1.00  0.00     0.235 C 
BRANCH  36  37
HETATM   37  N   UNL     1      25.450  42.458  51.475  1.00  0.00    -0.079 N 
HETATM   38  H   UNL     1      25.124  41.964  52.330  1.00  0.00     0.278 HD
HETATM   39  C   UNL     1      25.699  41.453  50.393  1.00  0.00     0.269 C 
HETATM   40  C   UNL     1      26.738  43.104  51.914  1.00  0.00     0.269 C 
ENDBRANCH  36  37
ENDBRANCH  35  36
ENDBRANCH  34  35
ENDBRANCH   2  34
TORSDOF 14
ENDMDL
MODEL 7
REMARK VINA RESULT:      -6.9      7.053     10.365
REMARK  14 active torsions:
REMARK  status: ('A' for Active; 'I' for Inactive)
REMARK    1  A    between atoms: C_2  and  O_3 
REMARK    2  A    between atoms: O_3  and  C_4 
REMARK    3  A    between atoms: C_5  and  O_6 
REMARK    4  A    between atoms: C_9  and  C_10 
REMARK    5  A    between atoms: N_11  and  C_12 
REMARK    6  A    between atoms: C_12  and  C_13 
REMARK    7  A    between atoms: C_13  and  C_14 
REMARK    8  A    between atoms: C_14  and  N_15 
REMARK    9  A    between atoms: C_21  and  O_22 
REMARK   10  A    between atoms: C_23  and  C_24 
REMARK   11  A    between atoms: C_24  and  C_25 
REMARK   12  A    between atoms: C_29  and  O_30 
REMARK   13  A    between atoms: O_30  and  C_31 
REMARK   14  A    between atoms: C_31  and  C_32 
ROOT
HETATM    1  C   UNL     1      18.017  50.338  47.527  1.00  0.00     0.161 A 
HETATM    2  N   UNL     1      16.846  51.083  47.067  1.00  0.00    -0.333 N 
HETATM    3  C   UNL     1      16.394  51.955  48.030  1.00  0.00     0.278 A 
HETATM    4  O   UNL     1      15.487  52.766  47.917  1.00  0.00    -0.265 OA
HETATM    5  C   UNL     1      17.192  51.734  49.248  1.00  0.00     0.146 A 
HETATM    6  C   UNL     1      18.129  50.826  48.947  1.00  0.00     0.059 A 
ENDROOT
BRANCH   6   7
HETATM    7  C   UNL     1      19.209  50.310  49.814  1.00  0.00     0.193 C 
HETATM    8  O   UNL     1      19.005  50.065  50.998  1.00  0.00    -0.287 OA
BRANCH   7   9
HETATM    9  C   UNL     1      20.550  50.061  49.260  1.00  0.00     0.015 A 
HETATM   10  C   UNL     1      21.044  48.757  49.162  1.00  0.00     0.025 A 
HETATM   11  C   UNL     1      22.343  48.534  48.682  1.00  0.00    -0.028 A 
HETATM   12  C   UNL     1      22.880  47.132  48.598  1.00  0.00     0.051 C 
HETATM   13  C   UNL     1      23.148  49.634  48.330  1.00  0.00     0.074 A 
HETATM   14  C   UNL     1      22.640  50.934  48.426  1.00  0.00     0.038 A 
HETATM   15  C   UNL     1      21.347  51.150  48.907  1.00  0.00     0.018 A 
BRANCH  13  16
HETATM   16  O   UNL     1      24.409  49.331  47.893  1.00  0.00    -0.350 OA
BRANCH  16  17
HETATM   17  C   UNL     1      25.501  49.848  48.656  1.00  0.00     0.179 C 
BRANCH  17  18
HETATM   18  C   UNL     1      26.514  48.724  48.932  1.00  0.00     0.002 C 
HETATM   19  C   UNL     1      27.923  49.292  49.121  1.00  0.00     0.011 C 
HETATM   20  C   UNL     1      26.116  47.897  50.154  1.00  0.00     0.011 C 
ENDBRANCH  17  18
ENDBRANCH  16  17
ENDBRANCH  13  16
ENDBRANCH   7   9
ENDBRANCH   6   7
BRANCH   1  21
HETATM   21  C   UNL     1      17.838  48.848  47.301  1.00  0.00    -0.028 A 
HETATM   22  C   UNL     1      16.864  48.164  48.056  1.00  0.00     0.012 A 
HETATM   23  C   UNL     1      16.671  46.794  47.899  1.00  0.00     0.040 A 
HETATM   24  C   UNL     1      17.439  46.103  46.975  1.00  0.00     0.099 A 
HETATM   25  C   UNL     1      18.397  46.754  46.194  1.00  0.00     0.102 A 
HETATM   26  C   UNL     1      18.617  48.121  46.380  1.00  0.00     0.049 A 
BRANCH  24  27
HETATM   27  O   UNL     1      17.219  44.762  46.830  1.00  0.00    -0.358 OA
HETATM   28  H   UNL     1      16.260  44.638  46.974  1.00  0.00     0.218 HD
ENDBRANCH  24  27
BRANCH  25  29
HETATM   29  O   UNL     1      19.069  45.952  45.308  1.00  0.00    -0.349 OA
BRANCH  29  30
HETATM   30  C   UNL     1      19.094  46.403  43.953  1.00  0.00     0.171 C 
HETATM   31  C   UNL     1      18.356  45.381  43.107  1.00  0.00     0.034 C 
ENDBRANCH  29  30
ENDBRANCH  25  29
ENDBRANCH   1  21
BRANCH   5  32
HETATM   32  O   UNL     1      16.971  52.388  50.420  1.00  0.00    -0.355 OA
HETATM   33  H   UNL     1      17.816  52.416  50.908  1.00  0.00     0.218 HD
ENDBRANCH   5  32
BRANCH   2  34
HETATM   34  C   UNL     1      16.447  51.148  45.673  1.00  0.00     0.129 C 
BRANCH  34  35
HETATM   35  C   UNL     1      15.089  50.505  45.378  1.00  0.00     0.048 C 
BRANCH  35  36
HETATM   36  C   UNL     1      15.067  49.313  44.418  1.00  0.00     0.235 C 
BRANCH  36  37
HETATM   37  N   UNL     1      14.768  47.987  45.075  1.00  0.00    -0.079 N 
HETATM   38  H   UNL     1      15.400  47.921  45.899  1.00  0.00     0.278 HD
HETATM   39  C   UNL     1      13.352  47.807  45.528  1.00  0.00     0.269 C 
HETATM   40  C   UNL     1      15.205  46.835  44.208  1.00  0.00     0.269 C 
ENDBRANCH  36  37
ENDBRANCH  35  36
ENDBRANCH  34  35
ENDBRANCH   2  34
TORSDOF 14
ENDMDL
MODEL 8
REMARK VINA RESULT:      -6.9      4.916      7.903
REMARK  14 active torsions:
REMARK  status: ('A' for Active; 'I' for Inactive)
REMARK    1  A    between atoms: C_2  and  O_3 
REMARK    2  A    between atoms: O_3  and  C_4 
REMARK    3  A    between atoms: C_5  and  O_6 
REMARK    4  A    between atoms: C_9  and  C_10 
REMARK    5  A    between atoms: N_11  and  C_12 
REMARK    6  A    between atoms: C_12  and  C_13 
REMARK    7  A    between atoms: C_13  and  C_14 
REMARK    8  A    between atoms: C_14  and  N_15 
REMARK    9  A    between atoms: C_21  and  O_22 
REMARK   10  A    between atoms: C_23  and  C_24 
REMARK   11  A    between atoms: C_24  and  C_25 
REMARK   12  A    between atoms: C_29  and  O_30 
REMARK   13  A    between atoms: O_30  and  C_31 
REMARK   14  A    between atoms: C_31  and  C_32 
ROOT
HETATM    1  C   UNL     1      20.377  49.027  47.933  1.00  0.00     0.161 A 
HETATM    2  N   UNL     1      19.237  49.299  48.807  1.00  0.00    -0.333 N 
HETATM    3  C   UNL     1      19.598  50.084  49.877  1.00  0.00     0.278 A 
HETATM    4  O   UNL     1      18.856  50.541  50.733  1.00  0.00    -0.265 OA
HETATM    5  C   UNL     1      21.058  50.272  49.825  1.00  0.00     0.146 A 
HETATM    6  C   UNL     1      21.492  49.685  48.703  1.00  0.00     0.059 A 
ENDROOT
BRANCH   6   7
HETATM    7  C   UNL     1      22.870  49.647  48.170  1.00  0.00     0.193 C 
HETATM    8  O   UNL     1      23.186  50.312  47.190  1.00  0.00    -0.287 OA
BRANCH   7   9
HETATM    9  C   UNL     1      23.896  48.819  48.826  1.00  0.00     0.015 A 
HETATM   10  C   UNL     1      25.241  49.198  48.787  1.00  0.00     0.025 A 
HETATM   11  C   UNL     1      26.217  48.376  49.369  1.00  0.00    -0.028 A 
HETATM   12  C   UNL     1      27.666  48.773  49.307  1.00  0.00     0.051 C 
HETATM   13  C   UNL     1      25.832  47.159  49.963  1.00  0.00     0.074 A 
HETATM   14  C   UNL     1      24.481  46.795  50.002  1.00  0.00     0.038 A 
HETATM   15  C   UNL     1      23.514  47.616  49.419  1.00  0.00     0.018 A 
BRANCH  13  16
HETATM   16  O   UNL     1      26.847  46.406  50.487  1.00  0.00    -0.350 OA
BRANCH  16  17
HETATM   17  C   UNL     1      27.074  45.124  49.898  1.00  0.00     0.179 C 
BRANCH  17  18
HETATM   18  C   UNL     1      27.046  44.043  50.991  1.00  0.00     0.002 C 
HETATM   19  C   UNL     1      27.075  44.674  52.385  1.00  0.00     0.011 C 
HETATM   20  C   UNL     1      25.824  43.136  50.853  1.00  0.00     0.011 C 
ENDBRANCH  17  18
ENDBRANCH  16  17
ENDBRANCH  13  16
ENDBRANCH   7   9
ENDBRANCH   6   7
BRANCH   1  21
HETATM   21  C   UNL     1      20.497  47.544  47.640  1.00  0.00    -0.028 A 
HETATM   22  C   UNL     1      20.083  46.625  48.625  1.00  0.00     0.012 A 
HETATM   23  C   UNL     1      20.188  45.253  48.413  1.00  0.00     0.040 A 
HETATM   24  C   UNL     1      20.692  44.791  47.207  1.00  0.00     0.099 A 
HETATM   25  C   UNL     1      21.090  45.673  46.199  1.00  0.00     0.102 A 
HETATM   26  C   UNL     1      21.021  47.049  46.429  1.00  0.00     0.049 A 
BRANCH  24  27
HETATM   27  O   UNL     1      20.769  43.439  47.019  1.00  0.00    -0.358 OA
HETATM   28  H   UNL     1      20.308  43.267  46.174  1.00  0.00     0.218 HD
ENDBRANCH  24  27
BRANCH  25  29
HETATM   29  O   UNL     1      21.549  45.079  45.053  1.00  0.00    -0.349 OA
BRANCH  29  30
HETATM   30  C   UNL     1      21.060  45.625  43.827  1.00  0.00     0.171 C 
HETATM   31  C   UNL     1      22.190  45.578  42.813  1.00  0.00     0.034 C 
ENDBRANCH  29  30
ENDBRANCH  25  29
ENDBRANCH   1  21
BRANCH   5  32
HETATM   32  O   UNL     1      21.762  50.951  50.771  1.00  0.00    -0.355 OA
HETATM   33  H   UNL     1      21.770  51.893  50.515  1.00  0.00     0.218 HD
ENDBRANCH   5  32
BRANCH   2  34
HETATM   34  C   UNL     1      17.860  49.072  48.405  1.00  0.00     0.129 C 
BRANCH  34  35
HETATM   35  C   UNL     1      17.433  49.856  47.160  1.00  0.00     0.048 C 
BRANCH  35  36
HETATM   36  C   UNL     1      17.213  51.362  47.317  1.00  0.00     0.235 C 
BRANCH  36  37
HETATM   37  N   UNL     1      15.897  51.738  47.956  1.00  0.00    -0.079 N 
HETATM   38  H   UNL     1      15.293  50.893  47.896  1.00  0.00     0.278 HD
HETATM   39  C   UNL     1      15.988  52.175  49.385  1.00  0.00     0.269 C 
HETATM   40  C   UNL     1      15.157  52.756  47.128  1.00  0.00     0.269 C 
ENDBRANCH  36  37
ENDBRANCH  35  36
ENDBRANCH  34  35
ENDBRANCH   2  34
TORSDOF 14
ENDMDL
MODEL 9
REMARK VINA RESULT:      -6.8      4.215      7.222
REMARK  14 active torsions:
REMARK  status: ('A' for Active; 'I' for Inactive)
REMARK    1  A    between atoms: C_2  and  O_3 
REMARK    2  A    between atoms: O_3  and  C_4 
REMARK    3  A    between atoms: C_5  and  O_6 
REMARK    4  A    between atoms: C_9  and  C_10 
REMARK    5  A    between atoms: N_11  and  C_12 
REMARK    6  A    between atoms: C_12  and  C_13 
REMARK    7  A    between atoms: C_13  and  C_14 
REMARK    8  A    between atoms: C_14  and  N_15 
REMARK    9  A    between atoms: C_21  and  O_22 
REMARK   10  A    between atoms: C_23  and  C_24 
REMARK   11  A    between atoms: C_24  and  C_25 
REMARK   12  A    between atoms: C_29  and  O_30 
REMARK   13  A    between atoms: O_30  and  C_31 
REMARK   14  A    between atoms: C_31  and  C_32 
ROOT
HETATM    1  C   UNL     1      20.924  49.012  47.806  1.00  0.00     0.161 A 
HETATM    2  N   UNL     1      19.771  49.500  48.560  1.00  0.00    -0.333 N 
HETATM    3  C   UNL     1      20.159  50.258  49.640  1.00  0.00     0.278 A 
HETATM    4  O   UNL     1      19.430  50.864  50.410  1.00  0.00    -0.265 OA
HETATM    5  C   UNL     1      21.629  50.204  49.722  1.00  0.00     0.146 A 
HETATM    6  C   UNL     1      22.059  49.509  48.661  1.00  0.00     0.059 A 
ENDROOT
BRANCH   6   7
HETATM    7  C   UNL     1      23.454  49.226  48.263  1.00  0.00     0.193 C 
HETATM    8  O   UNL     1      23.963  49.791  47.302  1.00  0.00    -0.287 OA
BRANCH   7   9
HETATM    9  C   UNL     1      24.265  48.269  49.034  1.00  0.00     0.015 A 
HETATM   10  C   UNL     1      23.731  47.033  49.411  1.00  0.00     0.025 A 
HETATM   11  C   UNL     1      24.493  46.150  50.190  1.00  0.00    -0.028 A 
HETATM   12  C   UNL     1      23.910  44.830  50.613  1.00  0.00     0.051 C 
HETATM   13  C   UNL     1      25.781  46.533  50.610  1.00  0.00     0.074 A 
HETATM   14  C   UNL     1      26.306  47.770  50.221  1.00  0.00     0.038 A 
HETATM   15  C   UNL     1      25.543  48.646  49.446  1.00  0.00     0.018 A 
BRANCH  13  16
HETATM   16  O   UNL     1      26.448  45.624  51.386  1.00  0.00    -0.350 OA
BRANCH  16  17
HETATM   17  C   UNL     1      26.529  45.901  52.786  1.00  0.00     0.179 C 
BRANCH  17  18
HETATM   18  C   UNL     1      27.269  44.757  53.496  1.00  0.00     0.002 C 
HETATM   19  C   UNL     1      28.033  43.892  52.490  1.00  0.00     0.011 C 
HETATM   20  C   UNL     1      28.227  45.284  54.564  1.00  0.00     0.011 C 
ENDBRANCH  17  18
ENDBRANCH  16  17
ENDBRANCH  13  16
ENDBRANCH   7   9
ENDBRANCH   6   7
BRANCH   1  21
HETATM   21  C   UNL     1      20.822  47.518  47.562  1.00  0.00    -0.028 A 
HETATM   22  C   UNL     1      20.649  46.664  48.670  1.00  0.00     0.012 A 
HETATM   23  C   UNL     1      20.567  45.284  48.502  1.00  0.00     0.040 A 
HETATM   24  C   UNL     1      20.641  44.751  47.225  1.00  0.00     0.099 A 
HETATM   25  C   UNL     1      20.789  45.569  46.102  1.00  0.00     0.102 A 
HETATM   26  C   UNL     1      20.911  46.950  46.275  1.00  0.00     0.049 A 
BRANCH  24  27
HETATM   27  O   UNL     1      20.542  43.394  47.088  1.00  0.00    -0.358 OA
HETATM   28  H   UNL     1      21.296  43.026  47.588  1.00  0.00     0.218 HD
ENDBRANCH  24  27
BRANCH  25  29
HETATM   29  O   UNL     1      20.828  44.911  44.901  1.00  0.00    -0.349 OA
BRANCH  29  30
HETATM   30  C   UNL     1      19.953  45.408  43.887  1.00  0.00     0.171 C 
HETATM   31  C   UNL     1      18.594  44.763  44.088  1.00  0.00     0.034 C 
ENDBRANCH  29  30
ENDBRANCH  25  29
ENDBRANCH   1  21
BRANCH   5  32
HETATM   32  O   UNL     1      22.348  50.796  50.714  1.00  0.00    -0.355 OA
HETATM   33  H   UNL     1      22.324  50.205  51.491  1.00  0.00     0.218 HD
ENDBRANCH   5  32
BRANCH   2  34
HETATM   34  C   UNL     1      18.417  49.484  48.034  1.00  0.00     0.129 C 
BRANCH  34  35
HETATM   35  C   UNL     1      17.485  48.490  48.733  1.00  0.00     0.048 C 
BRANCH  35  36
HETATM   36  C   UNL     1      16.117  48.240  48.095  1.00  0.00     0.235 C 
BRANCH  36  37
HETATM   37  N   UNL     1      16.100  47.135  47.065  1.00  0.00    -0.079 N 
HETATM   38  H   UNL     1      15.242  46.578  47.250  1.00  0.00     0.278 HD
HETATM   39  C   UNL     1      16.088  47.596  45.640  1.00  0.00     0.269 C 
HETATM   40  C   UNL     1      17.214  46.149  47.302  1.00  0.00     0.269 C 
ENDBRANCH  36  37
ENDBRANCH  35  36
ENDBRANCH  34  35
ENDBRANCH   2  34
TORSDOF 14
ENDMDL
MODEL 10
REMARK VINA RESULT:      -6.7      8.449     12.478
REMARK  14 active torsions:
REMARK  status: ('A' for Active; 'I' for Inactive)
REMARK    1  A    between atoms: C_2  and  O_3 
REMARK    2  A    between atoms: O_3  and  C_4 
REMARK    3  A    between atoms: C_5  and  O_6 
REMARK    4  A    between atoms: C_9  and  C_10 
REMARK    5  A    between atoms: N_11  and  C_12 
REMARK    6  A    between atoms: C_12  and  C_13 
REMARK    7  A    between atoms: C_13  and  C_14 
REMARK    8  A    between atoms: C_14  and  N_15 
REMARK    9  A    between atoms: C_21  and  O_22 
REMARK   10  A    between atoms: C_23  and  C_24 
REMARK   11  A    between atoms: C_24  and  C_25 
REMARK   12  A    between atoms: C_29  and  O_30 
REMARK   13  A    between atoms: O_30  and  C_31 
REMARK   14  A    between atoms: C_31  and  C_32 
ROOT
HETATM    1  C   UNL     1      16.218  51.999  46.522  1.00  0.00     0.161 A 
HETATM    2  N   UNL     1      15.233  52.295  45.483  1.00  0.00    -0.333 N 
HETATM    3  C   UNL     1      14.292  53.196  45.923  1.00  0.00     0.278 A 
HETATM    4  O   UNL     1      13.392  53.696  45.266  1.00  0.00    -0.265 OA
HETATM    5  C   UNL     1      14.548  53.453  47.352  1.00  0.00     0.146 A 
HETATM    6  C   UNL     1      15.660  52.783  47.680  1.00  0.00     0.059 A 
ENDROOT
BRANCH   6   7
HETATM    7  C   UNL     1      16.360  52.764  48.982  1.00  0.00     0.193 C 
HETATM    8  O   UNL     1      15.886  53.329  49.961  1.00  0.00    -0.287 OA
BRANCH   7   9
HETATM    9  C   UNL     1      17.635  52.043  49.127  1.00  0.00     0.015 A 
HETATM   10  C   UNL     1      17.706  50.881  49.901  1.00  0.00     0.025 A 
HETATM   11  C   UNL     1      18.936  50.231  50.078  1.00  0.00    -0.028 A 
HETATM   12  C   UNL     1      19.015  48.994  50.928  1.00  0.00     0.051 C 
HETATM   13  C   UNL     1      20.096  50.776  49.493  1.00  0.00     0.074 A 
HETATM   14  C   UNL     1      20.010  51.935  48.715  1.00  0.00     0.038 A 
HETATM   15  C   UNL     1      18.783  52.579  48.545  1.00  0.00     0.018 A 
BRANCH  13  16
HETATM   16  O   UNL     1      21.257  50.093  49.733  1.00  0.00    -0.350 OA
BRANCH  16  17
HETATM   17  C   UNL     1      22.461  50.659  49.210  1.00  0.00     0.179 C 
BRANCH  17  18
HETATM   18  C   UNL     1      23.235  49.588  48.424  1.00  0.00     0.002 C 
HETATM   19  C   UNL     1      24.618  50.101  48.016  1.00  0.00     0.011 C 
HETATM   20  C   UNL     1      23.374  48.293  49.225  1.00  0.00     0.011 C 
ENDBRANCH  17  18
ENDBRANCH  16  17
ENDBRANCH  13  16
ENDBRANCH   7   9
ENDBRANCH   6   7
BRANCH   1  21
HETATM   21  C   UNL     1      16.392  50.502  46.698  1.00  0.00    -0.028 A 
HETATM   22  C   UNL     1      15.319  49.756  47.225  1.00  0.00     0.012 A 
HETATM   23  C   UNL     1      15.433  48.382  47.423  1.00  0.00     0.040 A 
HETATM   24  C   UNL     1      16.613  47.743  47.078  1.00  0.00     0.099 A 
HETATM   25  C   UNL     1      17.689  48.449  46.531  1.00  0.00     0.102 A 
HETATM   26  C   UNL     1      17.588  49.833  46.370  1.00  0.00     0.049 A 
BRANCH  24  27
HETATM   27  O   UNL     1      16.692  46.392  47.267  1.00  0.00    -0.358 OA
HETATM   28  H   UNL     1      17.495  46.251  47.806  1.00  0.00     0.218 HD
ENDBRANCH  24  27
BRANCH  25  29
HETATM   29  O   UNL     1      18.785  47.688  46.218  1.00  0.00    -0.349 OA
BRANCH  29  30
HETATM   30  C   UNL     1      19.978  47.984  46.946  1.00  0.00     0.171 C 
HETATM   31  C   UNL     1      20.126  46.941  48.040  1.00  0.00     0.034 C 
ENDBRANCH  29  30
ENDBRANCH  25  29
ENDBRANCH   1  21
BRANCH   5  32
HETATM   32  O   UNL     1      13.764  54.254  48.122  1.00  0.00    -0.355 OA
HETATM   33  H   UNL     1      13.190  53.677  48.662  1.00  0.00     0.218 HD
ENDBRANCH   5  32
BRANCH   2  34
HETATM   34  C   UNL     1      15.434  51.961  44.085  1.00  0.00     0.129 C 
BRANCH  34  35
HETATM   35  C   UNL     1      16.715  52.542  43.479  1.00  0.00     0.048 C 
BRANCH  35  36
HETATM   36  C   UNL     1      17.840  51.563  43.136  1.00  0.00     0.235 C 
BRANCH  36  37
HETATM   37  N   UNL     1      18.169  51.480  41.665  1.00  0.00    -0.079 N 
HETATM   38  H   UNL     1      17.571  50.723  41.275  1.00  0.00     0.278 HD
HETATM   39  C   UNL     1      17.932  52.739  40.888  1.00  0.00     0.269 C 
HETATM   40  C   UNL     1      19.569  50.967  41.443  1.00  0.00     0.269 C 
ENDBRANCH  36  37
ENDBRANCH  35  36
ENDBRANCH  34  35
ENDBRANCH   2  34
TORSDOF 14
ENDMDL
