MODEL 1
REMARK VINA RESULT:      -8.4      0.000      0.000
REMARK  5 active torsions:
REMARK  status: ('A' for Active; 'I' for Inactive)
REMARK    1  A    between atoms: C_2  and  N_3 
REMARK       I    between atoms: N_3  and  C_4 
REMARK    2  A    between atoms: C_4  and  C_5 
REMARK    3  A    between atoms: C_5  and  N_6 
REMARK    4  A    between atoms: N_6  and  C_7 
REMARK    5  A    between atoms: C_11  and  C_12 
ROOT
HETATM    1  C   UNL     1      28.837  43.424  53.122  1.00  0.00     0.022 A 
HETATM    2  C   UNL     1      29.364  43.896  54.362  1.00  0.00     0.012 A 
HETATM    3  C   UNL     1      28.739  45.001  54.995  1.00  0.00     0.044 A 
HETATM    4  C   UNL     1      29.197  45.491  56.231  1.00  0.00     0.046 A 
HETATM    5  C   UNL     1      30.299  44.906  56.872  1.00  0.00     0.050 A 
HETATM    6  C   UNL     1      30.937  43.828  56.252  1.00  0.00     0.017 A 
HETATM    7  C   UNL     1      30.482  43.337  55.023  1.00  0.00     0.016 A 
HETATM    8  N   UNL     1      27.694  45.599  54.395  1.00  0.00    -0.365 N 
HETATM    9  H   UNL     1      27.255  46.396  54.856  1.00  0.00     0.165 HD
HETATM   10  C   UNL     1      27.215  45.212  53.209  1.00  0.00     0.090 A 
HETATM   11  C   UNL     1      27.779  44.134  52.546  1.00  0.00     0.041 A 
ENDROOT
BRANCH   1  12
HETATM   12  N   UNL     1      29.468  42.370  52.440  1.00  0.00    -0.283 NA
HETATM   13  H   UNL     1      30.482  42.377  52.565  1.00  0.00     0.128 HD
BRANCH  12  14
HETATM   14  C   UNL     1      28.974  40.980  52.597  1.00  0.00     0.195 C 
BRANCH  14  15
HETATM   15  C   UNL     1      28.633  40.367  51.234  1.00  0.00     0.230 C 
HETATM   16  N   UNL     1      29.119  39.087  51.065  1.00  0.00    -0.360 N 
HETATM   17  H   UNL     1      29.578  38.646  51.855  1.00  0.00     0.162 HD
HETATM   18  O   UNL     1      28.021  40.988  50.373  1.00  0.00    -0.272 OA
BRANCH  16  19
HETATM   19  C   UNL     1      28.928  38.339  49.840  1.00  0.00     0.118 C 
HETATM   20  C   UNL     1      30.237  38.135  49.100  1.00  0.00     0.026 C 
ENDBRANCH  16  19
ENDBRANCH  14  15
ENDBRANCH  12  14
ENDBRANCH   1  12
BRANCH   5  21
HETATM   21  C   UNL     1      30.798  45.421  58.207  1.00  0.00     0.417 C 
HETATM   22  F   UNL     1      31.975  44.847  58.574  1.00  0.00    -0.166 F 
HETATM   23  F   UNL     1      31.014  46.760  58.192  1.00  0.00    -0.166 F 
HETATM   24  F   UNL     1      29.923  45.175  59.215  1.00  0.00    -0.166 F 
ENDBRANCH   5  21
TORSDOF 5
ENDMDL
MODEL 2
REMARK VINA RESULT:      -8.1      3.553      5.240
REMARK  5 active torsions:
REMARK  status: ('A' for Active; 'I' for Inactive)
REMARK    1  A    between atoms: C_2  and  N_3 
REMARK       I    between atoms: N_3  and  C_4 
REMARK    2  A    between atoms: C_4  and  C_5 
REMARK    3  A    between atoms: C_5  and  N_6 
REMARK    4  A    between atoms: N_6  and  C_7 
REMARK    5  A    between atoms: C_11  and  C_12 
ROOT
HETATM    1  C   UNL     1      26.559  45.892  53.262  1.00  0.00     0.022 A 
HETATM    2  C   UNL     1      27.652  45.395  54.035  1.00  0.00     0.012 A 
HETATM    3  C   UNL     1      28.039  46.098  55.204  1.00  0.00     0.044 A 
HETATM    4  C   UNL     1      29.089  45.640  56.019  1.00  0.00     0.046 A 
HETATM    5  C   UNL     1      29.797  44.475  55.691  1.00  0.00     0.050 A 
HETATM    6  C   UNL     1      29.440  43.781  54.531  1.00  0.00     0.017 A 
HETATM    7  C   UNL     1      28.393  44.233  53.719  1.00  0.00     0.016 A 
HETATM    8  N   UNL     1      27.394  47.231  55.535  1.00  0.00    -0.365 N 
HETATM    9  H   UNL     1      27.684  47.732  56.376  1.00  0.00     0.165 HD
HETATM   10  C   UNL     1      26.404  47.748  54.800  1.00  0.00     0.090 A 
HETATM   11  C   UNL     1      25.977  47.103  53.651  1.00  0.00     0.041 A 
ENDROOT
BRANCH   1  12
HETATM   12  N   UNL     1      26.189  45.253  52.066  1.00  0.00    -0.283 NA
HETATM   13  H   UNL     1      25.666  44.392  52.231  1.00  0.00     0.128 HD
BRANCH  12  14
HETATM   14  C   UNL     1      25.521  46.023  50.988  1.00  0.00     0.195 C 
BRANCH  14  15
HETATM   15  C   UNL     1      26.552  46.583  50.001  1.00  0.00     0.230 C 
HETATM   16  N   UNL     1      26.596  47.961  49.966  1.00  0.00    -0.360 N 
HETATM   17  H   UNL     1      26.018  48.470  50.627  1.00  0.00     0.162 HD
HETATM   18  O   UNL     1      27.235  45.856  49.288  1.00  0.00    -0.272 OA
BRANCH  16  19
HETATM   19  C   UNL     1      27.483  48.689  49.084  1.00  0.00     0.118 C 
HETATM   20  C   UNL     1      26.790  49.881  48.453  1.00  0.00     0.026 C 
ENDBRANCH  16  19
ENDBRANCH  14  15
ENDBRANCH  12  14
ENDBRANCH   1  12
BRANCH   5  21
HETATM   21  C   UNL     1      30.927  43.967  56.564  1.00  0.00     0.417 C 
HETATM   22  F   UNL     1      30.906  44.518  57.808  1.00  0.00    -0.166 F 
HETATM   23  F   UNL     1      30.874  42.623  56.741  1.00  0.00    -0.166 F 
HETATM   24  F   UNL     1      32.148  44.248  56.042  1.00  0.00    -0.166 F 
ENDBRANCH   5  21
TORSDOF 5
ENDMDL
MODEL 3
REMARK VINA RESULT:      -7.8      2.254      3.129
REMARK  5 active torsions:
REMARK  status: ('A' for Active; 'I' for Inactive)
REMARK    1  A    between atoms: C_2  and  N_3 
REMARK       I    between atoms: N_3  and  C_4 
REMARK    2  A    between atoms: C_4  and  C_5 
REMARK    3  A    between atoms: C_5  and  N_6 
REMARK    4  A    between atoms: N_6  and  C_7 
REMARK    5  A    between atoms: C_11  and  C_12 
ROOT
HETATM    1  C   UNL     1      27.157  45.541  53.666  1.00  0.00     0.022 A 
HETATM    2  C   UNL     1      28.234  45.049  54.464  1.00  0.00     0.012 A 
HETATM    3  C   UNL     1      28.674  45.820  55.570  1.00  0.00     0.044 A 
HETATM    4  C   UNL     1      29.710  45.372  56.408  1.00  0.00     0.046 A 
HETATM    5  C   UNL     1      30.352  44.149  56.165  1.00  0.00     0.050 A 
HETATM    6  C   UNL     1      29.942  43.386  55.067  1.00  0.00     0.017 A 
HETATM    7  C   UNL     1      28.909  43.829  54.233  1.00  0.00     0.016 A 
HETATM    8  N   UNL     1      28.094  47.009  55.817  1.00  0.00    -0.365 N 
HETATM    9  H   UNL     1      28.422  47.558  56.612  1.00  0.00     0.165 HD
HETATM   10  C   UNL     1      27.122  47.518  55.054  1.00  0.00     0.090 A 
HETATM   11  C   UNL     1      26.645  46.808  53.964  1.00  0.00     0.041 A 
ENDROOT
BRANCH   1  12
HETATM   12  N   UNL     1      26.736  44.832  52.528  1.00  0.00    -0.283 NA
HETATM   13  H   UNL     1      27.275  43.977  52.382  1.00  0.00     0.128 HD
BRANCH  12  14
HETATM   14  C   UNL     1      25.297  44.534  52.326  1.00  0.00     0.195 C 
BRANCH  14  15
HETATM   15  C   UNL     1      25.115  43.192  51.608  1.00  0.00     0.230 C 
HETATM   16  N   UNL     1      26.278  42.460  51.498  1.00  0.00    -0.360 N 
HETATM   17  H   UNL     1      27.111  42.822  51.951  1.00  0.00     0.162 HD
HETATM   18  O   UNL     1      24.036  42.841  51.145  1.00  0.00    -0.272 OA
BRANCH  16  19
HETATM   19  C   UNL     1      26.328  41.175  50.832  1.00  0.00     0.118 C 
HETATM   20  C   UNL     1      27.731  40.598  50.836  1.00  0.00     0.026 C 
ENDBRANCH  16  19
ENDBRANCH  14  15
ENDBRANCH  12  14
ENDBRANCH   1  12
BRANCH   5  21
HETATM   21  C   UNL     1      31.466  43.651  57.064  1.00  0.00     0.417 C 
HETATM   22  F   UNL     1      31.243  42.386  57.512  1.00  0.00    -0.166 F 
HETATM   23  F   UNL     1      32.664  43.626  56.429  1.00  0.00    -0.166 F 
HETATM   24  F   UNL     1      31.622  44.426  58.168  1.00  0.00    -0.166 F 
ENDBRANCH   5  21
TORSDOF 5
ENDMDL
MODEL 4
REMARK VINA RESULT:      -7.7      1.387      1.946
REMARK  5 active torsions:
REMARK  status: ('A' for Active; 'I' for Inactive)
REMARK    1  A    between atoms: C_2  and  N_3 
REMARK       I    between atoms: N_3  and  C_4 
REMARK    2  A    between atoms: C_4  and  C_5 
REMARK    3  A    between atoms: C_5  and  N_6 
REMARK    4  A    between atoms: N_6  and  C_7 
REMARK    5  A    between atoms: C_11  and  C_12 
ROOT
HETATM    1  C   UNL     1      27.661  43.988  52.293  1.00  0.00     0.022 A 
HETATM    2  C   UNL     1      28.592  43.898  53.372  1.00  0.00     0.012 A 
HETATM    3  C   UNL     1      28.488  44.821  54.444  1.00  0.00     0.044 A 
HETATM    4  C   UNL     1      29.358  44.762  55.547  1.00  0.00     0.046 A 
HETATM    5  C   UNL     1      30.368  43.791  55.614  1.00  0.00     0.050 A 
HETATM    6  C   UNL     1      30.495  42.886  54.556  1.00  0.00     0.017 A 
HETATM    7  C   UNL     1      29.629  42.941  53.458  1.00  0.00     0.016 A 
HETATM    8  N   UNL     1      27.544  45.779  54.400  1.00  0.00    -0.365 N 
HETATM    9  H   UNL     1      27.482  46.441  55.174  1.00  0.00     0.165 HD
HETATM   10  C   UNL     1      26.696  45.920  53.377  1.00  0.00     0.090 A 
HETATM   11  C   UNL     1      26.744  45.044  52.304  1.00  0.00     0.041 A 
ENDROOT
BRANCH   1  12
HETATM   12  N   UNL     1      27.773  43.128  51.187  1.00  0.00    -0.283 NA
HETATM   13  H   UNL     1      28.739  43.026  50.870  1.00  0.00     0.128 HD
BRANCH  12  14
HETATM   14  C   UNL     1      27.133  41.790  51.218  1.00  0.00     0.195 C 
BRANCH  14  15
HETATM   15  C   UNL     1      27.824  40.834  50.239  1.00  0.00     0.230 C 
HETATM   16  N   UNL     1      28.296  39.681  50.830  1.00  0.00    -0.360 N 
HETATM   17  H   UNL     1      28.088  39.532  51.812  1.00  0.00     0.162 HD
HETATM   18  O   UNL     1      27.970  41.107  49.053  1.00  0.00    -0.272 OA
BRANCH  16  19
HETATM   19  C   UNL     1      29.002  38.659  50.086  1.00  0.00     0.118 C 
HETATM   20  C   UNL     1      29.982  37.905  50.964  1.00  0.00     0.026 C 
ENDBRANCH  16  19
ENDBRANCH  14  15
ENDBRANCH  12  14
ENDBRANCH   1  12
BRANCH   5  21
HETATM   21  C   UNL     1      31.309  43.713  56.800  1.00  0.00     0.417 C 
HETATM   22  F   UNL     1      31.119  44.735  57.677  1.00  0.00    -0.166 F 
HETATM   23  F   UNL     1      31.148  42.568  57.507  1.00  0.00    -0.166 F 
HETATM   24  F   UNL     1      32.613  43.767  56.427  1.00  0.00    -0.166 F 
ENDBRANCH   5  21
TORSDOF 5
ENDMDL
MODEL 5
REMARK VINA RESULT:      -7.7      2.909      3.613
REMARK  5 active torsions:
REMARK  status: ('A' for Active; 'I' for Inactive)
REMARK    1  A    between atoms: C_2  and  N_3 
REMARK       I    between atoms: N_3  and  C_4 
REMARK    2  A    between atoms: C_4  and  C_5 
REMARK    3  A    between atoms: C_5  and  N_6 
REMARK    4  A    between atoms: N_6  and  C_7 
REMARK    5  A    between atoms: C_11  and  C_12 
ROOT
HETATM    1  C   UNL     1      27.332  45.024  53.335  1.00  0.00     0.022 A 
HETATM    2  C   UNL     1      28.380  44.658  54.232  1.00  0.00     0.012 A 
HETATM    3  C   UNL     1      28.729  45.549  55.279  1.00  0.00     0.044 A 
HETATM    4  C   UNL     1      29.733  45.228  56.209  1.00  0.00     0.046 A 
HETATM    5  C   UNL     1      30.433  44.016  56.121  1.00  0.00     0.050 A 
HETATM    6  C   UNL     1      30.114  43.135  55.084  1.00  0.00     0.017 A 
HETATM    7  C   UNL     1      29.113  43.450  54.158  1.00  0.00     0.016 A 
HETATM    8  N   UNL     1      28.092  46.730  55.377  1.00  0.00    -0.365 N 
HETATM    9  H   UNL     1      28.354  47.366  56.131  1.00  0.00     0.165 HD
HETATM   10  C   UNL     1      27.145  47.122  54.519  1.00  0.00     0.090 A 
HETATM   11  C   UNL     1      26.757  46.291  53.481  1.00  0.00     0.041 A 
ENDROOT
BRANCH   1  12
HETATM   12  N   UNL     1      27.003  44.191  52.252  1.00  0.00    -0.283 NA
HETATM   13  H   UNL     1      26.000  44.008  52.193  1.00  0.00     0.128 HD
BRANCH  12  14
HETATM   14  C   UNL     1      27.516  44.499  50.895  1.00  0.00     0.195 C 
BRANCH  14  15
HETATM   15  C   UNL     1      26.649  43.831  49.821  1.00  0.00     0.230 C 
HETATM   16  N   UNL     1      25.369  44.338  49.748  1.00  0.00    -0.360 N 
HETATM   17  H   UNL     1      25.139  45.133  50.335  1.00  0.00     0.162 HD
HETATM   18  O   UNL     1      27.062  42.906  49.131  1.00  0.00    -0.272 OA
BRANCH  16  19
HETATM   19  C   UNL     1      24.383  43.829  48.817  1.00  0.00     0.118 C 
HETATM   20  C   UNL     1      23.413  42.881  49.496  1.00  0.00     0.026 C 
ENDBRANCH  16  19
ENDBRANCH  14  15
ENDBRANCH  12  14
ENDBRANCH   1  12
BRANCH   5  21
HETATM   21  C   UNL     1      31.513  43.655  57.121  1.00  0.00     0.417 C 
HETATM   22  F   UNL     1      31.401  42.374  57.563  1.00  0.00    -0.166 F 
HETATM   23  F   UNL     1      32.758  43.769  56.594  1.00  0.00    -0.166 F 
HETATM   24  F   UNL     1      31.479  44.445  58.224  1.00  0.00    -0.166 F 
ENDBRANCH   5  21
TORSDOF 5
ENDMDL
MODEL 6
REMARK VINA RESULT:      -7.6      3.238      5.556
REMARK  5 active torsions:
REMARK  status: ('A' for Active; 'I' for Inactive)
REMARK    1  A    between atoms: C_2  and  N_3 
REMARK       I    between atoms: N_3  and  C_4 
REMARK    2  A    between atoms: C_4  and  C_5 
REMARK    3  A    between atoms: C_5  and  N_6 
REMARK    4  A    between atoms: N_6  and  C_7 
REMARK    5  A    between atoms: C_11  and  C_12 
ROOT
HETATM    1  C   UNL     1      26.259  44.028  52.162  1.00  0.00     0.022 A 
HETATM    2  C   UNL     1      27.303  44.067  53.136  1.00  0.00     0.012 A 
HETATM    3  C   UNL     1      28.258  43.018  53.157  1.00  0.00     0.044 A 
HETATM    4  C   UNL     1      29.323  43.018  54.074  1.00  0.00     0.046 A 
HETATM    5  C   UNL     1      29.468  44.054  55.008  1.00  0.00     0.050 A 
HETATM    6  C   UNL     1      28.524  45.085  55.012  1.00  0.00     0.017 A 
HETATM    7  C   UNL     1      27.463  45.090  54.099  1.00  0.00     0.016 A 
HETATM    8  N   UNL     1      28.134  41.998  52.289  1.00  0.00    -0.365 N 
HETATM    9  H   UNL     1      28.823  41.245  52.316  1.00  0.00     0.165 HD
HETATM   10  C   UNL     1      27.136  41.909  51.404  1.00  0.00     0.090 A 
HETATM   11  C   UNL     1      26.178  42.907  51.331  1.00  0.00     0.041 A 
ENDROOT
BRANCH   1  12
HETATM   12  N   UNL     1      25.263  45.020  52.153  1.00  0.00    -0.283 NA
HETATM   13  H   UNL     1      25.336  45.652  52.952  1.00  0.00     0.128 HD
BRANCH  12  14
HETATM   14  C   UNL     1      25.021  45.819  50.927  1.00  0.00     0.195 C 
BRANCH  14  15
HETATM   15  C   UNL     1      25.906  47.072  50.911  1.00  0.00     0.230 C 
HETATM   16  N   UNL     1      26.287  47.465  49.645  1.00  0.00    -0.360 N 
HETATM   17  H   UNL     1      25.903  46.958  48.856  1.00  0.00     0.162 HD
HETATM   18  O   UNL     1      26.264  47.631  51.941  1.00  0.00    -0.272 OA
BRANCH  16  19
HETATM   19  C   UNL     1      27.144  48.609  49.413  1.00  0.00     0.118 C 
HETATM   20  C   UNL     1      26.487  49.620  48.491  1.00  0.00     0.026 C 
ENDBRANCH  16  19
ENDBRANCH  14  15
ENDBRANCH  12  14
ENDBRANCH   1  12
BRANCH   5  21
HETATM   21  C   UNL     1      30.616  44.068  55.997  1.00  0.00     0.417 C 
HETATM   22  F   UNL     1      30.292  44.707  57.154  1.00  0.00    -0.166 F 
HETATM   23  F   UNL     1      31.007  42.818  56.348  1.00  0.00    -0.166 F 
HETATM   24  F   UNL     1      31.712  44.700  55.506  1.00  0.00    -0.166 F 
ENDBRANCH   5  21
TORSDOF 5
ENDMDL
MODEL 7
REMARK VINA RESULT:      -7.6      2.969      4.054
REMARK  5 active torsions:
REMARK  status: ('A' for Active; 'I' for Inactive)
REMARK    1  A    between atoms: C_2  and  N_3 
REMARK       I    between atoms: N_3  and  C_4 
REMARK    2  A    between atoms: C_4  and  C_5 
REMARK    3  A    between atoms: C_5  and  N_6 
REMARK    4  A    between atoms: N_6  and  C_7 
REMARK    5  A    between atoms: C_11  and  C_12 
ROOT
HETATM    1  C   UNL     1      26.100  46.167  53.394  1.00  0.00     0.022 A 
HETATM    2  C   UNL     1      27.250  45.467  53.870  1.00  0.00     0.012 A 
HETATM    3  C   UNL     1      27.992  46.021  54.944  1.00  0.00     0.044 A 
HETATM    4  C   UNL     1      29.116  45.362  55.473  1.00  0.00     0.046 A 
HETATM    5  C   UNL     1      29.546  44.137  54.942  1.00  0.00     0.050 A 
HETATM    6  C   UNL     1      28.837  43.588  53.870  1.00  0.00     0.017 A 
HETATM    7  C   UNL     1      27.716  44.240  53.343  1.00  0.00     0.016 A 
HETATM    8  N   UNL     1      27.618  47.205  55.461  1.00  0.00    -0.365 N 
HETATM    9  H   UNL     1      28.162  47.597  56.231  1.00  0.00     0.165 HD
HETATM   10  C   UNL     1      26.580  47.908  54.999  1.00  0.00     0.090 A 
HETATM   11  C   UNL     1      25.812  47.415  53.956  1.00  0.00     0.041 A 
ENDROOT
BRANCH   1  12
HETATM   12  N   UNL     1      25.378  45.677  52.292  1.00  0.00    -0.283 NA
HETATM   13  H   UNL     1      24.370  45.677  52.456  1.00  0.00     0.128 HD
BRANCH  12  14
HETATM   14  C   UNL     1      25.644  46.208  50.933  1.00  0.00     0.195 C 
BRANCH  14  15
HETATM   15  C   UNL     1      26.455  45.204  50.105  1.00  0.00     0.230 C 
HETATM   16  N   UNL     1      25.919  43.933  50.097  1.00  0.00    -0.360 N 
HETATM   17  H   UNL     1      25.027  43.791  50.558  1.00  0.00     0.162 HD
HETATM   18  O   UNL     1      27.501  45.512  49.546  1.00  0.00    -0.272 OA
BRANCH  16  19
HETATM   19  C   UNL     1      26.544  42.831  49.396  1.00  0.00     0.118 C 
HETATM   20  C   UNL     1      27.341  41.949  50.339  1.00  0.00     0.026 C 
ENDBRANCH  16  19
ENDBRANCH  14  15
ENDBRANCH  12  14
ENDBRANCH   1  12
BRANCH   5  21
HETATM   21  C   UNL     1      30.753  43.414  55.507  1.00  0.00     0.417 C 
HETATM   22  F   UNL     1      31.366  42.631  54.579  1.00  0.00    -0.166 F 
HETATM   23  F   UNL     1      31.697  44.272  55.966  1.00  0.00    -0.166 F 
HETATM   24  F   UNL     1      30.426  42.597  56.540  1.00  0.00    -0.166 F 
ENDBRANCH   5  21
TORSDOF 5
ENDMDL
MODEL 8
REMARK VINA RESULT:      -7.4      1.829      2.268
REMARK  5 active torsions:
REMARK  status: ('A' for Active; 'I' for Inactive)
REMARK    1  A    between atoms: C_2  and  N_3 
REMARK       I    between atoms: N_3  and  C_4 
REMARK    2  A    between atoms: C_4  and  C_5 
REMARK    3  A    between atoms: C_5  and  N_6 
REMARK    4  A    between atoms: N_6  and  C_7 
REMARK    5  A    between atoms: C_11  and  C_12 
ROOT
HETATM    1  C   UNL     1      28.016  42.093  51.897  1.00  0.00     0.022 A 
HETATM    2  C   UNL     1      28.625  42.811  52.970  1.00  0.00     0.012 A 
HETATM    3  C   UNL     1      27.931  43.907  53.543  1.00  0.00     0.044 A 
HETATM    4  C   UNL     1      28.469  44.631  54.620  1.00  0.00     0.046 A 
HETATM    5  C   UNL     1      29.722  44.299  55.155  1.00  0.00     0.050 A 
HETATM    6  C   UNL     1      30.428  43.233  54.589  1.00  0.00     0.017 A 
HETATM    7  C   UNL     1      29.893  42.508  53.518  1.00  0.00     0.016 A 
HETATM    8  N   UNL     1      26.736  44.265  53.037  1.00  0.00    -0.365 N 
HETATM    9  H   UNL     1      26.247  45.059  53.454  1.00  0.00     0.165 HD
HETATM   10  C   UNL     1      26.168  43.646  51.999  1.00  0.00     0.090 A 
HETATM   11  C   UNL     1      26.795  42.564  51.402  1.00  0.00     0.041 A 
ENDROOT
BRANCH   1  12
HETATM   12  N   UNL     1      28.703  41.041  51.267  1.00  0.00    -0.283 NA
HETATM   13  H   UNL     1      28.834  40.238  51.885  1.00  0.00     0.128 HD
BRANCH  12  14
HETATM   14  C   UNL     1      28.264  40.558  49.935  1.00  0.00     0.195 C 
BRANCH  14  15
HETATM   15  C   UNL     1      28.414  39.035  49.833  1.00  0.00     0.230 C 
HETATM   16  N   UNL     1      27.213  38.358  49.836  1.00  0.00    -0.360 N 
HETATM   17  H   UNL     1      26.360  38.907  49.829  1.00  0.00     0.162 HD
HETATM   18  O   UNL     1      29.511  38.489  49.795  1.00  0.00    -0.272 OA
BRANCH  16  19
HETATM   19  C   UNL     1      27.135  36.914  49.772  1.00  0.00     0.118 C 
HETATM   20  C   UNL     1      26.652  36.440  48.414  1.00  0.00     0.026 C 
ENDBRANCH  16  19
ENDBRANCH  14  15
ENDBRANCH  12  14
ENDBRANCH   1  12
BRANCH   5  21
HETATM   21  C   UNL     1      30.311  45.068  56.321  1.00  0.00     0.417 C 
HETATM   22  F   UNL     1      31.278  44.364  56.968  1.00  0.00    -0.166 F 
HETATM   23  F   UNL     1      30.884  46.233  55.929  1.00  0.00    -0.166 F 
HETATM   24  F   UNL     1      29.378  45.383  57.254  1.00  0.00    -0.166 F 
ENDBRANCH   5  21
TORSDOF 5
ENDMDL
MODEL 9
REMARK VINA RESULT:      -7.3      4.646      7.131
REMARK  5 active torsions:
REMARK  status: ('A' for Active; 'I' for Inactive)
REMARK    1  A    between atoms: C_2  and  N_3 
REMARK       I    between atoms: N_3  and  C_4 
REMARK    2  A    between atoms: C_4  and  C_5 
REMARK    3  A    between atoms: C_5  and  N_6 
REMARK    4  A    between atoms: N_6  and  C_7 
REMARK    5  A    between atoms: C_11  and  C_12 
ROOT
HETATM    1  C   UNL     1      25.012  46.092  51.680  1.00  0.00     0.022 A 
HETATM    2  C   UNL     1      25.970  46.029  52.737  1.00  0.00     0.012 A 
HETATM    3  C   UNL     1      26.442  44.760  53.159  1.00  0.00     0.044 A 
HETATM    4  C   UNL     1      27.405  44.639  54.175  1.00  0.00     0.046 A 
HETATM    5  C   UNL     1      27.923  45.775  54.814  1.00  0.00     0.050 A 
HETATM    6  C   UNL     1      27.454  47.033  54.422  1.00  0.00     0.017 A 
HETATM    7  C   UNL     1      26.496  47.157  53.409  1.00  0.00     0.016 A 
HETATM    8  N   UNL     1      25.949  43.649  52.581  1.00  0.00    -0.365 N 
HETATM    9  H   UNL     1      26.291  42.741  52.897  1.00  0.00     0.165 HD
HETATM   10  C   UNL     1      25.012  43.677  51.629  1.00  0.00     0.090 A 
HETATM   11  C   UNL     1      24.518  44.887  51.170  1.00  0.00     0.041 A 
ENDROOT
BRANCH   1  12
HETATM   12  N   UNL     1      24.480  47.329  51.278  1.00  0.00    -0.283 NA
HETATM   13  H   UNL     1      24.814  48.102  51.857  1.00  0.00     0.128 HD
BRANCH  12  14
HETATM   14  C   UNL     1      24.536  47.736  49.853  1.00  0.00     0.195 C 
BRANCH  14  15
HETATM   15  C   UNL     1      23.126  47.960  49.295  1.00  0.00     0.230 C 
HETATM   16  N   UNL     1      22.571  49.169  49.662  1.00  0.00    -0.360 N 
HETATM   17  H   UNL     1      23.149  49.817  50.186  1.00  0.00     0.162 HD
HETATM   18  O   UNL     1      22.547  47.114  48.624  1.00  0.00    -0.272 OA
BRANCH  16  19
HETATM   19  C   UNL     1      21.237  49.564  49.261  1.00  0.00     0.118 C 
HETATM   20  C   UNL     1      20.880  50.941  49.789  1.00  0.00     0.026 C 
ENDBRANCH  16  19
ENDBRANCH  14  15
ENDBRANCH  12  14
ENDBRANCH   1  12
BRANCH   5  21
HETATM   21  C   UNL     1      28.967  45.659  55.907  1.00  0.00     0.417 C 
HETATM   22  F   UNL     1      29.484  44.404  55.994  1.00  0.00    -0.166 F 
HETATM   23  F   UNL     1      30.017  46.492  55.703  1.00  0.00    -0.166 F 
HETATM   24  F   UNL     1      28.464  45.951  57.133  1.00  0.00    -0.166 F 
ENDBRANCH   5  21
TORSDOF 5
ENDMDL
MODEL 10
REMARK VINA RESULT:      -7.2     13.485     14.846
REMARK  5 active torsions:
REMARK  status: ('A' for Active; 'I' for Inactive)
REMARK    1  A    between atoms: C_2  and  N_3 
REMARK       I    between atoms: N_3  and  C_4 
REMARK    2  A    between atoms: C_4  and  C_5 
REMARK    3  A    between atoms: C_5  and  N_6 
REMARK    4  A    between atoms: N_6  and  C_7 
REMARK    5  A    between atoms: C_11  and  C_12 
ROOT
HETATM    1  C   UNL     1      36.656  45.298  64.151  1.00  0.00     0.022 A 
HETATM    2  C   UNL     1      37.368  44.082  63.920  1.00  0.00     0.012 A 
HETATM    3  C   UNL     1      37.007  42.926  64.659  1.00  0.00     0.044 A 
HETATM    4  C   UNL     1      37.653  41.696  64.453  1.00  0.00     0.046 A 
HETATM    5  C   UNL     1      38.689  41.576  63.516  1.00  0.00     0.050 A 
HETATM    6  C   UNL     1      39.070  42.710  62.793  1.00  0.00     0.017 A 
HETATM    7  C   UNL     1      38.426  43.937  62.994  1.00  0.00     0.016 A 
HETATM    8  N   UNL     1      36.031  43.014  65.582  1.00  0.00    -0.365 N 
HETATM    9  H   UNL     1      35.783  42.177  66.112  1.00  0.00     0.165 HD
HETATM   10  C   UNL     1      35.386  44.151  65.857  1.00  0.00     0.090 A 
HETATM   11  C   UNL     1      35.690  45.311  65.163  1.00  0.00     0.041 A 
ENDROOT
BRANCH   1  12
HETATM   12  N   UNL     1      37.028  46.476  63.480  1.00  0.00    -0.283 NA
HETATM   13  H   UNL     1      36.793  46.448  62.486  1.00  0.00     0.128 HD
BRANCH  12  14
HETATM   14  C   UNL     1      36.642  47.798  64.029  1.00  0.00     0.195 C 
BRANCH  14  15
HETATM   15  C   UNL     1      37.847  48.493  64.673  1.00  0.00     0.230 C 
HETATM   16  N   UNL     1      39.023  47.781  64.559  1.00  0.00    -0.360 N 
HETATM   17  H   UNL     1      39.009  46.926  64.013  1.00  0.00     0.162 HD
HETATM   18  O   UNL     1      37.746  49.561  65.265  1.00  0.00    -0.272 OA
BRANCH  16  19
HETATM   19  C   UNL     1      40.273  48.250  65.120  1.00  0.00     0.118 C 
HETATM   20  C   UNL     1      41.391  47.247  64.908  1.00  0.00     0.026 C 
ENDBRANCH  16  19
ENDBRANCH  14  15
ENDBRANCH  12  14
ENDBRANCH   1  12
BRANCH   5  21
HETATM   21  C   UNL     1      39.390  40.253  63.280  1.00  0.00     0.417 C 
HETATM   22  F   UNL     1      40.664  40.251  63.758  1.00  0.00    -0.166 F 
HETATM   23  F   UNL     1      38.754  39.220  63.886  1.00  0.00    -0.166 F 
HETATM   24  F   UNL     1      39.477  39.943  61.962  1.00  0.00    -0.166 F 
ENDBRANCH   5  21
TORSDOF 5
ENDMDL
