MODEL 1
REMARK VINA RESULT:      -9.4      0.000      0.000
REMARK  7 active torsions:
REMARK  status: ('A' for Active; 'I' for Inactive)
REMARK    1  A    between atoms: C_4  and  C_5 
REMARK    2  A    between atoms: C_12  and  C_13 
REMARK       I    between atoms: C_13  and  N_14 
REMARK    3  A    between atoms: N_14  and  N_15 
REMARK       I    between atoms: N_15  and  C_16 
REMARK    4  A    between atoms: C_16  and  C_17 
REMARK    5  A    between atoms: C_17  and  C_18 
REMARK    6  A    between atoms: C_18  and  C_19 
REMARK    7  A    between atoms: C_22  and  O_23 
ROOT
HETATM    1  C   UNL     1      24.819  45.506  51.569  1.00  0.00     0.272 C 
HETATM    2  N   UNL     1      24.900  46.678  50.847  1.00  0.00    -0.263 N 
HETATM    3  O   UNL     1      23.889  44.714  51.457  1.00  0.00    -0.266 OA
HETATM    4  H   UNL     1      25.685  47.327  50.875  1.00  0.00     0.190 HD
ENDROOT
BRANCH   2   5
HETATM    5  N   UNL     1      23.865  46.990  49.967  1.00  0.00    -0.267 N 
HETATM    6  C   UNL     1      23.853  48.253  49.418  1.00  0.00     0.236 C 
HETATM    7  O   UNL     1      24.789  49.042  49.553  1.00  0.00    -0.272 OA
HETATM    8  H   UNL     1      23.069  46.356  49.964  1.00  0.00     0.190 HD
BRANCH   6   9
HETATM    9  C   UNL     1      22.634  48.581  48.583  1.00  0.00     0.109 C 
BRANCH   9  10
HETATM   10  C   UNL     1      22.300  50.072  48.530  1.00  0.00     0.048 C 
BRANCH  10  11
HETATM   11  C   UNL     1      20.909  50.482  48.959  1.00  0.00    -0.058 A 
HETATM   12  C   UNL     1      20.151  49.746  49.876  1.00  0.00     0.010 A 
HETATM   13  C   UNL     1      18.878  50.183  50.258  1.00  0.00     0.037 A 
HETATM   14  C   UNL     1      18.345  51.369  49.751  1.00  0.00     0.068 A 
HETATM   15  C   UNL     1      19.099  52.118  48.852  1.00  0.00     0.037 A 
HETATM   16  C   UNL     1      20.372  51.679  48.464  1.00  0.00     0.010 A 
BRANCH  14  17
HETATM   17  O   UNL     1      17.096  51.678  50.211  1.00  0.00    -0.356 OA
HETATM   18  C   UNL     1      16.592  52.966  49.881  1.00  0.00     0.210 C 
ENDBRANCH  14  17
ENDBRANCH  10  11
ENDBRANCH   9  10
ENDBRANCH   6   9
ENDBRANCH   2   5
BRANCH   1  19
HETATM   19  C   UNL     1      25.949  45.252  52.494  1.00  0.00     0.058 A 
HETATM   20  C   UNL     1      27.013  44.424  52.139  1.00  0.00     0.047 A 
HETATM   21  C   UNL     1      27.090  43.732  50.809  1.00  0.00     0.071 C 
HETATM   22  N   UNL     1      28.061  44.197  52.978  1.00  0.00    -0.252 NA
HETATM   23  C   UNL     1      28.062  44.779  54.206  1.00  0.00     0.074 A 
HETATM   24  C   UNL     1      27.027  45.608  54.625  1.00  0.00     0.034 A 
HETATM   25  C   UNL     1      25.960  45.846  53.759  1.00  0.00     0.021 A 
BRANCH  23  26
HETATM   26  C   UNL     1      29.250  44.463  55.016  1.00  0.00     0.033 A 
HETATM   27  S   UNL     1      29.796  45.500  56.276  1.00  0.00    -0.100 SA
HETATM   28  C   UNL     1      31.100  44.472  56.671  1.00  0.00     0.050 A 
HETATM   29  C   UNL     1      31.134  43.353  55.873  1.00  0.00     0.008 A 
HETATM   30  C   UNL     1      30.067  43.346  54.928  1.00  0.00     0.021 A 
ENDBRANCH  23  26
ENDBRANCH   1  19
TORSDOF 7
ENDMDL
MODEL 2
REMARK VINA RESULT:      -8.8      1.412      1.668
REMARK  7 active torsions:
REMARK  status: ('A' for Active; 'I' for Inactive)
REMARK    1  A    between atoms: C_4  and  C_5 
REMARK    2  A    between atoms: C_12  and  C_13 
REMARK       I    between atoms: C_13  and  N_14 
REMARK    3  A    between atoms: N_14  and  N_15 
REMARK       I    between atoms: N_15  and  C_16 
REMARK    4  A    between atoms: C_16  and  C_17 
REMARK    5  A    between atoms: C_17  and  C_18 
REMARK    6  A    between atoms: C_18  and  C_19 
REMARK    7  A    between atoms: C_22  and  O_23 
ROOT
HETATM    1  C   UNL     1      24.683  45.849  51.085  1.00  0.00     0.272 C 
HETATM    2  N   UNL     1      24.596  47.186  50.761  1.00  0.00    -0.263 N 
HETATM    3  O   UNL     1      23.928  44.999  50.625  1.00  0.00    -0.266 OA
HETATM    4  H   UNL     1      25.242  47.908  51.081  1.00  0.00     0.190 HD
ENDROOT
BRANCH   2   5
HETATM    5  N   UNL     1      23.589  47.596  49.888  1.00  0.00    -0.267 N 
HETATM    6  C   UNL     1      23.794  48.757  49.176  1.00  0.00     0.236 C 
HETATM    7  O   UNL     1      24.875  49.345  49.167  1.00  0.00    -0.272 OA
HETATM    8  H   UNL     1      22.684  47.145  50.001  1.00  0.00     0.190 HD
BRANCH   6   9
HETATM    9  C   UNL     1      22.613  49.225  48.354  1.00  0.00     0.109 C 
BRANCH   9  10
HETATM   10  C   UNL     1      22.012  50.549  48.827  1.00  0.00     0.048 C 
BRANCH  10  11
HETATM   11  C   UNL     1      20.663  50.934  48.262  1.00  0.00    -0.058 A 
HETATM   12  C   UNL     1      19.934  52.036  48.722  1.00  0.00     0.010 A 
HETATM   13  C   UNL     1      18.702  52.362  48.147  1.00  0.00     0.037 A 
HETATM   14  C   UNL     1      18.182  51.613  47.091  1.00  0.00     0.068 A 
HETATM   15  C   UNL     1      18.908  50.526  46.614  1.00  0.00     0.037 A 
HETATM   16  C   UNL     1      20.141  50.193  47.191  1.00  0.00     0.010 A 
BRANCH  14  17
HETATM   17  O   UNL     1      16.973  52.045  46.623  1.00  0.00    -0.356 OA
HETATM   18  C   UNL     1      16.569  51.562  45.347  1.00  0.00     0.210 C 
ENDBRANCH  14  17
ENDBRANCH  10  11
ENDBRANCH   9  10
ENDBRANCH   6   9
ENDBRANCH   2   5
BRANCH   1  19
HETATM   19  C   UNL     1      25.768  45.496  52.030  1.00  0.00     0.058 A 
HETATM   20  C   UNL     1      26.868  44.738  51.630  1.00  0.00     0.047 A 
HETATM   21  C   UNL     1      27.030  44.226  50.228  1.00  0.00     0.071 C 
HETATM   22  N   UNL     1      27.877  44.421  52.489  1.00  0.00    -0.252 NA
HETATM   23  C   UNL     1      27.800  44.838  53.780  1.00  0.00     0.074 A 
HETATM   24  C   UNL     1      26.725  45.588  54.245  1.00  0.00     0.034 A 
HETATM   25  C   UNL     1      25.700  45.920  53.360  1.00  0.00     0.021 A 
BRANCH  23  26
HETATM   26  C   UNL     1      28.951  44.438  54.605  1.00  0.00     0.033 A 
HETATM   27  S   UNL     1      29.574  45.450  55.851  1.00  0.00    -0.100 SA
HETATM   28  C   UNL     1      30.784  44.323  56.276  1.00  0.00     0.050 A 
HETATM   29  C   UNL     1      30.728  43.190  55.499  1.00  0.00     0.008 A 
HETATM   30  C   UNL     1      29.671  43.255  54.546  1.00  0.00     0.021 A 
ENDBRANCH  23  26
ENDBRANCH   1  19
TORSDOF 7
ENDMDL
MODEL 3
REMARK VINA RESULT:      -8.7      2.372      3.147
REMARK  7 active torsions:
REMARK  status: ('A' for Active; 'I' for Inactive)
REMARK    1  A    between atoms: C_4  and  C_5 
REMARK    2  A    between atoms: C_12  and  C_13 
REMARK       I    between atoms: C_13  and  N_14 
REMARK    3  A    between atoms: N_14  and  N_15 
REMARK       I    between atoms: N_15  and  C_16 
REMARK    4  A    between atoms: C_16  and  C_17 
REMARK    5  A    between atoms: C_17  and  C_18 
REMARK    6  A    between atoms: C_18  and  C_19 
REMARK    7  A    between atoms: C_22  and  O_23 
ROOT
HETATM    1  C   UNL     1      25.077  47.786  50.064  1.00  0.00     0.272 C 
HETATM    2  N   UNL     1      23.702  47.680  50.043  1.00  0.00    -0.263 N 
HETATM    3  O   UNL     1      25.675  48.804  49.731  1.00  0.00    -0.266 OA
HETATM    4  H   UNL     1      23.174  46.870  50.365  1.00  0.00     0.190 HD
ENDROOT
BRANCH   2   5
HETATM    5  N   UNL     1      22.957  48.772  49.600  1.00  0.00    -0.267 N 
HETATM    6  C   UNL     1      22.516  48.759  48.296  1.00  0.00     0.236 C 
HETATM    7  O   UNL     1      22.621  47.768  47.573  1.00  0.00    -0.272 OA
HETATM    8  H   UNL     1      22.983  49.603  50.188  1.00  0.00     0.190 HD
BRANCH   6   9
HETATM    9  C   UNL     1      21.836  50.029  47.832  1.00  0.00     0.109 C 
BRANCH   9  10
HETATM   10  C   UNL     1      21.284  50.889  48.970  1.00  0.00     0.048 C 
BRANCH  10  11
HETATM   11  C   UNL     1      19.841  51.328  48.863  1.00  0.00    -0.058 A 
HETATM   12  C   UNL     1      19.102  51.782  49.960  1.00  0.00     0.010 A 
HETATM   13  C   UNL     1      17.777  52.200  49.801  1.00  0.00     0.037 A 
HETATM   14  C   UNL     1      17.169  52.194  48.545  1.00  0.00     0.068 A 
HETATM   15  C   UNL     1      17.902  51.762  47.443  1.00  0.00     0.037 A 
HETATM   16  C   UNL     1      19.228  51.338  47.601  1.00  0.00     0.010 A 
BRANCH  14  17
HETATM   17  O   UNL     1      15.875  52.631  48.533  1.00  0.00    -0.356 OA
HETATM   18  C   UNL     1      15.202  52.678  49.786  1.00  0.00     0.210 C 
ENDBRANCH  14  17
ENDBRANCH  10  11
ENDBRANCH   9  10
ENDBRANCH   6   9
ENDBRANCH   2   5
BRANCH   1  19
HETATM   19  C   UNL     1      25.797  46.578  50.531  1.00  0.00     0.058 A 
HETATM   20  C   UNL     1      26.059  46.361  51.884  1.00  0.00     0.047 A 
HETATM   21  C   UNL     1      25.639  47.325  52.954  1.00  0.00     0.071 C 
HETATM   22  N   UNL     1      26.709  45.247  52.322  1.00  0.00    -0.252 NA
HETATM   23  C   UNL     1      27.132  44.329  51.414  1.00  0.00     0.074 A 
HETATM   24  C   UNL     1      26.911  44.491  50.051  1.00  0.00     0.034 A 
HETATM   25  C   UNL     1      26.237  45.627  49.606  1.00  0.00     0.021 A 
BRANCH  23  26
HETATM   26  C   UNL     1      27.814  43.169  52.012  1.00  0.00     0.033 A 
HETATM   27  S   UNL     1      27.699  41.593  51.328  1.00  0.00    -0.100 SA
HETATM   28  C   UNL     1      28.704  40.909  52.527  1.00  0.00     0.050 A 
HETATM   29  C   UNL     1      29.132  41.847  53.437  1.00  0.00     0.008 A 
HETATM   30  C   UNL     1      28.626  43.144  53.135  1.00  0.00     0.021 A 
ENDBRANCH  23  26
ENDBRANCH   1  19
TORSDOF 7
ENDMDL
MODEL 4
REMARK VINA RESULT:      -8.5      1.806      2.132
REMARK  7 active torsions:
REMARK  status: ('A' for Active; 'I' for Inactive)
REMARK    1  A    between atoms: C_4  and  C_5 
REMARK    2  A    between atoms: C_12  and  C_13 
REMARK       I    between atoms: C_13  and  N_14 
REMARK    3  A    between atoms: N_14  and  N_15 
REMARK       I    between atoms: N_15  and  C_16 
REMARK    4  A    between atoms: C_16  and  C_17 
REMARK    5  A    between atoms: C_17  and  C_18 
REMARK    6  A    between atoms: C_18  and  C_19 
REMARK    7  A    between atoms: C_22  and  O_23 
ROOT
HETATM    1  C   UNL     1      24.733  45.080  51.447  1.00  0.00     0.272 C 
HETATM    2  N   UNL     1      24.777  46.221  50.674  1.00  0.00    -0.263 N 
HETATM    3  O   UNL     1      23.832  44.251  51.366  1.00  0.00    -0.266 OA
HETATM    4  H   UNL     1      25.538  46.899  50.677  1.00  0.00     0.190 HD
ENDROOT
BRANCH   2   5
HETATM    5  N   UNL     1      23.737  46.457  49.776  1.00  0.00    -0.267 N 
HETATM    6  C   UNL     1      23.463  47.765  49.444  1.00  0.00     0.236 C 
HETATM    7  O   UNL     1      24.190  48.699  49.785  1.00  0.00    -0.272 OA
HETATM    8  H   UNL     1      23.105  45.677  49.603  1.00  0.00     0.190 HD
BRANCH   6   9
HETATM    9  C   UNL     1      22.239  47.968  48.579  1.00  0.00     0.109 C 
BRANCH   9  10
HETATM   10  C   UNL     1      21.258  49.007  49.124  1.00  0.00     0.048 C 
BRANCH  10  11
HETATM   11  C   UNL     1      19.787  48.764  48.870  1.00  0.00    -0.058 A 
HETATM   12  C   UNL     1      19.159  49.099  47.666  1.00  0.00     0.010 A 
HETATM   13  C   UNL     1      17.800  48.830  47.474  1.00  0.00     0.037 A 
HETATM   14  C   UNL     1      17.046  48.205  48.467  1.00  0.00     0.068 A 
HETATM   15  C   UNL     1      17.665  47.850  49.662  1.00  0.00     0.037 A 
HETATM   16  C   UNL     1      19.025  48.123  49.859  1.00  0.00     0.010 A 
BRANCH  14  17
HETATM   17  O   UNL     1      15.734  47.999  48.146  1.00  0.00    -0.356 OA
HETATM   18  C   UNL     1      15.278  48.557  46.919  1.00  0.00     0.210 C 
ENDBRANCH  14  17
ENDBRANCH  10  11
ENDBRANCH   9  10
ENDBRANCH   6   9
ENDBRANCH   2   5
BRANCH   1  19
HETATM   19  C   UNL     1      25.865  44.908  52.387  1.00  0.00     0.058 A 
HETATM   20  C   UNL     1      27.005  44.186  52.036  1.00  0.00     0.047 A 
HETATM   21  C   UNL     1      27.166  43.533  50.694  1.00  0.00     0.071 C 
HETATM   22  N   UNL     1      28.056  44.036  52.890  1.00  0.00    -0.252 NA
HETATM   23  C   UNL     1      27.983  44.589  54.129  1.00  0.00     0.074 A 
HETATM   24  C   UNL     1      26.871  45.312  54.545  1.00  0.00     0.034 A 
HETATM   25  C   UNL     1      25.801  45.473  53.665  1.00  0.00     0.021 A 
BRANCH  23  26
HETATM   26  C   UNL     1      29.181  44.362  54.954  1.00  0.00     0.033 A 
HETATM   27  S   UNL     1      29.706  45.504  56.131  1.00  0.00    -0.100 SA
HETATM   28  C   UNL     1      31.036  44.539  56.595  1.00  0.00     0.050 A 
HETATM   29  C   UNL     1      31.094  43.365  55.882  1.00  0.00     0.008 A 
HETATM   30  C   UNL     1      30.025  43.262  54.946  1.00  0.00     0.021 A 
ENDBRANCH  23  26
ENDBRANCH   1  19
TORSDOF 7
ENDMDL
MODEL 5
REMARK VINA RESULT:      -8.3      3.637     11.505
REMARK  7 active torsions:
REMARK  status: ('A' for Active; 'I' for Inactive)
REMARK    1  A    between atoms: C_4  and  C_5 
REMARK    2  A    between atoms: C_12  and  C_13 
REMARK       I    between atoms: C_13  and  N_14 
REMARK    3  A    between atoms: N_14  and  N_15 
REMARK       I    between atoms: N_15  and  C_16 
REMARK    4  A    between atoms: C_16  and  C_17 
REMARK    5  A    between atoms: C_17  and  C_18 
REMARK    6  A    between atoms: C_18  and  C_19 
REMARK    7  A    between atoms: C_22  and  O_23 
ROOT
HETATM    1  C   UNL     1      24.191  48.373  49.497  1.00  0.00     0.272 C 
HETATM    2  N   UNL     1      24.091  47.369  50.437  1.00  0.00    -0.263 N 
HETATM    3  O   UNL     1      25.259  48.728  49.009  1.00  0.00    -0.266 OA
HETATM    4  H   UNL     1      23.217  47.012  50.819  1.00  0.00     0.190 HD
ENDROOT
BRANCH   2   5
HETATM    5  N   UNL     1      25.260  46.743  50.870  1.00  0.00    -0.267 N 
HETATM    6  C   UNL     1      25.136  45.534  51.517  1.00  0.00     0.236 C 
HETATM    7  O   UNL     1      24.067  44.927  51.583  1.00  0.00    -0.272 OA
HETATM    8  H   UNL     1      26.099  47.319  50.888  1.00  0.00     0.190 HD
BRANCH   6   9
HETATM    9  C   UNL     1      26.420  44.973  52.087  1.00  0.00     0.109 C 
BRANCH   9  10
HETATM   10  C   UNL     1      26.761  45.496  53.483  1.00  0.00     0.048 C 
BRANCH  10  11
HETATM   11  C   UNL     1      27.949  44.872  54.180  1.00  0.00    -0.058 A 
HETATM   12  C   UNL     1      28.409  43.584  53.889  1.00  0.00     0.010 A 
HETATM   13  C   UNL     1      29.528  43.063  54.546  1.00  0.00     0.037 A 
HETATM   14  C   UNL     1      30.223  43.821  55.489  1.00  0.00     0.068 A 
HETATM   15  C   UNL     1      29.784  45.112  55.773  1.00  0.00     0.037 A 
HETATM   16  C   UNL     1      28.660  45.633  55.120  1.00  0.00     0.010 A 
BRANCH  14  17
HETATM   17  O   UNL     1      31.298  43.192  56.051  1.00  0.00    -0.356 OA
HETATM   18  C   UNL     1      31.679  43.615  57.355  1.00  0.00     0.210 C 
ENDBRANCH  14  17
ENDBRANCH  10  11
ENDBRANCH   9  10
ENDBRANCH   6   9
ENDBRANCH   2   5
BRANCH   1  19
HETATM   19  C   UNL     1      22.908  48.998  49.100  1.00  0.00     0.058 A 
HETATM   20  C   UNL     1      21.978  48.321  48.312  1.00  0.00     0.047 A 
HETATM   21  C   UNL     1      22.207  46.925  47.810  1.00  0.00     0.071 C 
HETATM   22  N   UNL     1      20.790  48.884  47.954  1.00  0.00    -0.252 NA
HETATM   23  C   UNL     1      20.511  50.150  48.360  1.00  0.00     0.074 A 
HETATM   24  C   UNL     1      21.400  50.883  49.139  1.00  0.00     0.034 A 
HETATM   25  C   UNL     1      22.611  50.301  49.512  1.00  0.00     0.021 A 
BRANCH  23  26
HETATM   26  C   UNL     1      19.197  50.643  47.916  1.00  0.00     0.033 A 
HETATM   27  S   UNL     1      18.015  49.596  47.230  1.00  0.00    -0.100 SA
HETATM   28  C   UNL     1      16.890  50.864  47.025  1.00  0.00     0.050 A 
HETATM   29  C   UNL     1      17.385  52.068  47.468  1.00  0.00     0.008 A 
HETATM   30  C   UNL     1      18.706  51.938  47.985  1.00  0.00     0.021 A 
ENDBRANCH  23  26
ENDBRANCH   1  19
TORSDOF 7
ENDMDL
MODEL 6
REMARK VINA RESULT:      -8.1      3.685     11.035
REMARK  7 active torsions:
REMARK  status: ('A' for Active; 'I' for Inactive)
REMARK    1  A    between atoms: C_4  and  C_5 
REMARK    2  A    between atoms: C_12  and  C_13 
REMARK       I    between atoms: C_13  and  N_14 
REMARK    3  A    between atoms: N_14  and  N_15 
REMARK       I    between atoms: N_15  and  C_16 
REMARK    4  A    between atoms: C_16  and  C_17 
REMARK    5  A    between atoms: C_17  and  C_18 
REMARK    6  A    between atoms: C_18  and  C_19 
REMARK    7  A    between atoms: C_22  and  O_23 
ROOT
HETATM    1  C   UNL     1      24.949  46.520  49.893  1.00  0.00     0.272 C 
HETATM    2  N   UNL     1      24.759  45.941  51.129  1.00  0.00    -0.263 N 
HETATM    3  O   UNL     1      25.954  46.334  49.214  1.00  0.00    -0.266 OA
HETATM    4  H   UNL     1      23.914  46.030  51.692  1.00  0.00     0.190 HD
ENDROOT
BRANCH   2   5
HETATM    5  N   UNL     1      25.765  45.124  51.643  1.00  0.00    -0.267 N 
HETATM    6  C   UNL     1      25.562  43.762  51.611  1.00  0.00     0.236 C 
HETATM    7  O   UNL     1      24.615  43.249  51.014  1.00  0.00    -0.272 OA
HETATM    8  H   UNL     1      26.473  45.584  52.212  1.00  0.00     0.190 HD
BRANCH   6   9
HETATM    9  C   UNL     1      26.620  42.936  52.308  1.00  0.00     0.109 C 
BRANCH   9  10
HETATM   10  C   UNL     1      28.038  43.487  52.156  1.00  0.00     0.048 C 
BRANCH  10  11
HETATM   11  C   UNL     1      28.814  43.750  53.427  1.00  0.00    -0.058 A 
HETATM   12  C   UNL     1      29.956  43.025  53.783  1.00  0.00     0.010 A 
HETATM   13  C   UNL     1      30.651  43.326  54.958  1.00  0.00     0.037 A 
HETATM   14  C   UNL     1      30.236  44.366  55.790  1.00  0.00     0.068 A 
HETATM   15  C   UNL     1      29.112  45.107  55.436  1.00  0.00     0.037 A 
HETATM   16  C   UNL     1      28.411  44.803  54.261  1.00  0.00     0.010 A 
BRANCH  14  17
HETATM   17  O   UNL     1      31.008  44.553  56.903  1.00  0.00    -0.356 OA
HETATM   18  C   UNL     1      31.884  43.492  57.262  1.00  0.00     0.210 C 
ENDBRANCH  14  17
ENDBRANCH  10  11
ENDBRANCH   9  10
ENDBRANCH   6   9
ENDBRANCH   2   5
BRANCH   1  19
HETATM   19  C   UNL     1      23.843  47.387  49.423  1.00  0.00     0.058 A 
HETATM   20  C   UNL     1      22.756  46.868  48.720  1.00  0.00     0.047 A 
HETATM   21  C   UNL     1      22.629  45.409  48.389  1.00  0.00     0.071 C 
HETATM   22  N   UNL     1      21.728  47.656  48.297  1.00  0.00    -0.252 NA
HETATM   23  C   UNL     1      21.773  48.990  48.548  1.00  0.00     0.074 A 
HETATM   24  C   UNL     1      22.834  49.572  49.234  1.00  0.00     0.034 A 
HETATM   25  C   UNL     1      23.879  48.761  49.676  1.00  0.00     0.021 A 
BRANCH  23  26
HETATM   26  C   UNL     1      20.604  49.731  48.047  1.00  0.00     0.033 A 
HETATM   27  S   UNL     1      20.280  51.353  48.524  1.00  0.00    -0.100 SA
HETATM   28  C   UNL     1      18.874  51.444  47.559  1.00  0.00     0.050 A 
HETATM   29  C   UNL     1      18.642  50.274  46.876  1.00  0.00     0.008 A 
HETATM   30  C   UNL     1      19.639  49.294  47.152  1.00  0.00     0.021 A 
ENDBRANCH  23  26
ENDBRANCH   1  19
TORSDOF 7
ENDMDL
MODEL 7
REMARK VINA RESULT:      -8.1     13.520     17.199
REMARK  7 active torsions:
REMARK  status: ('A' for Active; 'I' for Inactive)
REMARK    1  A    between atoms: C_4  and  C_5 
REMARK    2  A    between atoms: C_12  and  C_13 
REMARK       I    between atoms: C_13  and  N_14 
REMARK    3  A    between atoms: N_14  and  N_15 
REMARK       I    between atoms: N_15  and  C_16 
REMARK    4  A    between atoms: C_16  and  C_17 
REMARK    5  A    between atoms: C_17  and  C_18 
REMARK    6  A    between atoms: C_18  and  C_19 
REMARK    7  A    between atoms: C_22  and  O_23 
ROOT
HETATM    1  C   UNL     1      32.442  51.669  43.773  1.00  0.00     0.272 C 
HETATM    2  N   UNL     1      33.687  51.887  43.224  1.00  0.00    -0.263 N 
HETATM    3  O   UNL     1      32.238  51.651  44.982  1.00  0.00    -0.266 OA
HETATM    4  H   UNL     1      33.880  51.963  42.226  1.00  0.00     0.190 HD
ENDROOT
BRANCH   2   5
HETATM    5  N   UNL     1      34.770  52.073  44.082  1.00  0.00    -0.267 N 
HETATM    6  C   UNL     1      35.964  52.477  43.527  1.00  0.00     0.236 C 
HETATM    7  O   UNL     1      36.062  52.822  42.349  1.00  0.00    -0.272 OA
HETATM    8  H   UNL     1      34.676  51.682  45.018  1.00  0.00     0.190 HD
BRANCH   6   9
HETATM    9  C   UNL     1      37.136  52.526  44.483  1.00  0.00     0.109 C 
BRANCH   9  10
HETATM   10  C   UNL     1      37.405  53.914  45.065  1.00  0.00     0.048 C 
BRANCH  10  11
HETATM   11  C   UNL     1      38.603  54.058  45.977  1.00  0.00    -0.058 A 
HETATM   12  C   UNL     1      39.816  54.611  45.554  1.00  0.00     0.010 A 
HETATM   13  C   UNL     1      40.885  54.743  46.445  1.00  0.00     0.037 A 
HETATM   14  C   UNL     1      40.762  54.347  47.777  1.00  0.00     0.068 A 
HETATM   15  C   UNL     1      39.553  53.812  48.212  1.00  0.00     0.037 A 
HETATM   16  C   UNL     1      38.482  53.674  47.320  1.00  0.00     0.010 A 
BRANCH  14  17
HETATM   17  O   UNL     1      41.882  54.536  48.537  1.00  0.00    -0.356 OA
HETATM   18  C   UNL     1      42.966  53.642  48.315  1.00  0.00     0.210 C 
ENDBRANCH  14  17
ENDBRANCH  10  11
ENDBRANCH   9  10
ENDBRANCH   6   9
ENDBRANCH   2   5
BRANCH   1  19
HETATM   19  C   UNL     1      31.346  51.464  42.796  1.00  0.00     0.058 A 
HETATM   20  C   UNL     1      31.031  50.197  42.306  1.00  0.00     0.047 A 
HETATM   21  C   UNL     1      31.772  48.961  42.725  1.00  0.00     0.071 C 
HETATM   22  N   UNL     1      30.016  50.000  41.419  1.00  0.00    -0.252 NA
HETATM   23  C   UNL     1      29.303  51.070  40.982  1.00  0.00     0.074 A 
HETATM   24  C   UNL     1      29.574  52.361  41.424  1.00  0.00     0.034 A 
HETATM   25  C   UNL     1      30.606  52.559  42.340  1.00  0.00     0.021 A 
BRANCH  23  26
HETATM   26  C   UNL     1      28.232  50.726  40.033  1.00  0.00     0.033 A 
HETATM   27  S   UNL     1      27.098  49.471  40.353  1.00  0.00    -0.100 SA
HETATM   28  C   UNL     1      26.275  49.725  38.879  1.00  0.00     0.050 A 
HETATM   29  C   UNL     1      26.834  50.743  38.145  1.00  0.00     0.008 A 
HETATM   30  C   UNL     1      27.953  51.322  38.812  1.00  0.00     0.021 A 
ENDBRANCH  23  26
ENDBRANCH   1  19
TORSDOF 7
ENDMDL
MODEL 8
REMARK VINA RESULT:      -8.0      4.741     10.826
REMARK  7 active torsions:
REMARK  status: ('A' for Active; 'I' for Inactive)
REMARK    1  A    between atoms: C_4  and  C_5 
REMARK    2  A    between atoms: C_12  and  C_13 
REMARK       I    between atoms: C_13  and  N_14 
REMARK    3  A    between atoms: N_14  and  N_15 
REMARK       I    between atoms: N_15  and  C_16 
REMARK    4  A    between atoms: C_16  and  C_17 
REMARK    5  A    between atoms: C_17  and  C_18 
REMARK    6  A    between atoms: C_18  and  C_19 
REMARK    7  A    between atoms: C_22  and  O_23 
ROOT
HETATM    1  C   UNL     1      26.239  44.369  50.105  1.00  0.00     0.272 C 
HETATM    2  N   UNL     1      26.086  43.510  51.172  1.00  0.00    -0.263 N 
HETATM    3  O   UNL     1      27.328  44.812  49.753  1.00  0.00    -0.266 OA
HETATM    4  H   UNL     1      25.206  43.081  51.455  1.00  0.00     0.190 HD
ENDROOT
BRANCH   2   5
HETATM    5  N   UNL     1      27.217  43.145  51.901  1.00  0.00    -0.267 N 
HETATM    6  C   UNL     1      27.484  41.801  52.037  1.00  0.00     0.236 C 
HETATM    7  O   UNL     1      26.861  40.938  51.419  1.00  0.00    -0.272 OA
HETATM    8  H   UNL     1      27.639  43.874  52.473  1.00  0.00     0.190 HD
BRANCH   6   9
HETATM    9  C   UNL     1      28.641  41.463  52.952  1.00  0.00     0.109 C 
BRANCH   9  10
HETATM   10  C   UNL     1      29.762  42.502  52.945  1.00  0.00     0.048 C 
BRANCH  10  11
HETATM   11  C   UNL     1      29.866  43.411  54.150  1.00  0.00    -0.058 A 
HETATM   12  C   UNL     1      29.029  44.515  54.341  1.00  0.00     0.010 A 
HETATM   13  C   UNL     1      29.151  45.309  55.486  1.00  0.00     0.037 A 
HETATM   14  C   UNL     1      30.092  45.007  56.471  1.00  0.00     0.068 A 
HETATM   15  C   UNL     1      30.917  43.899  56.299  1.00  0.00     0.037 A 
HETATM   16  C   UNL     1      30.801  43.106  55.151  1.00  0.00     0.010 A 
BRANCH  14  17
HETATM   17  O   UNL     1      30.101  45.863  57.537  1.00  0.00    -0.356 OA
HETATM   18  C   UNL     1      28.835  46.273  58.041  1.00  0.00     0.210 C 
ENDBRANCH  14  17
ENDBRANCH  10  11
ENDBRANCH   9  10
ENDBRANCH   6   9
ENDBRANCH   2   5
BRANCH   1  19
HETATM   19  C   UNL     1      24.989  44.721  49.392  1.00  0.00     0.058 A 
HETATM   20  C   UNL     1      24.333  45.931  49.621  1.00  0.00     0.047 A 
HETATM   21  C   UNL     1      24.837  46.951  50.599  1.00  0.00     0.071 C 
HETATM   22  N   UNL     1      23.191  46.268  48.959  1.00  0.00    -0.252 NA
HETATM   23  C   UNL     1      22.663  45.392  48.064  1.00  0.00     0.074 A 
HETATM   24  C   UNL     1      23.263  44.166  47.798  1.00  0.00     0.034 A 
HETATM   25  C   UNL     1      24.438  43.828  48.468  1.00  0.00     0.021 A 
BRANCH  23  26
HETATM   26  C   UNL     1      21.435  45.874  47.412  1.00  0.00     0.033 A 
HETATM   27  S   UNL     1      21.041  47.548  47.332  1.00  0.00    -0.100 SA
HETATM   28  C   UNL     1      19.594  47.252  46.476  1.00  0.00     0.050 A 
HETATM   29  C   UNL     1      19.398  45.911  46.242  1.00  0.00     0.008 A 
HETATM   30  C   UNL     1      20.460  45.123  46.773  1.00  0.00     0.021 A 
ENDBRANCH  23  26
ENDBRANCH   1  19
TORSDOF 7
ENDMDL
MODEL 9
REMARK VINA RESULT:      -7.9     18.799     21.952
REMARK  7 active torsions:
REMARK  status: ('A' for Active; 'I' for Inactive)
REMARK    1  A    between atoms: C_4  and  C_5 
REMARK    2  A    between atoms: C_12  and  C_13 
REMARK       I    between atoms: C_13  and  N_14 
REMARK    3  A    between atoms: N_14  and  N_15 
REMARK       I    between atoms: N_15  and  C_16 
REMARK    4  A    between atoms: C_16  and  C_17 
REMARK    5  A    between atoms: C_17  and  C_18 
REMARK    6  A    between atoms: C_18  and  C_19 
REMARK    7  A    between atoms: C_22  and  O_23 
ROOT
HETATM    1  C   UNL     1      38.654  47.165  65.465  1.00  0.00     0.272 C 
HETATM    2  N   UNL     1      38.260  46.870  64.178  1.00  0.00    -0.263 N 
HETATM    3  O   UNL     1      39.162  46.339  66.216  1.00  0.00    -0.266 OA
HETATM    4  H   UNL     1      37.887  47.545  63.511  1.00  0.00     0.190 HD
ENDROOT
BRANCH   2   5
HETATM    5  N   UNL     1      38.424  45.565  63.714  1.00  0.00    -0.267 N 
HETATM    6  C   UNL     1      37.297  44.783  63.594  1.00  0.00     0.236 C 
HETATM    7  O   UNL     1      36.160  45.236  63.728  1.00  0.00    -0.272 OA
HETATM    8  H   UNL     1      39.376  45.203  63.714  1.00  0.00     0.190 HD
BRANCH   6   9
HETATM    9  C   UNL     1      37.552  43.338  63.222  1.00  0.00     0.109 C 
BRANCH   9  10
HETATM   10  C   UNL     1      39.004  43.041  62.843  1.00  0.00     0.048 C 
BRANCH  10  11
HETATM   11  C   UNL     1      39.561  41.697  63.255  1.00  0.00    -0.058 A 
HETATM   12  C   UNL     1      40.378  41.526  64.377  1.00  0.00     0.010 A 
HETATM   13  C   UNL     1      40.846  40.256  64.728  1.00  0.00     0.037 A 
HETATM   14  C   UNL     1      40.495  39.130  63.981  1.00  0.00     0.068 A 
HETATM   15  C   UNL     1      39.668  39.287  62.873  1.00  0.00     0.037 A 
HETATM   16  C   UNL     1      39.201  40.559  62.517  1.00  0.00     0.010 A 
BRANCH  14  17
HETATM   17  O   UNL     1      41.020  37.954  64.437  1.00  0.00    -0.356 OA
HETATM   18  C   UNL     1      40.512  37.460  65.670  1.00  0.00     0.210 C 
ENDBRANCH  14  17
ENDBRANCH  10  11
ENDBRANCH   9  10
ENDBRANCH   6   9
ENDBRANCH   2   5
BRANCH   1  19
HETATM   19  C   UNL     1      38.432  48.568  65.888  1.00  0.00     0.058 A 
HETATM   20  C   UNL     1      37.310  48.940  66.628  1.00  0.00     0.047 A 
HETATM   21  C   UNL     1      36.253  47.958  67.042  1.00  0.00     0.071 C 
HETATM   22  N   UNL     1      37.106  50.224  67.033  1.00  0.00    -0.252 NA
HETATM   23  C   UNL     1      38.012  51.176  66.689  1.00  0.00     0.074 A 
HETATM   24  C   UNL     1      39.147  50.873  65.945  1.00  0.00     0.034 A 
HETATM   25  C   UNL     1      39.359  49.556  65.541  1.00  0.00     0.021 A 
BRANCH  23  26
HETATM   26  C   UNL     1      37.684  52.521  67.190  1.00  0.00     0.033 A 
HETATM   27  S   UNL     1      37.109  52.781  68.792  1.00  0.00    -0.100 SA
HETATM   28  C   UNL     1      36.999  54.470  68.567  1.00  0.00     0.050 A 
HETATM   29  C   UNL     1      37.393  54.849  67.305  1.00  0.00     0.008 A 
HETATM   30  C   UNL     1      37.792  53.729  66.519  1.00  0.00     0.021 A 
ENDBRANCH  23  26
ENDBRANCH   1  19
TORSDOF 7
ENDMDL
MODEL 10
REMARK VINA RESULT:      -7.7      7.100     10.034
REMARK  7 active torsions:
REMARK  status: ('A' for Active; 'I' for Inactive)
REMARK    1  A    between atoms: C_4  and  C_5 
REMARK    2  A    between atoms: C_12  and  C_13 
REMARK       I    between atoms: C_13  and  N_14 
REMARK    3  A    between atoms: N_14  and  N_15 
REMARK       I    between atoms: N_15  and  C_16 
REMARK    4  A    between atoms: C_16  and  C_17 
REMARK    5  A    between atoms: C_17  and  C_18 
REMARK    6  A    between atoms: C_18  and  C_19 
REMARK    7  A    between atoms: C_22  and  O_23 
ROOT
HETATM    1  C   UNL     1      27.581  42.156  51.669  1.00  0.00     0.272 C 
HETATM    2  N   UNL     1      27.214  40.833  51.796  1.00  0.00    -0.263 N 
HETATM    3  O   UNL     1      27.340  42.824  50.669  1.00  0.00    -0.266 OA
HETATM    4  H   UNL     1      27.349  40.267  52.633  1.00  0.00     0.190 HD
ENDROOT
BRANCH   2   5
HETATM    5  N   UNL     1      26.558  40.219  50.730  1.00  0.00    -0.267 N 
HETATM    6  C   UNL     1      27.317  39.470  49.859  1.00  0.00     0.236 C 
HETATM    7  O   UNL     1      28.500  39.202  50.075  1.00  0.00    -0.272 OA
HETATM    8  H   UNL     1      25.615  40.546  50.531  1.00  0.00     0.190 HD
BRANCH   6   9
HETATM    9  C   UNL     1      26.579  38.945  48.647  1.00  0.00     0.109 C 
BRANCH   9  10
HETATM   10  C   UNL     1      26.500  39.941  47.489  1.00  0.00     0.048 C 
BRANCH  10  11
HETATM   11  C   UNL     1      27.342  39.645  46.268  1.00  0.00    -0.058 A 
HETATM   12  C   UNL     1      27.638  38.344  45.848  1.00  0.00     0.010 A 
HETATM   13  C   UNL     1      28.402  38.126  44.697  1.00  0.00     0.037 A 
HETATM   14  C   UNL     1      28.868  39.196  43.932  1.00  0.00     0.068 A 
HETATM   15  C   UNL     1      28.564  40.494  44.332  1.00  0.00     0.037 A 
HETATM   16  C   UNL     1      27.803  40.715  45.487  1.00  0.00     0.010 A 
BRANCH  14  17
HETATM   17  O   UNL     1      29.598  38.839  42.833  1.00  0.00    -0.356 OA
HETATM   18  C   UNL     1      30.714  39.660  42.511  1.00  0.00     0.210 C 
ENDBRANCH  14  17
ENDBRANCH  10  11
ENDBRANCH   9  10
ENDBRANCH   6   9
ENDBRANCH   2   5
BRANCH   1  19
HETATM   19  C   UNL     1      28.286  42.732  52.838  1.00  0.00     0.058 A 
HETATM   20  C   UNL     1      27.631  43.550  53.757  1.00  0.00     0.047 A 
HETATM   21  C   UNL     1      26.179  43.907  53.630  1.00  0.00     0.071 C 
HETATM   22  N   UNL     1      28.269  44.072  54.842  1.00  0.00    -0.252 NA
HETATM   23  C   UNL     1      29.589  43.804  55.023  1.00  0.00     0.074 A 
HETATM   24  C   UNL     1      30.303  43.004  54.138  1.00  0.00     0.034 A 
HETATM   25  C   UNL     1      29.644  42.462  53.035  1.00  0.00     0.021 A 
BRANCH  23  26
HETATM   26  C   UNL     1      30.161  44.419  56.232  1.00  0.00     0.033 A 
HETATM   27  S   UNL     1      29.550  45.890  56.884  1.00  0.00    -0.100 SA
HETATM   28  C   UNL     1      30.673  45.885  58.170  1.00  0.00     0.050 A 
HETATM   29  C   UNL     1      31.503  44.790  58.124  1.00  0.00     0.008 A 
HETATM   30  C   UNL     1      31.203  43.946  57.015  1.00  0.00     0.021 A 
ENDBRANCH  23  26
ENDBRANCH   1  19
TORSDOF 7
ENDMDL
