MODEL 1
REMARK VINA RESULT:     -10.3      0.000      0.000
REMARK  7 active torsions:
REMARK  status: ('A' for Active; 'I' for Inactive)
REMARK    1  A    between atoms: C_4  and  C_5 
REMARK    2  A    between atoms: C_5  and  N_6 
REMARK    3  A    between atoms: C_14  and  C_15 
REMARK    4  A    between atoms: C_18  and  O_19 
REMARK    5  A    between atoms: O_19  and  C_20 
REMARK    6  A    between atoms: C_20  and  C_21 
REMARK    7  A    between atoms: C_22  and  C_23 
ROOT
HETATM    1  N   UNL     1      17.513  50.316  48.712  1.00  0.00    -0.063 N 
HETATM    2  H   UNL     1      17.608  49.958  49.669  1.00  0.00     0.280 HD
HETATM    3  C   UNL     1      18.042  49.203  47.817  1.00  0.00     0.282 C 
HETATM    4  C   UNL     1      19.502  49.014  48.053  1.00  0.00     0.018 A 
HETATM    5  C   UNL     1      20.327  49.925  48.690  1.00  0.00    -0.023 A 
HETATM    6  C   UNL     1      21.670  49.436  48.769  1.00  0.00     0.073 A 
HETATM    7  C   UNL     1      21.814  48.235  48.118  1.00  0.00     0.088 A 
HETATM    8  N   UNL     1      22.992  47.596  47.991  1.00  0.00    -0.358 N 
HETATM    9  C   UNL     1      24.118  47.976  48.823  1.00  0.00     0.219 C 
HETATM   10  N   UNL     1      23.983  49.316  49.332  1.00  0.00    -0.332 N 
HETATM   11  C   UNL     1      22.826  50.036  49.407  1.00  0.00     0.256 C 
HETATM   12  O   UNL     1      22.772  51.116  49.985  1.00  0.00    -0.267 OA
HETATM   13  S   UNL     1      20.345  47.644  47.498  1.00  0.00    -0.074 SA
HETATM   14  C   UNL     1      19.799  51.226  49.221  1.00  0.00     0.068 C 
HETATM   15  C   UNL     1      18.408  51.548  48.641  1.00  0.00     0.240 C 
HETATM   16  H   UNL     1      23.006  46.629  47.682  1.00  0.00     0.162 HD
HETATM   17  H   UNL     1      24.767  49.711  49.830  1.00  0.00     0.165 HD
ENDROOT
BRANCH   9  18
HETATM   18  C   UNL     1      24.317  46.942  49.916  1.00  0.00    -0.016 A 
HETATM   19  C   UNL     1      25.102  47.261  51.039  1.00  0.00     0.014 A 
HETATM   20  C   UNL     1      25.386  46.297  52.008  1.00  0.00     0.038 A 
HETATM   21  C   UNL     1      24.882  45.005  51.864  1.00  0.00     0.079 A 
HETATM   22  C   UNL     1      24.096  44.667  50.767  1.00  0.00     0.038 A 
HETATM   23  C   UNL     1      23.810  45.635  49.802  1.00  0.00     0.014 A 
BRANCH  21  24
HETATM   24  O   UNL     1      25.341  44.061  52.806  1.00  0.00    -0.276 OA
BRANCH  24  25
HETATM   25  C   UNL     1      25.278  44.292  54.171  1.00  0.00     0.288 C 
HETATM   26  O   UNL     1      24.281  44.553  54.829  1.00  0.00    -0.260 OA
BRANCH  25  27
HETATM   27  C   UNL     1      26.612  44.130  54.789  1.00  0.00     0.085 C 
HETATM   28  C   UNL     1      27.759  44.527  54.215  1.00  0.00     0.043 C 
BRANCH  28  29
HETATM   29  C   UNL     1      29.012  44.269  54.834  1.00  0.00     0.075 A 
HETATM   30  O   UNL     1      29.615  45.110  55.743  1.00  0.00    -0.323 OA
HETATM   31  C   UNL     1      30.777  44.542  56.147  1.00  0.00     0.142 A 
HETATM   32  C   UNL     1      30.965  43.337  55.520  1.00  0.00     0.027 A 
HETATM   33  C   UNL     1      29.840  43.162  54.679  1.00  0.00     0.039 A 
ENDBRANCH  28  29
ENDBRANCH  25  27
ENDBRANCH  24  25
ENDBRANCH  21  24
ENDBRANCH   9  18
BRANCH   1  34
HETATM   34  C   UNL     1      16.042  50.596  48.534  1.00  0.00     0.273 C 
BRANCH  34  35
HETATM   35  C   UNL     1      15.585  51.978  48.913  1.00  0.00    -0.033 A 
HETATM   36  C   UNL     1      15.016  52.824  47.945  1.00  0.00     0.009 A 
HETATM   37  C   UNL     1      14.617  54.118  48.281  1.00  0.00     0.001 A 
HETATM   38  C   UNL     1      14.776  54.580  49.585  1.00  0.00     0.000 A 
HETATM   39  C   UNL     1      15.326  53.748  50.557  1.00  0.00     0.001 A 
HETATM   40  C   UNL     1      15.727  52.452  50.225  1.00  0.00     0.009 A 
ENDBRANCH  34  35
ENDBRANCH   1  34
TORSDOF 7
ENDMDL
MODEL 2
REMARK VINA RESULT:     -10.0      0.943      1.590
REMARK  7 active torsions:
REMARK  status: ('A' for Active; 'I' for Inactive)
REMARK    1  A    between atoms: C_4  and  C_5 
REMARK    2  A    between atoms: C_5  and  N_6 
REMARK    3  A    between atoms: C_14  and  C_15 
REMARK    4  A    between atoms: C_18  and  O_19 
REMARK    5  A    between atoms: O_19  and  C_20 
REMARK    6  A    between atoms: C_20  and  C_21 
REMARK    7  A    between atoms: C_22  and  C_23 
ROOT
HETATM    1  N   UNL     1      17.727  50.700  49.225  1.00  0.00    -0.063 N 
HETATM    2  H   UNL     1      17.902  50.384  50.186  1.00  0.00     0.280 HD
HETATM    3  C   UNL     1      18.055  49.499  48.347  1.00  0.00     0.282 C 
HETATM    4  C   UNL     1      19.511  49.193  48.432  1.00  0.00     0.018 A 
HETATM    5  C   UNL     1      20.477  50.057  48.916  1.00  0.00    -0.023 A 
HETATM    6  C   UNL     1      21.775  49.454  48.877  1.00  0.00     0.073 A 
HETATM    7  C   UNL     1      21.742  48.213  48.288  1.00  0.00     0.088 A 
HETATM    8  N   UNL     1      22.840  47.465  48.072  1.00  0.00    -0.358 N 
HETATM    9  C   UNL     1      24.082  47.785  48.749  1.00  0.00     0.219 C 
HETATM   10  N   UNL     1      24.119  49.156  49.187  1.00  0.00    -0.332 N 
HETATM   11  C   UNL     1      23.043  49.979  49.345  1.00  0.00     0.256 C 
HETATM   12  O   UNL     1      23.146  51.088  49.859  1.00  0.00    -0.267 OA
HETATM   13  S   UNL     1      20.167  47.726  47.871  1.00  0.00    -0.074 SA
HETATM   14  C   UNL     1      20.125  51.426  49.423  1.00  0.00     0.068 C 
HETATM   15  C   UNL     1      18.707  51.841  48.981  1.00  0.00     0.240 C 
HETATM   16  H   UNL     1      22.737  46.486  47.822  1.00  0.00     0.162 HD
HETATM   17  H   UNL     1      24.986  49.504  49.571  1.00  0.00     0.165 HD
ENDROOT
BRANCH   9  18
HETATM   18  C   UNL     1      24.319  46.795  49.874  1.00  0.00    -0.016 A 
HETATM   19  C   UNL     1      25.182  47.137  50.931  1.00  0.00     0.014 A 
HETATM   20  C   UNL     1      25.497  46.208  51.925  1.00  0.00     0.038 A 
HETATM   21  C   UNL     1      24.948  44.928  51.872  1.00  0.00     0.079 A 
HETATM   22  C   UNL     1      24.085  44.567  50.841  1.00  0.00     0.038 A 
HETATM   23  C   UNL     1      23.767  45.501  49.852  1.00  0.00     0.014 A 
BRANCH  21  24
HETATM   24  O   UNL     1      25.437  44.013  52.826  1.00  0.00    -0.276 OA
BRANCH  24  25
HETATM   25  C   UNL     1      25.353  44.253  54.189  1.00  0.00     0.288 C 
HETATM   26  O   UNL     1      24.347  44.521  54.829  1.00  0.00    -0.260 OA
BRANCH  25  27
HETATM   27  C   UNL     1      26.677  44.093  54.828  1.00  0.00     0.085 C 
HETATM   28  C   UNL     1      27.822  44.565  54.313  1.00  0.00     0.043 C 
BRANCH  28  29
HETATM   29  C   UNL     1      29.069  44.306  54.945  1.00  0.00     0.075 A 
HETATM   30  O   UNL     1      29.656  45.139  55.871  1.00  0.00    -0.323 OA
HETATM   31  C   UNL     1      30.815  44.572  56.284  1.00  0.00     0.142 A 
HETATM   32  C   UNL     1      31.017  43.375  55.646  1.00  0.00     0.027 A 
HETATM   33  C   UNL     1      29.904  43.204  54.789  1.00  0.00     0.039 A 
ENDBRANCH  28  29
ENDBRANCH  25  27
ENDBRANCH  24  25
ENDBRANCH  21  24
ENDBRANCH   9  18
BRANCH   1  34
HETATM   34  C   UNL     1      16.274  51.101  49.193  1.00  0.00     0.273 C 
BRANCH  34  35
HETATM   35  C   UNL     1      15.664  51.256  47.827  1.00  0.00    -0.033 A 
HETATM   36  C   UNL     1      15.262  50.121  47.101  1.00  0.00     0.009 A 
HETATM   37  C   UNL     1      14.724  50.253  45.821  1.00  0.00     0.001 A 
HETATM   38  C   UNL     1      14.576  51.515  45.253  1.00  0.00     0.000 A 
HETATM   39  C   UNL     1      14.959  52.649  45.966  1.00  0.00     0.001 A 
HETATM   40  C   UNL     1      15.498  52.522  47.248  1.00  0.00     0.009 A 
ENDBRANCH  34  35
ENDBRANCH   1  34
TORSDOF 7
ENDMDL
MODEL 3
REMARK VINA RESULT:      -9.7      2.948     12.345
REMARK  7 active torsions:
REMARK  status: ('A' for Active; 'I' for Inactive)
REMARK    1  A    between atoms: C_4  and  C_5 
REMARK    2  A    between atoms: C_5  and  N_6 
REMARK    3  A    between atoms: C_14  and  C_15 
REMARK    4  A    between atoms: C_18  and  O_19 
REMARK    5  A    between atoms: O_19  and  C_20 
REMARK    6  A    between atoms: C_20  and  C_21 
REMARK    7  A    between atoms: C_22  and  C_23 
ROOT
HETATM    1  N   UNL     1      26.072  43.914  52.641  1.00  0.00    -0.063 N 
HETATM    2  H   UNL     1      25.187  44.071  53.135  1.00  0.00     0.280 HD
HETATM    3  C   UNL     1      26.525  45.296  52.189  1.00  0.00     0.282 C 
HETATM    4  C   UNL     1      25.570  45.837  51.180  1.00  0.00     0.018 A 
HETATM    5  C   UNL     1      24.640  45.084  50.485  1.00  0.00    -0.023 A 
HETATM    6  C   UNL     1      23.867  45.906  49.604  1.00  0.00     0.073 A 
HETATM    7  C   UNL     1      24.303  47.209  49.609  1.00  0.00     0.088 A 
HETATM    8  N   UNL     1      23.785  48.169  48.819  1.00  0.00    -0.358 N 
HETATM    9  C   UNL     1      22.512  47.956  48.158  1.00  0.00     0.219 C 
HETATM   10  N   UNL     1      22.199  46.556  48.031  1.00  0.00    -0.332 N 
HETATM   11  C   UNL     1      22.754  45.539  48.750  1.00  0.00     0.256 C 
HETATM   12  O   UNL     1      22.329  44.390  48.681  1.00  0.00    -0.267 OA
HETATM   13  S   UNL     1      25.561  47.476  50.722  1.00  0.00    -0.074 SA
HETATM   14  C   UNL     1      24.506  43.605  50.701  1.00  0.00     0.068 C 
HETATM   15  C   UNL     1      25.728  43.032  51.447  1.00  0.00     0.240 C 
HETATM   16  H   UNL     1      24.004  49.142  49.006  1.00  0.00     0.162 HD
HETATM   17  H   UNL     1      21.387  46.304  47.486  1.00  0.00     0.165 HD
ENDROOT
BRANCH   9  18
HETATM   18  C   UNL     1      21.429  48.745  48.869  1.00  0.00    -0.016 A 
HETATM   19  C   UNL     1      20.192  48.134  49.147  1.00  0.00     0.014 A 
HETATM   20  C   UNL     1      19.144  48.868  49.707  1.00  0.00     0.038 A 
HETATM   21  C   UNL     1      19.326  50.218  50.000  1.00  0.00     0.079 A 
HETATM   22  C   UNL     1      20.543  50.843  49.744  1.00  0.00     0.038 A 
HETATM   23  C   UNL     1      21.591  50.106  49.188  1.00  0.00     0.014 A 
BRANCH  21  24
HETATM   24  O   UNL     1      18.174  50.913  50.421  1.00  0.00    -0.276 OA
BRANCH  24  25
HETATM   25  C   UNL     1      17.218  51.367  49.524  1.00  0.00     0.288 C 
HETATM   26  O   UNL     1      16.892  50.844  48.469  1.00  0.00    -0.260 OA
BRANCH  25  27
HETATM   27  C   UNL     1      16.566  52.592  50.034  1.00  0.00     0.085 C 
HETATM   28  C   UNL     1      15.241  52.726  50.199  1.00  0.00     0.043 C 
BRANCH  28  29
HETATM   29  C   UNL     1      14.679  53.961  50.620  1.00  0.00     0.075 A 
HETATM   30  O   UNL     1      13.442  54.087  51.212  1.00  0.00    -0.323 OA
HETATM   31  C   UNL     1      13.238  55.394  51.508  1.00  0.00     0.142 A 
HETATM   32  C   UNL     1      14.317  56.145  51.120  1.00  0.00     0.027 A 
HETATM   33  C   UNL     1      15.237  55.233  50.551  1.00  0.00     0.039 A 
ENDBRANCH  28  29
ENDBRANCH  25  27
ENDBRANCH  24  25
ENDBRANCH  21  24
ENDBRANCH   9  18
BRANCH   1  34
HETATM   34  C   UNL     1      26.988  43.272  53.654  1.00  0.00     0.273 C 
BRANCH  34  35
HETATM   35  C   UNL     1      27.858  44.212  54.442  1.00  0.00    -0.033 A 
HETATM   36  C   UNL     1      29.197  43.878  54.708  1.00  0.00     0.009 A 
HETATM   37  C   UNL     1      30.003  44.730  55.464  1.00  0.00     0.001 A 
HETATM   38  C   UNL     1      29.484  45.923  55.960  1.00  0.00     0.000 A 
HETATM   39  C   UNL     1      28.163  46.271  55.695  1.00  0.00     0.001 A 
HETATM   40  C   UNL     1      27.352  45.423  54.937  1.00  0.00     0.009 A 
ENDBRANCH  34  35
ENDBRANCH   1  34
TORSDOF 7
ENDMDL
MODEL 4
REMARK VINA RESULT:      -9.6      3.092     12.332
REMARK  7 active torsions:
REMARK  status: ('A' for Active; 'I' for Inactive)
REMARK    1  A    between atoms: C_4  and  C_5 
REMARK    2  A    between atoms: C_5  and  N_6 
REMARK    3  A    between atoms: C_14  and  C_15 
REMARK    4  A    between atoms: C_18  and  O_19 
REMARK    5  A    between atoms: O_19  and  C_20 
REMARK    6  A    between atoms: C_20  and  C_21 
REMARK    7  A    between atoms: C_22  and  C_23 
ROOT
HETATM    1  N   UNL     1      25.610  43.748  53.062  1.00  0.00    -0.063 N 
HETATM    2  H   UNL     1      24.655  43.853  53.422  1.00  0.00     0.280 HD
HETATM    3  C   UNL     1      26.101  45.170  52.818  1.00  0.00     0.282 C 
HETATM    4  C   UNL     1      25.305  45.799  51.725  1.00  0.00     0.018 A 
HETATM    5  C   UNL     1      24.511  45.110  50.825  1.00  0.00    -0.023 A 
HETATM    6  C   UNL     1      23.869  46.008  49.913  1.00  0.00     0.073 A 
HETATM    7  C   UNL     1      24.274  47.307  50.108  1.00  0.00     0.088 A 
HETATM    8  N   UNL     1      23.867  48.335  49.338  1.00  0.00    -0.358 N 
HETATM    9  C   UNL     1      22.718  48.179  48.467  1.00  0.00     0.219 C 
HETATM   10  N   UNL     1      22.457  46.796  48.162  1.00  0.00    -0.332 N 
HETATM   11  C   UNL     1      22.912  45.718  48.863  1.00  0.00     0.256 C 
HETATM   12  O   UNL     1      22.527  44.579  48.621  1.00  0.00    -0.267 OA
HETATM   13  S   UNL     1      25.336  47.473  51.426  1.00  0.00    -0.074 SA
HETATM   14  C   UNL     1      24.375  43.616  50.878  1.00  0.00     0.068 C 
HETATM   15  C   UNL     1      25.475  42.982  51.751  1.00  0.00     0.240 C 
HETATM   16  H   UNL     1      24.034  49.287  49.647  1.00  0.00     0.162 HD
HETATM   17  H   UNL     1      21.746  46.592  47.475  1.00  0.00     0.165 HD
ENDROOT
BRANCH   9  18
HETATM   18  C   UNL     1      21.521  48.892  49.068  1.00  0.00    -0.016 A 
HETATM   19  C   UNL     1      20.301  48.205  49.209  1.00  0.00     0.014 A 
HETATM   20  C   UNL     1      19.158  48.866  49.663  1.00  0.00     0.038 A 
HETATM   21  C   UNL     1      19.227  50.220  49.986  1.00  0.00     0.079 A 
HETATM   22  C   UNL     1      20.423  50.920  49.864  1.00  0.00     0.038 A 
HETATM   23  C   UNL     1      21.566  50.255  49.414  1.00  0.00     0.014 A 
BRANCH  21  24
HETATM   24  O   UNL     1      17.997  50.839  50.289  1.00  0.00    -0.276 OA
BRANCH  24  25
HETATM   25  C   UNL     1      17.444  51.818  49.477  1.00  0.00     0.288 C 
HETATM   26  O   UNL     1      17.499  53.028  49.640  1.00  0.00    -0.260 OA
BRANCH  25  27
HETATM   27  C   UNL     1      16.786  51.207  48.302  1.00  0.00     0.085 C 
HETATM   28  C   UNL     1      15.864  50.235  48.377  1.00  0.00     0.043 C 
BRANCH  28  29
HETATM   29  C   UNL     1      15.332  49.642  47.200  1.00  0.00     0.075 A 
HETATM   30  O   UNL     1      14.672  48.433  47.173  1.00  0.00    -0.323 OA
HETATM   31  C   UNL     1      14.278  48.188  45.900  1.00  0.00     0.142 A 
HETATM   32  C   UNL     1      14.665  49.211  45.074  1.00  0.00     0.027 A 
HETATM   33  C   UNL     1      15.340  50.139  45.902  1.00  0.00     0.039 A 
ENDBRANCH  28  29
ENDBRANCH  25  27
ENDBRANCH  24  25
ENDBRANCH  21  24
ENDBRANCH   9  18
BRANCH   1  34
HETATM   34  C   UNL     1      26.367  43.018  54.143  1.00  0.00     0.273 C 
BRANCH  34  35
HETATM   35  C   UNL     1      27.861  42.957  53.973  1.00  0.00    -0.033 A 
HETATM   36  C   UNL     1      28.695  43.756  54.774  1.00  0.00     0.009 A 
HETATM   37  C   UNL     1      30.080  43.729  54.602  1.00  0.00     0.001 A 
HETATM   38  C   UNL     1      30.646  42.903  53.635  1.00  0.00     0.000 A 
HETATM   39  C   UNL     1      29.832  42.098  52.843  1.00  0.00     0.001 A 
HETATM   40  C   UNL     1      28.446  42.121  53.011  1.00  0.00     0.009 A 
ENDBRANCH  34  35
ENDBRANCH   1  34
TORSDOF 7
ENDMDL
MODEL 5
REMARK VINA RESULT:      -9.4      5.872     12.698
REMARK  7 active torsions:
REMARK  status: ('A' for Active; 'I' for Inactive)
REMARK    1  A    between atoms: C_4  and  C_5 
REMARK    2  A    between atoms: C_5  and  N_6 
REMARK    3  A    between atoms: C_14  and  C_15 
REMARK    4  A    between atoms: C_18  and  O_19 
REMARK    5  A    between atoms: O_19  and  C_20 
REMARK    6  A    between atoms: C_20  and  C_21 
REMARK    7  A    between atoms: C_22  and  C_23 
ROOT
HETATM    1  N   UNL     1      27.555  39.184  46.742  1.00  0.00    -0.063 N 
HETATM    2  H   UNL     1      27.963  40.075  46.436  1.00  0.00     0.280 HD
HETATM    3  C   UNL     1      26.062  39.456  46.871  1.00  0.00     0.282 C 
HETATM    4  C   UNL     1      25.818  40.432  47.972  1.00  0.00     0.018 A 
HETATM    5  C   UNL     1      26.731  40.758  48.959  1.00  0.00    -0.023 A 
HETATM    6  C   UNL     1      26.194  41.738  49.854  1.00  0.00     0.073 A 
HETATM    7  C   UNL     1      24.885  42.034  49.558  1.00  0.00     0.088 A 
HETATM    8  N   UNL     1      24.132  42.878  50.289  1.00  0.00    -0.358 N 
HETATM    9  C   UNL     1      24.760  43.777  51.238  1.00  0.00     0.219 C 
HETATM   10  N   UNL     1      26.062  43.311  51.639  1.00  0.00    -0.332 N 
HETATM   11  C   UNL     1      26.830  42.399  50.977  1.00  0.00     0.256 C 
HETATM   12  O   UNL     1      27.987  42.164  51.309  1.00  0.00    -0.267 OA
HETATM   13  S   UNL     1      24.327  41.227  48.169  1.00  0.00    -0.074 SA
HETATM   14  C   UNL     1      28.098  40.138  49.003  1.00  0.00     0.068 C 
HETATM   15  C   UNL     1      28.178  38.890  48.102  1.00  0.00     0.240 C 
HETATM   16  H   UNL     1      23.249  43.211  49.915  1.00  0.00     0.162 HD
HETATM   17  H   UNL     1      26.532  43.811  52.380  1.00  0.00     0.165 HD
ENDROOT
BRANCH   9  18
HETATM   18  C   UNL     1      24.780  45.184  50.671  1.00  0.00    -0.016 A 
HETATM   19  C   UNL     1      25.719  46.114  51.153  1.00  0.00     0.014 A 
HETATM   20  C   UNL     1      25.693  47.442  50.724  1.00  0.00     0.038 A 
HETATM   21  C   UNL     1      24.730  47.851  49.803  1.00  0.00     0.079 A 
HETATM   22  C   UNL     1      23.796  46.949  49.304  1.00  0.00     0.038 A 
HETATM   23  C   UNL     1      23.828  45.619  49.732  1.00  0.00     0.014 A 
BRANCH  21  24
HETATM   24  O   UNL     1      24.683  49.236  49.542  1.00  0.00    -0.276 OA
BRANCH  24  25
HETATM   25  C   UNL     1      23.920  49.766  48.512  1.00  0.00     0.288 C 
HETATM   26  O   UNL     1      24.265  49.937  47.353  1.00  0.00    -0.260 OA
BRANCH  25  27
HETATM   27  C   UNL     1      22.552  50.073  48.983  1.00  0.00     0.085 C 
HETATM   28  C   UNL     1      21.649  50.765  48.271  1.00  0.00     0.043 C 
BRANCH  28  29
HETATM   29  C   UNL     1      20.379  51.089  48.819  1.00  0.00     0.075 A 
HETATM   30  O   UNL     1      19.732  50.336  49.774  1.00  0.00    -0.323 OA
HETATM   31  C   UNL     1      18.565  50.950  50.086  1.00  0.00     0.142 A 
HETATM   32  C   UNL     1      18.418  52.099  49.354  1.00  0.00     0.027 A 
HETATM   33  C   UNL     1      19.574  52.189  48.543  1.00  0.00     0.039 A 
ENDBRANCH  28  29
ENDBRANCH  25  27
ENDBRANCH  24  25
ENDBRANCH  21  24
ENDBRANCH   9  18
BRANCH   1  34
HETATM   34  C   UNL     1      27.904  38.192  45.662  1.00  0.00     0.273 C 
BRANCH  34  35
HETATM   35  C   UNL     1      28.764  38.713  44.543  1.00  0.00    -0.033 A 
HETATM   36  C   UNL     1      29.675  37.859  43.896  1.00  0.00     0.009 A 
HETATM   37  C   UNL     1      30.498  38.341  42.878  1.00  0.00     0.001 A 
HETATM   38  C   UNL     1      30.419  39.676  42.492  1.00  0.00     0.000 A 
HETATM   39  C   UNL     1      29.514  40.530  43.115  1.00  0.00     0.001 A 
HETATM   40  C   UNL     1      28.687  40.052  44.135  1.00  0.00     0.009 A 
ENDBRANCH  34  35
ENDBRANCH   1  34
TORSDOF 7
ENDMDL
MODEL 6
REMARK VINA RESULT:      -9.1      3.295     11.990
REMARK  7 active torsions:
REMARK  status: ('A' for Active; 'I' for Inactive)
REMARK    1  A    between atoms: C_4  and  C_5 
REMARK    2  A    between atoms: C_5  and  N_6 
REMARK    3  A    between atoms: C_14  and  C_15 
REMARK    4  A    between atoms: C_18  and  O_19 
REMARK    5  A    between atoms: O_19  and  C_20 
REMARK    6  A    between atoms: C_20  and  C_21 
REMARK    7  A    between atoms: C_22  and  C_23 
ROOT
HETATM    1  N   UNL     1      25.341  45.079  51.714  1.00  0.00    -0.063 N 
HETATM    2  H   UNL     1      24.552  45.310  52.328  1.00  0.00     0.280 HD
HETATM    3  C   UNL     1      25.585  46.339  50.892  1.00  0.00     0.282 C 
HETATM    4  C   UNL     1      24.419  46.596  50.000  1.00  0.00     0.018 A 
HETATM    5  C   UNL     1      23.443  45.667  49.683  1.00  0.00    -0.023 A 
HETATM    6  C   UNL     1      22.454  46.234  48.817  1.00  0.00     0.073 A 
HETATM    7  C   UNL     1      22.774  47.520  48.453  1.00  0.00     0.088 A 
HETATM    8  N   UNL     1      22.040  48.252  47.593  1.00  0.00    -0.358 N 
HETATM    9  C   UNL     1      20.689  47.842  47.260  1.00  0.00     0.219 C 
HETATM   10  N   UNL     1      20.476  46.440  47.503  1.00  0.00    -0.332 N 
HETATM   11  C   UNL     1      21.238  45.637  48.301  1.00  0.00     0.256 C 
HETATM   12  O   UNL     1      20.905  44.487  48.569  1.00  0.00    -0.267 OA
HETATM   13  S   UNL     1      24.189  48.084  49.209  1.00  0.00    -0.074 SA
HETATM   14  C   UNL     1      23.475  44.272  50.237  1.00  0.00     0.068 C 
HETATM   15  C   UNL     1      24.857  43.935  50.831  1.00  0.00     0.240 C 
HETATM   16  H   UNL     1      22.208  49.250  47.517  1.00  0.00     0.162 HD
HETATM   17  H   UNL     1      19.602  46.037  47.199  1.00  0.00     0.165 HD
ENDROOT
BRANCH   9  18
HETATM   18  C   UNL     1      19.694  48.730  47.983  1.00  0.00    -0.016 A 
HETATM   19  C   UNL     1      19.383  49.997  47.458  1.00  0.00     0.014 A 
HETATM   20  C   UNL     1      18.549  50.873  48.156  1.00  0.00     0.038 A 
HETATM   21  C   UNL     1      18.015  50.487  49.384  1.00  0.00     0.079 A 
HETATM   22  C   UNL     1      18.300  49.235  49.921  1.00  0.00     0.038 A 
HETATM   23  C   UNL     1      19.130  48.358  49.218  1.00  0.00     0.014 A 
BRANCH  21  24
HETATM   24  O   UNL     1      17.311  51.486  50.087  1.00  0.00    -0.276 OA
BRANCH  24  25
HETATM   25  C   UNL     1      16.084  51.967  49.654  1.00  0.00     0.288 C 
HETATM   26  O   UNL     1      15.365  51.480  48.794  1.00  0.00    -0.260 OA
BRANCH  25  27
HETATM   27  C   UNL     1      15.697  53.171  50.420  1.00  0.00     0.085 C 
HETATM   28  C   UNL     1      14.473  53.375  50.931  1.00  0.00     0.043 C 
BRANCH  28  29
HETATM   29  C   UNL     1      14.151  54.592  51.590  1.00  0.00     0.075 A 
HETATM   30  O   UNL     1      12.884  55.128  51.653  1.00  0.00    -0.323 OA
HETATM   31  C   UNL     1      12.936  56.271  52.378  1.00  0.00     0.142 A 
HETATM   32  C   UNL     1      14.219  56.513  52.798  1.00  0.00     0.027 A 
HETATM   33  C   UNL     1      14.996  55.443  52.294  1.00  0.00     0.039 A 
ENDBRANCH  28  29
ENDBRANCH  25  27
ENDBRANCH  24  25
ENDBRANCH  21  24
ENDBRANCH   9  18
BRANCH   1  34
HETATM   34  C   UNL     1      26.478  44.723  52.639  1.00  0.00     0.273 C 
BRANCH  34  35
HETATM   35  C   UNL     1      26.794  45.731  53.709  1.00  0.00    -0.033 A 
HETATM   36  C   UNL     1      25.911  46.796  53.960  1.00  0.00     0.009 A 
HETATM   37  C   UNL     1      26.211  47.753  54.930  1.00  0.00     0.001 A 
HETATM   38  C   UNL     1      27.392  47.656  55.662  1.00  0.00     0.000 A 
HETATM   39  C   UNL     1      28.269  46.600  55.433  1.00  0.00     0.001 A 
HETATM   40  C   UNL     1      27.973  45.639  54.463  1.00  0.00     0.009 A 
ENDBRANCH  34  35
ENDBRANCH   1  34
TORSDOF 7
ENDMDL
MODEL 7
REMARK VINA RESULT:      -8.9      8.788     12.621
REMARK  7 active torsions:
REMARK  status: ('A' for Active; 'I' for Inactive)
REMARK    1  A    between atoms: C_4  and  C_5 
REMARK    2  A    between atoms: C_5  and  N_6 
REMARK    3  A    between atoms: C_14  and  C_15 
REMARK    4  A    between atoms: C_18  and  O_19 
REMARK    5  A    between atoms: O_19  and  C_20 
REMARK    6  A    between atoms: C_20  and  C_21 
REMARK    7  A    between atoms: C_22  and  C_23 
ROOT
HETATM    1  N   UNL     1      26.789  42.789  53.780  1.00  0.00    -0.063 N 
HETATM    2  H   UNL     1      26.186  41.965  53.882  1.00  0.00     0.280 HD
HETATM    3  C   UNL     1      26.511  43.313  52.377  1.00  0.00     0.282 C 
HETATM    4  C   UNL     1      26.978  42.322  51.365  1.00  0.00     0.018 A 
HETATM    5  C   UNL     1      27.849  41.278  51.621  1.00  0.00    -0.023 A 
HETATM    6  C   UNL     1      28.082  40.501  50.441  1.00  0.00     0.073 A 
HETATM    7  C   UNL     1      27.456  41.041  49.344  1.00  0.00     0.088 A 
HETATM    8  N   UNL     1      27.571  40.537  48.100  1.00  0.00    -0.358 N 
HETATM    9  C   UNL     1      28.095  39.199  47.905  1.00  0.00     0.219 C 
HETATM   10  N   UNL     1      28.890  38.763  49.023  1.00  0.00    -0.332 N 
HETATM   11  C   UNL     1      28.868  39.293  50.280  1.00  0.00     0.256 C 
HETATM   12  O   UNL     1      29.471  38.772  51.213  1.00  0.00    -0.267 OA
HETATM   13  S   UNL     1      26.519  42.408  49.729  1.00  0.00    -0.074 SA
HETATM   14  C   UNL     1      28.415  41.042  52.991  1.00  0.00     0.068 C 
HETATM   15  C   UNL     1      28.218  42.273  53.899  1.00  0.00     0.240 C 
HETATM   16  H   UNL     1      26.935  40.850  47.373  1.00  0.00     0.162 HD
HETATM   17  H   UNL     1      29.388  37.890  48.934  1.00  0.00     0.165 HD
ENDROOT
BRANCH   9  18
HETATM   18  C   UNL     1      26.959  38.249  47.576  1.00  0.00    -0.016 A 
HETATM   19  C   UNL     1      27.007  36.921  48.040  1.00  0.00     0.014 A 
HETATM   20  C   UNL     1      26.026  35.999  47.667  1.00  0.00     0.038 A 
HETATM   21  C   UNL     1      24.986  36.399  46.830  1.00  0.00     0.079 A 
HETATM   22  C   UNL     1      24.911  37.708  46.365  1.00  0.00     0.038 A 
HETATM   23  C   UNL     1      25.890  38.630  46.744  1.00  0.00     0.014 A 
BRANCH  21  24
HETATM   24  O   UNL     1      24.130  35.371  46.385  1.00  0.00    -0.276 OA
BRANCH  24  25
HETATM   25  C   UNL     1      23.310  34.667  47.253  1.00  0.00     0.288 C 
HETATM   26  O   UNL     1      23.450  33.510  47.622  1.00  0.00    -0.260 OA
BRANCH  25  27
HETATM   27  C   UNL     1      22.215  35.528  47.749  1.00  0.00     0.085 C 
HETATM   28  C   UNL     1      20.918  35.331  47.469  1.00  0.00     0.043 C 
BRANCH  28  29
HETATM   29  C   UNL     1      19.927  36.246  47.917  1.00  0.00     0.075 A 
HETATM   30  O   UNL     1      19.872  37.572  47.548  1.00  0.00    -0.323 OA
HETATM   31  C   UNL     1      18.789  38.137  48.134  1.00  0.00     0.142 A 
HETATM   32  C   UNL     1      18.120  37.212  48.894  1.00  0.00     0.027 A 
HETATM   33  C   UNL     1      18.846  36.005  48.758  1.00  0.00     0.039 A 
ENDBRANCH  28  29
ENDBRANCH  25  27
ENDBRANCH  24  25
ENDBRANCH  21  24
ENDBRANCH   9  18
BRANCH   1  34
HETATM   34  C   UNL     1      26.367  43.732  54.878  1.00  0.00     0.273 C 
BRANCH  34  35
HETATM   35  C   UNL     1      26.910  45.132  54.788  1.00  0.00    -0.033 A 
HETATM   36  C   UNL     1      28.231  45.404  55.185  1.00  0.00     0.009 A 
HETATM   37  C   UNL     1      28.734  46.704  55.133  1.00  0.00     0.001 A 
HETATM   38  C   UNL     1      27.927  47.746  54.682  1.00  0.00     0.000 A 
HETATM   39  C   UNL     1      26.621  47.489  54.274  1.00  0.00     0.001 A 
HETATM   40  C   UNL     1      26.114  46.188  54.323  1.00  0.00     0.009 A 
ENDBRANCH  34  35
ENDBRANCH   1  34
TORSDOF 7
ENDMDL
MODEL 8
REMARK VINA RESULT:      -8.7     20.491     24.725
REMARK  7 active torsions:
REMARK  status: ('A' for Active; 'I' for Inactive)
REMARK    1  A    between atoms: C_4  and  C_5 
REMARK    2  A    between atoms: C_5  and  N_6 
REMARK    3  A    between atoms: C_14  and  C_15 
REMARK    4  A    between atoms: C_18  and  O_19 
REMARK    5  A    between atoms: O_19  and  C_20 
REMARK    6  A    between atoms: C_20  and  C_21 
REMARK    7  A    between atoms: C_22  and  C_23 
ROOT
HETATM    1  N   UNL     1      40.069  40.119  64.822  1.00  0.00    -0.063 N 
HETATM    2  H   UNL     1      40.142  40.573  65.740  1.00  0.00     0.280 HD
HETATM    3  C   UNL     1      40.423  41.205  63.814  1.00  0.00     0.282 C 
HETATM    4  C   UNL     1      39.386  42.276  63.839  1.00  0.00     0.018 A 
HETATM    5  C   UNL     1      38.126  42.148  64.397  1.00  0.00    -0.023 A 
HETATM    6  C   UNL     1      37.380  43.363  64.269  1.00  0.00     0.073 A 
HETATM    7  C   UNL     1      38.069  44.310  63.551  1.00  0.00     0.088 A 
HETATM    8  N   UNL     1      37.561  45.517  63.235  1.00  0.00    -0.358 N 
HETATM    9  C   UNL     1      36.383  46.011  63.921  1.00  0.00     0.219 C 
HETATM   10  N   UNL     1      35.612  44.944  64.503  1.00  0.00    -0.332 N 
HETATM   11  C   UNL     1      36.056  43.681  64.769  1.00  0.00     0.256 C 
HETATM   12  O   UNL     1      35.379  42.875  65.396  1.00  0.00    -0.267 OA
HETATM   13  S   UNL     1      39.629  43.795  63.112  1.00  0.00    -0.074 SA
HETATM   14  C   UNL     1      37.683  40.873  65.054  1.00  0.00     0.068 C 
HETATM   15  C   UNL     1      38.610  39.698  64.684  1.00  0.00     0.240 C 
HETATM   16  H   UNL     1      38.178  46.243  62.884  1.00  0.00     0.162 HD
HETATM   17  H   UNL     1      34.716  45.177  64.907  1.00  0.00     0.165 HD
ENDROOT
BRANCH   9  18
HETATM   18  C   UNL     1      36.785  47.072  64.928  1.00  0.00    -0.016 A 
HETATM   19  C   UNL     1      36.472  46.894  66.288  1.00  0.00     0.014 A 
HETATM   20  C   UNL     1      36.740  47.899  67.220  1.00  0.00     0.038 A 
HETATM   21  C   UNL     1      37.328  49.090  66.799  1.00  0.00     0.079 A 
HETATM   22  C   UNL     1      37.655  49.288  65.461  1.00  0.00     0.038 A 
HETATM   23  C   UNL     1      37.392  48.278  64.533  1.00  0.00     0.014 A 
BRANCH  21  24
HETATM   24  O   UNL     1      37.422  50.104  67.775  1.00  0.00    -0.276 OA
BRANCH  24  25
HETATM   25  C   UNL     1      38.260  51.198  67.623  1.00  0.00     0.288 C 
HETATM   26  O   UNL     1      39.482  51.195  67.629  1.00  0.00    -0.260 OA
BRANCH  25  27
HETATM   27  C   UNL     1      37.473  52.428  67.391  1.00  0.00     0.085 C 
HETATM   28  C   UNL     1      37.907  53.664  67.684  1.00  0.00     0.043 C 
BRANCH  28  29
HETATM   29  C   UNL     1      37.065  54.795  67.506  1.00  0.00     0.075 A 
HETATM   30  O   UNL     1      36.951  55.498  66.327  1.00  0.00    -0.323 OA
HETATM   31  C   UNL     1      36.045  56.490  66.505  1.00  0.00     0.142 A 
HETATM   32  C   UNL     1      35.553  56.465  67.784  1.00  0.00     0.027 A 
HETATM   33  C   UNL     1      36.205  55.385  68.426  1.00  0.00     0.039 A 
ENDBRANCH  28  29
ENDBRANCH  25  27
ENDBRANCH  24  25
ENDBRANCH  21  24
ENDBRANCH   9  18
BRANCH   1  34
HETATM   34  C   UNL     1      41.053  38.977  64.860  1.00  0.00     0.273 C 
BRANCH  34  35
HETATM   35  C   UNL     1      40.877  37.995  65.985  1.00  0.00    -0.033 A 
HETATM   36  C   UNL     1      40.680  36.631  65.707  1.00  0.00     0.009 A 
HETATM   37  C   UNL     1      40.486  35.717  66.744  1.00  0.00     0.001 A 
HETATM   38  C   UNL     1      40.490  36.152  68.067  1.00  0.00     0.000 A 
HETATM   39  C   UNL     1      40.697  37.498  68.357  1.00  0.00     0.001 A 
HETATM   40  C   UNL     1      40.892  38.417  67.322  1.00  0.00     0.009 A 
ENDBRANCH  34  35
ENDBRANCH   1  34
TORSDOF 7
ENDMDL
MODEL 9
REMARK VINA RESULT:      -8.6     14.460     16.584
REMARK  7 active torsions:
REMARK  status: ('A' for Active; 'I' for Inactive)
REMARK    1  A    between atoms: C_4  and  C_5 
REMARK    2  A    between atoms: C_5  and  N_6 
REMARK    3  A    between atoms: C_14  and  C_15 
REMARK    4  A    between atoms: C_18  and  O_19 
REMARK    5  A    between atoms: O_19  and  C_20 
REMARK    6  A    between atoms: C_20  and  C_21 
REMARK    7  A    between atoms: C_22  and  C_23 
ROOT
HETATM    1  N   UNL     1      29.792  51.993  40.177  1.00  0.00    -0.063 N 
HETATM    2  H   UNL     1      30.143  52.954  40.248  1.00  0.00     0.280 HD
HETATM    3  C   UNL     1      30.212  51.320  41.477  1.00  0.00     0.282 C 
HETATM    4  C   UNL     1      31.699  51.221  41.538  1.00  0.00     0.018 A 
HETATM    5  C   UNL     1      32.548  51.366  40.455  1.00  0.00    -0.023 A 
HETATM    6  C   UNL     1      33.917  51.230  40.853  1.00  0.00     0.073 A 
HETATM    7  C   UNL     1      34.030  50.904  42.183  1.00  0.00     0.088 A 
HETATM    8  N   UNL     1      35.208  50.657  42.789  1.00  0.00    -0.358 N 
HETATM    9  C   UNL     1      36.449  51.048  42.149  1.00  0.00     0.219 C 
HETATM   10  N   UNL     1      36.297  51.202  40.726  1.00  0.00    -0.332 N 
HETATM   11  C   UNL     1      35.120  51.374  40.057  1.00  0.00     0.256 C 
HETATM   12  O   UNL     1      35.089  51.642  38.861  1.00  0.00    -0.267 OA
HETATM   13  S   UNL     1      32.528  50.852  42.977  1.00  0.00    -0.074 SA
HETATM   14  C   UNL     1      32.025  51.651  39.078  1.00  0.00     0.068 C 
HETATM   15  C   UNL     1      30.511  51.377  38.983  1.00  0.00     0.240 C 
HETATM   16  H   UNL     1      35.250  50.620  43.802  1.00  0.00     0.162 HD
HETATM   17  H   UNL     1      37.129  51.365  40.178  1.00  0.00     0.165 HD
ENDROOT
BRANCH   9  18
HETATM   18  C   UNL     1      37.005  52.287  42.826  1.00  0.00    -0.016 A 
HETATM   19  C   UNL     1      37.041  52.354  44.231  1.00  0.00     0.014 A 
HETATM   20  C   UNL     1      37.452  53.521  44.878  1.00  0.00     0.038 A 
HETATM   21  C   UNL     1      37.835  54.630  44.126  1.00  0.00     0.079 A 
HETATM   22  C   UNL     1      37.816  54.586  42.735  1.00  0.00     0.038 A 
HETATM   23  C   UNL     1      37.410  53.415  42.090  1.00  0.00     0.014 A 
BRANCH  21  24
HETATM   24  O   UNL     1      38.088  55.808  44.858  1.00  0.00    -0.276 OA
BRANCH  24  25
HETATM   25  C   UNL     1      39.242  56.555  44.676  1.00  0.00     0.288 C 
HETATM   26  O   UNL     1      39.353  57.599  44.050  1.00  0.00    -0.260 OA
BRANCH  25  27
HETATM   27  C   UNL     1      40.376  55.945  45.403  1.00  0.00     0.085 C 
HETATM   28  C   UNL     1      40.355  55.638  46.709  1.00  0.00     0.043 C 
BRANCH  28  29
HETATM   29  C   UNL     1      41.511  55.125  47.358  1.00  0.00     0.075 A 
HETATM   30  O   UNL     1      41.689  53.800  47.689  1.00  0.00    -0.323 OA
HETATM   31  C   UNL     1      42.907  53.662  48.266  1.00  0.00     0.142 A 
HETATM   32  C   UNL     1      43.546  54.874  48.330  1.00  0.00     0.027 A 
HETATM   33  C   UNL     1      42.655  55.809  47.753  1.00  0.00     0.039 A 
ENDBRANCH  28  29
ENDBRANCH  25  27
ENDBRANCH  24  25
ENDBRANCH  21  24
ENDBRANCH   9  18
BRANCH   1  34
HETATM   34  C   UNL     1      28.298  52.124  40.012  1.00  0.00     0.273 C 
BRANCH  34  35
HETATM   35  C   UNL     1      27.574  50.883  39.570  1.00  0.00    -0.033 A 
HETATM   36  C   UNL     1      27.104  50.772  38.249  1.00  0.00     0.009 A 
HETATM   37  C   UNL     1      26.405  49.637  37.838  1.00  0.00     0.001 A 
HETATM   38  C   UNL     1      26.170  48.600  38.736  1.00  0.00     0.000 A 
HETATM   39  C   UNL     1      26.640  48.690  40.044  1.00  0.00     0.001 A 
HETATM   40  C   UNL     1      27.341  49.824  40.460  1.00  0.00     0.009 A 
ENDBRANCH  34  35
ENDBRANCH   1  34
TORSDOF 7
ENDMDL
MODEL 10
REMARK VINA RESULT:      -8.5      2.488      3.267
REMARK  7 active torsions:
REMARK  status: ('A' for Active; 'I' for Inactive)
REMARK    1  A    between atoms: C_4  and  C_5 
REMARK    2  A    between atoms: C_5  and  N_6 
REMARK    3  A    between atoms: C_14  and  C_15 
REMARK    4  A    between atoms: C_18  and  O_19 
REMARK    5  A    between atoms: O_19  and  C_20 
REMARK    6  A    between atoms: C_20  and  C_21 
REMARK    7  A    between atoms: C_22  and  C_23 
ROOT
HETATM    1  N   UNL     1      17.768  47.879  48.484  1.00  0.00    -0.063 N 
HETATM    2  H   UNL     1      17.922  48.094  49.476  1.00  0.00     0.280 HD
HETATM    3  C   UNL     1      18.421  46.519  48.268  1.00  0.00     0.282 C 
HETATM    4  C   UNL     1      19.896  46.630  48.451  1.00  0.00     0.018 A 
HETATM    5  C   UNL     1      20.608  47.817  48.447  1.00  0.00    -0.023 A 
HETATM    6  C   UNL     1      22.003  47.580  48.665  1.00  0.00     0.073 A 
HETATM    7  C   UNL     1      22.288  46.238  48.731  1.00  0.00     0.088 A 
HETATM    8  N   UNL     1      23.536  45.749  48.865  1.00  0.00    -0.358 N 
HETATM    9  C   UNL     1      24.616  46.622  49.281  1.00  0.00     0.219 C 
HETATM   10  N   UNL     1      24.321  48.007  49.021  1.00  0.00    -0.332 N 
HETATM   11  C   UNL     1      23.084  48.538  48.799  1.00  0.00     0.256 C 
HETATM   12  O   UNL     1      22.903  49.748  48.727  1.00  0.00    -0.267 OA
HETATM   13  S   UNL     1      20.896  45.266  48.631  1.00  0.00    -0.074 SA
HETATM   14  C   UNL     1      19.929  49.142  48.258  1.00  0.00     0.068 C 
HETATM   15  C   UNL     1      18.499  48.967  47.707  1.00  0.00     0.240 C 
HETATM   16  H   UNL     1      23.666  44.772  49.108  1.00  0.00     0.162 HD
HETATM   17  H   UNL     1      25.057  48.681  49.174  1.00  0.00     0.165 HD
ENDROOT
BRANCH   9  18
HETATM   18  C   UNL     1      24.961  46.350  50.734  1.00  0.00    -0.016 A 
HETATM   19  C   UNL     1      25.111  47.428  51.626  1.00  0.00     0.014 A 
HETATM   20  C   UNL     1      25.528  47.212  52.941  1.00  0.00     0.038 A 
HETATM   21  C   UNL     1      25.793  45.916  53.377  1.00  0.00     0.079 A 
HETATM   22  C   UNL     1      25.643  44.832  52.517  1.00  0.00     0.038 A 
HETATM   23  C   UNL     1      25.221  45.050  51.204  1.00  0.00     0.014 A 
BRANCH  21  24
HETATM   24  O   UNL     1      26.351  45.807  54.668  1.00  0.00    -0.276 OA
BRANCH  24  25
HETATM   25  C   UNL     1      27.437  46.569  55.068  1.00  0.00     0.288 C 
HETATM   26  O   UNL     1      27.614  47.762  54.867  1.00  0.00    -0.260 OA
BRANCH  25  27
HETATM   27  C   UNL     1      28.388  45.750  55.850  1.00  0.00     0.085 C 
HETATM   28  C   UNL     1      29.708  45.699  55.613  1.00  0.00     0.043 C 
BRANCH  28  29
HETATM   29  C   UNL     1      30.550  44.829  56.357  1.00  0.00     0.075 A 
HETATM   30  O   UNL     1      31.026  45.104  57.620  1.00  0.00    -0.323 OA
HETATM   31  C   UNL     1      31.770  44.051  58.037  1.00  0.00     0.142 A 
HETATM   32  C   UNL     1      31.804  43.078  57.072  1.00  0.00     0.027 A 
HETATM   33  C   UNL     1      31.028  43.573  55.998  1.00  0.00     0.039 A 
ENDBRANCH  28  29
ENDBRANCH  25  27
ENDBRANCH  24  25
ENDBRANCH  21  24
ENDBRANCH   9  18
BRANCH   1  34
HETATM   34  C   UNL     1      16.271  47.874  48.303  1.00  0.00     0.273 C 
BRANCH  34  35
HETATM   35  C   UNL     1      15.772  48.285  46.945  1.00  0.00    -0.033 A 
HETATM   36  C   UNL     1      15.079  49.498  46.786  1.00  0.00     0.009 A 
HETATM   37  C   UNL     1      14.586  49.874  45.536  1.00  0.00     0.001 A 
HETATM   38  C   UNL     1      14.781  49.047  44.433  1.00  0.00     0.000 A 
HETATM   39  C   UNL     1      15.476  47.850  44.574  1.00  0.00     0.001 A 
HETATM   40  C   UNL     1      15.973  47.469  45.823  1.00  0.00     0.009 A 
ENDBRANCH  34  35
ENDBRANCH   1  34
TORSDOF 7
ENDMDL
