MODEL 1
REMARK VINA RESULT:      -9.5      0.000      0.000
REMARK  6 active torsions:
REMARK  status: ('A' for Active; 'I' for Inactive)
REMARK    1  A    between atoms: C_2  and  N_3 
REMARK    2  A    between atoms: C_2  and  C_24 
REMARK       I    between atoms: N_3  and  C_4 
REMARK    3  A    between atoms: C_4  and  C_5 
REMARK    4  A    between atoms: C_5  and  N_6 
REMARK    5  A    between atoms: C_10  and  N_11 
REMARK       I    between atoms: N_11  and  C_12 
REMARK       I    between atoms: C_12  and  N_13 
REMARK    6  A    between atoms: N_13  and  C_14 
ROOT
HETATM    1  N   UNL     1      25.858  45.909  52.258  1.00  0.00    -0.063 N 
HETATM    2  H   UNL     1      26.692  45.354  52.004  1.00  0.00     0.280 HD
HETATM    3  C   UNL     1      24.664  45.189  51.678  1.00  0.00     0.237 C 
HETATM    4  C   UNL     1      24.516  45.418  50.186  1.00  0.00     0.053 C 
HETATM    5  C   UNL     1      24.665  46.870  49.735  1.00  0.00     0.089 C 
HETATM    6  C   UNL     1      25.921  47.501  50.328  1.00  0.00     0.053 C 
HETATM    7  C   UNL     1      26.049  47.334  51.827  1.00  0.00     0.237 C 
ENDROOT
BRANCH   1   8
HETATM    8  C   UNL     1      25.809  45.847  53.803  1.00  0.00     0.337 C 
BRANCH   8   9
HETATM    9  C   UNL     1      25.802  44.404  54.298  1.00  0.00     0.244 C 
HETATM   10  N   UNL     1      26.909  43.623  54.277  1.00  0.00    -0.351 N 
HETATM   11  H   UNL     1      26.701  42.678  54.586  1.00  0.00     0.163 HD
HETATM   12  O   UNL     1      24.751  43.944  54.758  1.00  0.00    -0.272 OA
BRANCH  10  13
HETATM   13  C   UNL     1      28.249  43.779  53.703  1.00  0.00     0.120 C 
HETATM   14  C   UNL     1      28.715  42.675  52.759  1.00  0.00     0.038 C 
BRANCH  13  15
HETATM   15  C   UNL     1      29.279  44.100  54.758  1.00  0.00     0.005 A 
HETATM   16  S   UNL     1      29.206  45.509  55.734  1.00  0.00    -0.104 SA
HETATM   17  C   UNL     1      30.617  45.082  56.594  1.00  0.00     0.050 A 
HETATM   18  C   UNL     1      31.134  43.881  56.168  1.00  0.00     0.008 A 
HETATM   19  C   UNL     1      30.364  43.316  55.110  1.00  0.00     0.017 A 
ENDBRANCH  13  15
ENDBRANCH  10  13
ENDBRANCH   8   9
ENDBRANCH   1   8
BRANCH   5  20
HETATM   20  N   UNL     1      23.460  47.689  49.863  1.00  0.00    -0.338 N 
HETATM   21  C   UNL     1      22.484  47.876  48.925  1.00  0.00     0.316 C 
HETATM   22  N   UNL     1      21.463  48.655  49.391  1.00  0.00    -0.339 N 
HETATM   23  O   UNL     1      22.510  47.386  47.805  1.00  0.00    -0.247 OA
HETATM   24  H   UNL     1      21.686  49.288  50.146  1.00  0.00     0.164 HD
HETATM   25  H   UNL     1      23.186  47.934  50.807  1.00  0.00     0.164 HD
BRANCH  22  26
HETATM   26  C   UNL     1      20.357  49.050  48.517  1.00  0.00     0.086 C 
HETATM   27  C   UNL     1      19.057  49.202  49.315  1.00  0.00     0.025 C 
HETATM   28  C   UNL     1      19.037  50.454  50.190  1.00  0.00     0.002 C 
HETATM   29  C   UNL     1      19.360  51.710  49.386  1.00  0.00     0.000 C 
HETATM   30  C   UNL     1      20.678  51.575  48.631  1.00  0.00     0.002 C 
HETATM   31  C   UNL     1      20.693  50.332  47.742  1.00  0.00     0.025 C 
ENDBRANCH  22  26
ENDBRANCH   5  20
TORSDOF 6
ENDMDL
MODEL 2
REMARK VINA RESULT:      -8.7      1.294      1.737
REMARK  6 active torsions:
REMARK  status: ('A' for Active; 'I' for Inactive)
REMARK    1  A    between atoms: C_2  and  N_3 
REMARK    2  A    between atoms: C_2  and  C_24 
REMARK       I    between atoms: N_3  and  C_4 
REMARK    3  A    between atoms: C_4  and  C_5 
REMARK    4  A    between atoms: C_5  and  N_6 
REMARK    5  A    between atoms: C_10  and  N_11 
REMARK       I    between atoms: N_11  and  C_12 
REMARK       I    between atoms: C_12  and  N_13 
REMARK    6  A    between atoms: N_13  and  C_14 
ROOT
HETATM    1  N   UNL     1      25.803  45.730  51.817  1.00  0.00    -0.063 N 
HETATM    2  H   UNL     1      26.670  45.276  51.487  1.00  0.00     0.280 HD
HETATM    3  C   UNL     1      24.659  45.046  51.107  1.00  0.00     0.237 C 
HETATM    4  C   UNL     1      24.504  45.512  49.672  1.00  0.00     0.053 C 
HETATM    5  C   UNL     1      24.566  47.025  49.471  1.00  0.00     0.089 C 
HETATM    6  C   UNL     1      25.778  47.622  50.179  1.00  0.00     0.053 C 
HETATM    7  C   UNL     1      25.908  47.215  51.632  1.00  0.00     0.237 C 
ENDROOT
BRANCH   1   8
HETATM    8  C   UNL     1      25.750  45.408  53.330  1.00  0.00     0.337 C 
BRANCH   8   9
HETATM    9  C   UNL     1      26.850  44.429  53.725  1.00  0.00     0.244 C 
HETATM   10  N   UNL     1      27.741  44.695  54.712  1.00  0.00    -0.351 N 
HETATM   11  H   UNL     1      28.435  43.958  54.791  1.00  0.00     0.163 HD
HETATM   12  O   UNL     1      26.911  43.343  53.137  1.00  0.00    -0.272 OA
BRANCH  10  13
HETATM   13  C   UNL     1      28.046  45.887  55.507  1.00  0.00     0.120 C 
HETATM   14  C   UNL     1      28.307  47.173  54.728  1.00  0.00     0.038 C 
BRANCH  13  15
HETATM   15  C   UNL     1      29.113  45.617  56.538  1.00  0.00     0.005 A 
HETATM   16  S   UNL     1      30.491  44.646  56.222  1.00  0.00    -0.104 SA
HETATM   17  C   UNL     1      31.121  44.891  57.789  1.00  0.00     0.050 A 
HETATM   18  C   UNL     1      30.316  45.711  58.544  1.00  0.00     0.008 A 
HETATM   19  C   UNL     1      29.159  46.129  57.824  1.00  0.00     0.017 A 
ENDBRANCH  13  15
ENDBRANCH  10  13
ENDBRANCH   8   9
ENDBRANCH   1   8
BRANCH   5  20
HETATM   20  N   UNL     1      23.312  47.738  49.715  1.00  0.00    -0.338 N 
HETATM   21  C   UNL     1      22.312  47.982  48.817  1.00  0.00     0.316 C 
HETATM   22  N   UNL     1      21.250  48.623  49.388  1.00  0.00    -0.339 N 
HETATM   23  O   UNL     1      22.353  47.648  47.641  1.00  0.00    -0.247 OA
HETATM   24  H   UNL     1      21.443  49.163  50.220  1.00  0.00     0.164 HD
HETATM   25  H   UNL     1      23.037  47.837  50.684  1.00  0.00     0.164 HD
BRANCH  22  26
HETATM   26  C   UNL     1      20.108  49.056  48.582  1.00  0.00     0.086 C 
HETATM   27  C   UNL     1      18.859  49.231  49.453  1.00  0.00     0.025 C 
HETATM   28  C   UNL     1      18.920  50.473  50.341  1.00  0.00     0.002 C 
HETATM   29  C   UNL     1      19.230  51.730  49.534  1.00  0.00     0.000 C 
HETATM   30  C   UNL     1      20.499  51.571  48.705  1.00  0.00     0.002 C 
HETATM   31  C   UNL     1      20.432  50.338  47.803  1.00  0.00     0.025 C 
ENDBRANCH  22  26
ENDBRANCH   5  20
TORSDOF 6
ENDMDL
MODEL 3
REMARK VINA RESULT:      -8.0     11.775     12.730
REMARK  6 active torsions:
REMARK  status: ('A' for Active; 'I' for Inactive)
REMARK    1  A    between atoms: C_2  and  N_3 
REMARK    2  A    between atoms: C_2  and  C_24 
REMARK       I    between atoms: N_3  and  C_4 
REMARK    3  A    between atoms: C_4  and  C_5 
REMARK    4  A    between atoms: C_5  and  N_6 
REMARK    5  A    between atoms: C_10  and  N_11 
REMARK       I    between atoms: N_11  and  C_12 
REMARK       I    between atoms: C_12  and  N_13 
REMARK    6  A    between atoms: N_13  and  C_14 
ROOT
HETATM    1  N   UNL     1      29.110  51.684  40.589  1.00  0.00    -0.063 N 
HETATM    2  H   UNL     1      30.037  51.372  40.255  1.00  0.00     0.280 HD
HETATM    3  C   UNL     1      28.531  50.540  41.388  1.00  0.00     0.237 C 
HETATM    4  C   UNL     1      27.981  49.435  40.507  1.00  0.00     0.053 C 
HETATM    5  C   UNL     1      27.110  49.906  39.344  1.00  0.00     0.089 C 
HETATM    6  C   UNL     1      27.794  51.024  38.565  1.00  0.00     0.053 C 
HETATM    7  C   UNL     1      28.291  52.165  39.427  1.00  0.00     0.237 C 
ENDROOT
BRANCH   1   8
HETATM    8  C   UNL     1      29.416  52.877  41.525  1.00  0.00     0.337 C 
BRANCH   8   9
HETATM    9  C   UNL     1      30.888  53.270  41.455  1.00  0.00     0.244 C 
HETATM   10  N   UNL     1      31.855  52.591  42.120  1.00  0.00    -0.351 N 
HETATM   11  H   UNL     1      32.763  53.033  42.005  1.00  0.00     0.163 HD
HETATM   12  O   UNL     1      31.208  54.229  40.744  1.00  0.00    -0.272 OA
BRANCH  10  13
HETATM   13  C   UNL     1      31.837  51.525  43.125  1.00  0.00     0.120 C 
HETATM   14  C   UNL     1      32.633  51.782  44.401  1.00  0.00     0.038 C 
BRANCH  13  15
HETATM   15  C   UNL     1      32.144  50.177  42.521  1.00  0.00     0.005 A 
HETATM   16  S   UNL     1      33.476  49.906  41.476  1.00  0.00    -0.104 SA
HETATM   17  C   UNL     1      33.113  48.246  41.315  1.00  0.00     0.050 A 
HETATM   18  C   UNL     1      32.010  47.888  42.053  1.00  0.00     0.008 A 
HETATM   19  C   UNL     1      31.451  49.000  42.747  1.00  0.00     0.017 A 
ENDBRANCH  13  15
ENDBRANCH  10  13
ENDBRANCH   8   9
ENDBRANCH   1   8
BRANCH   5  20
HETATM   20  N   UNL     1      25.712  50.173  39.681  1.00  0.00    -0.338 N 
HETATM   21  C   UNL     1      24.607  49.850  38.944  1.00  0.00     0.316 C 
HETATM   22  N   UNL     1      23.446  50.190  39.579  1.00  0.00    -0.339 N 
HETATM   23  O   UNL     1      24.651  49.303  37.851  1.00  0.00    -0.247 OA
HETATM   24  H   UNL     1      23.505  50.931  40.263  1.00  0.00     0.164 HD
HETATM   25  H   UNL     1      25.520  50.379  40.654  1.00  0.00     0.164 HD
BRANCH  22  26
HETATM   26  C   UNL     1      22.149  50.010  38.924  1.00  0.00     0.086 C 
HETATM   27  C   UNL     1      21.562  48.631  39.243  1.00  0.00     0.025 C 
HETATM   28  C   UNL     1      21.046  48.518  40.676  1.00  0.00     0.002 C 
HETATM   29  C   UNL     1      20.071  49.642  41.015  1.00  0.00     0.000 C 
HETATM   30  C   UNL     1      20.674  51.015  40.743  1.00  0.00     0.002 C 
HETATM   31  C   UNL     1      21.176  51.135  39.304  1.00  0.00     0.025 C 
ENDBRANCH  22  26
ENDBRANCH   5  20
TORSDOF 6
ENDMDL
MODEL 4
REMARK VINA RESULT:      -7.6      3.142      4.102
REMARK  6 active torsions:
REMARK  status: ('A' for Active; 'I' for Inactive)
REMARK    1  A    between atoms: C_2  and  N_3 
REMARK    2  A    between atoms: C_2  and  C_24 
REMARK       I    between atoms: N_3  and  C_4 
REMARK    3  A    between atoms: C_4  and  C_5 
REMARK    4  A    between atoms: C_5  and  N_6 
REMARK    5  A    between atoms: C_10  and  N_11 
REMARK       I    between atoms: N_11  and  C_12 
REMARK       I    between atoms: C_12  and  N_13 
REMARK    6  A    between atoms: N_13  and  C_14 
ROOT
HETATM    1  N   UNL     1      26.466  44.724  51.632  1.00  0.00    -0.063 N 
HETATM    2  H   UNL     1      27.495  44.739  51.722  1.00  0.00     0.280 HD
HETATM    3  C   UNL     1      26.156  44.904  50.165  1.00  0.00     0.237 C 
HETATM    4  C   UNL     1      26.299  46.345  49.713  1.00  0.00     0.053 C 
HETATM    5  C   UNL     1      25.653  47.380  50.633  1.00  0.00     0.089 C 
HETATM    6  C   UNL     1      26.060  47.152  52.085  1.00  0.00     0.053 C 
HETATM    7  C   UNL     1      25.862  45.730  52.567  1.00  0.00     0.237 C 
ENDROOT
BRANCH   1   8
HETATM    8  C   UNL     1      26.059  43.301  52.083  1.00  0.00     0.337 C 
BRANCH   8   9
HETATM    9  C   UNL     1      27.266  42.514  52.581  1.00  0.00     0.244 C 
HETATM   10  N   UNL     1      27.843  41.527  51.853  1.00  0.00    -0.351 N 
HETATM   11  H   UNL     1      28.592  41.075  52.369  1.00  0.00     0.163 HD
HETATM   12  O   UNL     1      27.748  42.808  53.681  1.00  0.00    -0.272 OA
BRANCH  10  13
HETATM   13  C   UNL     1      27.479  40.840  50.610  1.00  0.00     0.120 C 
HETATM   14  C   UNL     1      26.032  40.370  50.495  1.00  0.00     0.038 C 
BRANCH  13  15
HETATM   15  C   UNL     1      28.462  39.751  50.261  1.00  0.00     0.005 A 
HETATM   16  S   UNL     1      28.782  39.266  48.647  1.00  0.00    -0.104 SA
HETATM   17  C   UNL     1      29.941  38.114  49.140  1.00  0.00     0.050 A 
HETATM   18  C   UNL     1      30.104  38.101  50.505  1.00  0.00     0.008 A 
HETATM   19  C   UNL     1      29.253  39.043  51.151  1.00  0.00     0.017 A 
ENDBRANCH  13  15
ENDBRANCH  10  13
ENDBRANCH   8   9
ENDBRANCH   1   8
BRANCH   5  20
HETATM   20  N   UNL     1      24.218  47.582  50.432  1.00  0.00    -0.338 N 
HETATM   21  C   UNL     1      23.616  48.325  49.457  1.00  0.00     0.316 C 
HETATM   22  N   UNL     1      22.253  48.253  49.520  1.00  0.00    -0.339 N 
HETATM   23  O   UNL     1      24.226  48.965  48.611  1.00  0.00    -0.247 OA
HETATM   24  H   UNL     1      21.854  48.023  50.419  1.00  0.00     0.164 HD
HETATM   25  H   UNL     1      23.607  46.915  50.888  1.00  0.00     0.164 HD
BRANCH  22  26
HETATM   26  C   UNL     1      21.414  49.044  48.619  1.00  0.00     0.086 C 
HETATM   27  C   UNL     1      19.962  48.557  48.655  1.00  0.00     0.025 C 
HETATM   28  C   UNL     1      19.235  48.939  49.944  1.00  0.00     0.002 C 
HETATM   29  C   UNL     1      19.339  50.435  50.228  1.00  0.00     0.000 C 
HETATM   30  C   UNL     1      20.788  50.909  50.239  1.00  0.00     0.002 C 
HETATM   31  C   UNL     1      21.511  50.542  48.943  1.00  0.00     0.025 C 
ENDBRANCH  22  26
ENDBRANCH   5  20
TORSDOF 6
ENDMDL
MODEL 5
REMARK VINA RESULT:      -7.4      1.844      2.581
REMARK  6 active torsions:
REMARK  status: ('A' for Active; 'I' for Inactive)
REMARK    1  A    between atoms: C_2  and  N_3 
REMARK    2  A    between atoms: C_2  and  C_24 
REMARK       I    between atoms: N_3  and  C_4 
REMARK    3  A    between atoms: C_4  and  C_5 
REMARK    4  A    between atoms: C_5  and  N_6 
REMARK    5  A    between atoms: C_10  and  N_11 
REMARK       I    between atoms: N_11  and  C_12 
REMARK       I    between atoms: C_12  and  N_13 
REMARK    6  A    between atoms: N_13  and  C_14 
ROOT
HETATM    1  N   UNL     1      26.228  44.876  51.423  1.00  0.00    -0.063 N 
HETATM    2  H   UNL     1      27.224  45.022  51.657  1.00  0.00     0.280 HD
HETATM    3  C   UNL     1      26.089  45.129  49.941  1.00  0.00     0.237 C 
HETATM    4  C   UNL     1      26.081  46.607  49.601  1.00  0.00     0.053 C 
HETATM    5  C   UNL     1      25.179  47.469  50.483  1.00  0.00     0.089 C 
HETATM    6  C   UNL     1      25.423  47.184  51.961  1.00  0.00     0.053 C 
HETATM    7  C   UNL     1      25.370  45.715  52.324  1.00  0.00     0.237 C 
ENDROOT
BRANCH   1   8
HETATM    8  C   UNL     1      25.974  43.380  51.727  1.00  0.00     0.337 C 
BRANCH   8   9
HETATM    9  C   UNL     1      27.268  42.666  52.103  1.00  0.00     0.244 C 
HETATM   10  N   UNL     1      27.701  42.571  53.384  1.00  0.00    -0.351 N 
HETATM   11  H   UNL     1      28.609  42.117  53.435  1.00  0.00     0.163 HD
HETATM   12  O   UNL     1      27.930  42.134  51.205  1.00  0.00    -0.272 OA
BRANCH  10  13
HETATM   13  C   UNL     1      27.264  43.170  54.649  1.00  0.00     0.120 C 
HETATM   14  C   UNL     1      25.760  43.341  54.833  1.00  0.00     0.038 C 
BRANCH  13  15
HETATM   15  C   UNL     1      28.026  44.432  54.966  1.00  0.00     0.005 A 
HETATM   16  S   UNL     1      29.699  44.442  55.346  1.00  0.00    -0.104 SA
HETATM   17  C   UNL     1      29.732  46.140  55.512  1.00  0.00     0.050 A 
HETATM   18  C   UNL     1      28.503  46.704  55.267  1.00  0.00     0.008 A 
HETATM   19  C   UNL     1      27.520  45.721  54.953  1.00  0.00     0.017 A 
ENDBRANCH  13  15
ENDBRANCH  10  13
ENDBRANCH   8   9
ENDBRANCH   1   8
BRANCH   5  20
HETATM   20  N   UNL     1      23.769  47.492  50.096  1.00  0.00    -0.338 N 
HETATM   21  C   UNL     1      23.065  48.552  49.598  1.00  0.00     0.316 C 
HETATM   22  N   UNL     1      21.779  48.216  49.283  1.00  0.00    -0.339 N 
HETATM   23  O   UNL     1      23.537  49.669  49.434  1.00  0.00    -0.247 OA
HETATM   24  H   UNL     1      21.387  47.423  49.771  1.00  0.00     0.164 HD
HETATM   25  H   UNL     1      23.336  46.591  49.936  1.00  0.00     0.164 HD
BRANCH  22  26
HETATM   26  C   UNL     1      20.829  49.226  48.816  1.00  0.00     0.086 C 
HETATM   27  C   UNL     1      19.960  48.676  47.680  1.00  0.00     0.025 C 
HETATM   28  C   UNL     1      18.915  47.670  48.161  1.00  0.00     0.002 C 
HETATM   29  C   UNL     1      18.070  48.234  49.299  1.00  0.00     0.000 C 
HETATM   30  C   UNL     1      18.935  48.738  50.449  1.00  0.00     0.002 C 
HETATM   31  C   UNL     1      19.970  49.757  49.972  1.00  0.00     0.025 C 
ENDBRANCH  22  26
ENDBRANCH   5  20
TORSDOF 6
ENDMDL
MODEL 6
REMARK VINA RESULT:      -7.4      1.856      2.285
REMARK  6 active torsions:
REMARK  status: ('A' for Active; 'I' for Inactive)
REMARK    1  A    between atoms: C_2  and  N_3 
REMARK    2  A    between atoms: C_2  and  C_24 
REMARK       I    between atoms: N_3  and  C_4 
REMARK    3  A    between atoms: C_4  and  C_5 
REMARK    4  A    between atoms: C_5  and  N_6 
REMARK    5  A    between atoms: C_10  and  N_11 
REMARK       I    between atoms: N_11  and  C_12 
REMARK       I    between atoms: C_12  and  N_13 
REMARK    6  A    between atoms: N_13  and  C_14 
ROOT
HETATM    1  N   UNL     1      25.019  43.750  50.804  1.00  0.00    -0.063 N 
HETATM    2  H   UNL     1      25.501  42.928  50.405  1.00  0.00     0.280 HD
HETATM    3  C   UNL     1      23.563  43.373  50.939  1.00  0.00     0.237 C 
HETATM    4  C   UNL     1      22.823  43.425  49.616  1.00  0.00     0.053 C 
HETATM    5  C   UNL     1      23.083  44.674  48.776  1.00  0.00     0.089 C 
HETATM    6  C   UNL     1      24.578  44.948  48.651  1.00  0.00     0.053 C 
HETATM    7  C   UNL     1      25.317  44.963  49.973  1.00  0.00     0.237 C 
ENDROOT
BRANCH   1   8
HETATM    8  C   UNL     1      25.648  43.926  52.206  1.00  0.00     0.337 C 
BRANCH   8   9
HETATM    9  C   UNL     1      27.163  43.757  52.156  1.00  0.00     0.244 C 
HETATM   10  N   UNL     1      27.974  44.162  53.164  1.00  0.00    -0.351 N 
HETATM   11  H   UNL     1      28.953  44.026  52.928  1.00  0.00     0.163 HD
HETATM   12  O   UNL     1      27.662  43.207  51.168  1.00  0.00    -0.272 OA
BRANCH  10  13
HETATM   13  C   UNL     1      27.760  44.943  54.385  1.00  0.00     0.120 C 
HETATM   14  C   UNL     1      27.245  46.367  54.198  1.00  0.00     0.038 C 
BRANCH  13  15
HETATM   15  C   UNL     1      28.953  44.884  55.307  1.00  0.00     0.005 A 
HETATM   16  S   UNL     1      30.156  43.666  55.198  1.00  0.00    -0.104 SA
HETATM   17  C   UNL     1      31.061  44.335  56.482  1.00  0.00     0.050 A 
HETATM   18  C   UNL     1      30.478  45.476  56.981  1.00  0.00     0.008 A 
HETATM   19  C   UNL     1      29.264  45.791  56.305  1.00  0.00     0.017 A 
ENDBRANCH  13  15
ENDBRANCH  10  13
ENDBRANCH   8   9
ENDBRANCH   1   8
BRANCH   5  20
HETATM   20  N   UNL     1      22.282  45.844  49.136  1.00  0.00    -0.338 N 
HETATM   21  C   UNL     1      21.830  46.825  48.300  1.00  0.00     0.316 C 
HETATM   22  N   UNL     1      21.056  47.743  48.951  1.00  0.00    -0.339 N 
HETATM   23  O   UNL     1      22.073  46.867  47.101  1.00  0.00    -0.247 OA
HETATM   24  H   UNL     1      21.208  47.837  49.946  1.00  0.00     0.164 HD
HETATM   25  H   UNL     1      21.800  45.797  50.025  1.00  0.00     0.164 HD
BRANCH  22  26
HETATM   26  C   UNL     1      20.543  48.925  48.257  1.00  0.00     0.086 C 
HETATM   27  C   UNL     1      19.183  49.346  48.826  1.00  0.00     0.025 C 
HETATM   28  C   UNL     1      19.288  49.992  50.206  1.00  0.00     0.002 C 
HETATM   29  C   UNL     1      20.288  51.144  50.217  1.00  0.00     0.000 C 
HETATM   30  C   UNL     1      21.654  50.711  49.696  1.00  0.00     0.002 C 
HETATM   31  C   UNL     1      21.553  50.080  48.307  1.00  0.00     0.025 C 
ENDBRANCH  22  26
ENDBRANCH   5  20
TORSDOF 6
ENDMDL
MODEL 7
REMARK VINA RESULT:      -7.3      4.450     10.728
REMARK  6 active torsions:
REMARK  status: ('A' for Active; 'I' for Inactive)
REMARK    1  A    between atoms: C_2  and  N_3 
REMARK    2  A    between atoms: C_2  and  C_24 
REMARK       I    between atoms: N_3  and  C_4 
REMARK    3  A    between atoms: C_4  and  C_5 
REMARK    4  A    between atoms: C_5  and  N_6 
REMARK    5  A    between atoms: C_10  and  N_11 
REMARK       I    between atoms: N_11  and  C_12 
REMARK       I    between atoms: C_12  and  N_13 
REMARK    6  A    between atoms: N_13  and  C_14 
ROOT
HETATM    1  N   UNL     1      18.790  48.836  48.007  1.00  0.00    -0.063 N 
HETATM    2  H   UNL     1      18.330  49.740  47.812  1.00  0.00     0.280 HD
HETATM    3  C   UNL     1      18.985  48.763  49.503  1.00  0.00     0.237 C 
HETATM    4  C   UNL     1      20.155  49.604  49.979  1.00  0.00     0.053 C 
HETATM    5  C   UNL     1      21.436  49.453  49.161  1.00  0.00     0.089 C 
HETATM    6  C   UNL     1      21.153  49.590  47.668  1.00  0.00     0.053 C 
HETATM    7  C   UNL     1      20.029  48.708  47.168  1.00  0.00     0.237 C 
ENDROOT
BRANCH   1   8
HETATM    8  C   UNL     1      17.761  47.772  47.559  1.00  0.00     0.337 C 
BRANCH   8   9
HETATM    9  C   UNL     1      16.430  47.952  48.283  1.00  0.00     0.244 C 
HETATM   10  N   UNL     1      15.603  48.997  48.036  1.00  0.00    -0.351 N 
HETATM   11  H   UNL     1      14.797  48.985  48.654  1.00  0.00     0.163 HD
HETATM   12  O   UNL     1      16.087  47.096  49.106  1.00  0.00    -0.272 OA
BRANCH  10  13
HETATM   13  C   UNL     1      15.733  50.230  47.254  1.00  0.00     0.120 C 
HETATM   14  C   UNL     1      15.975  50.060  45.757  1.00  0.00     0.038 C 
BRANCH  13  15
HETATM   15  C   UNL     1      16.705  51.196  47.884  1.00  0.00     0.005 A 
HETATM   16  S   UNL     1      16.612  51.674  49.529  1.00  0.00    -0.104 SA
HETATM   17  C   UNL     1      17.997  52.662  49.402  1.00  0.00     0.050 A 
HETATM   18  C   UNL     1      18.542  52.623  48.140  1.00  0.00     0.008 A 
HETATM   19  C   UNL     1      17.798  51.780  47.266  1.00  0.00     0.017 A 
ENDBRANCH  13  15
ENDBRANCH  10  13
ENDBRANCH   8   9
ENDBRANCH   1   8
BRANCH   5  20
HETATM   20  N   UNL     1      22.269  48.304  49.514  1.00  0.00    -0.338 N 
HETATM   21  C   UNL     1      23.631  48.273  49.628  1.00  0.00     0.316 C 
HETATM   22  N   UNL     1      24.088  47.052  50.034  1.00  0.00    -0.339 N 
HETATM   23  O   UNL     1      24.356  49.234  49.411  1.00  0.00    -0.247 OA
HETATM   24  H   UNL     1      23.492  46.259  49.839  1.00  0.00     0.164 HD
HETATM   25  H   UNL     1      21.794  47.532  49.965  1.00  0.00     0.164 HD
BRANCH  22  26
HETATM   26  C   UNL     1      25.522  46.779  50.135  1.00  0.00     0.086 C 
HETATM   27  C   UNL     1      26.021  47.003  51.567  1.00  0.00     0.025 C 
HETATM   28  C   UNL     1      25.572  45.908  52.534  1.00  0.00     0.002 C 
HETATM   29  C   UNL     1      25.930  44.517  52.018  1.00  0.00     0.000 C 
HETATM   30  C   UNL     1      25.391  44.280  50.612  1.00  0.00     0.002 C 
HETATM   31  C   UNL     1      25.854  45.365  49.640  1.00  0.00     0.025 C 
ENDBRANCH  22  26
ENDBRANCH   5  20
TORSDOF 6
ENDMDL
MODEL 8
REMARK VINA RESULT:      -7.2      4.456     10.277
REMARK  6 active torsions:
REMARK  status: ('A' for Active; 'I' for Inactive)
REMARK    1  A    between atoms: C_2  and  N_3 
REMARK    2  A    between atoms: C_2  and  C_24 
REMARK       I    between atoms: N_3  and  C_4 
REMARK    3  A    between atoms: C_4  and  C_5 
REMARK    4  A    between atoms: C_5  and  N_6 
REMARK    5  A    between atoms: C_10  and  N_11 
REMARK       I    between atoms: N_11  and  C_12 
REMARK       I    between atoms: C_12  and  N_13 
REMARK    6  A    between atoms: N_13  and  C_14 
ROOT
HETATM    1  N   UNL     1      25.127  45.726  50.580  1.00  0.00    -0.063 N 
HETATM    2  H   UNL     1      25.326  46.496  51.239  1.00  0.00     0.280 HD
HETATM    3  C   UNL     1      24.463  44.631  51.381  1.00  0.00     0.237 C 
HETATM    4  C   UNL     1      25.453  43.834  52.208  1.00  0.00     0.053 C 
HETATM    5  C   UNL     1      26.719  43.405  51.468  1.00  0.00     0.089 C 
HETATM    6  C   UNL     1      27.348  44.582  50.731  1.00  0.00     0.053 C 
HETATM    7  C   UNL     1      26.383  45.348  49.850  1.00  0.00     0.237 C 
ENDROOT
BRANCH   1   8
HETATM    8  C   UNL     1      24.116  46.327  49.574  1.00  0.00     0.337 C 
BRANCH   8   9
HETATM    9  C   UNL     1      24.080  47.849  49.671  1.00  0.00     0.244 C 
HETATM   10  N   UNL     1      22.947  48.565  49.473  1.00  0.00    -0.351 N 
HETATM   11  H   UNL     1      23.127  49.564  49.516  1.00  0.00     0.163 HD
HETATM   12  O   UNL     1      25.123  48.445  49.968  1.00  0.00    -0.272 OA
BRANCH  10  13
HETATM   13  C   UNL     1      21.604  48.224  48.993  1.00  0.00     0.120 C 
HETATM   14  C   UNL     1      21.495  47.792  47.534  1.00  0.00     0.038 C 
BRANCH  13  15
HETATM   15  C   UNL     1      20.593  49.284  49.353  1.00  0.00     0.005 A 
HETATM   16  S   UNL     1      19.075  48.921  50.064  1.00  0.00    -0.104 SA
HETATM   17  C   UNL     1      18.635  50.568  50.154  1.00  0.00     0.050 A 
HETATM   18  C   UNL     1      19.626  51.391  49.672  1.00  0.00     0.008 A 
HETATM   19  C   UNL     1      20.752  50.652  49.210  1.00  0.00     0.017 A 
ENDBRANCH  13  15
ENDBRANCH  10  13
ENDBRANCH   8   9
ENDBRANCH   1   8
BRANCH   5  20
HETATM   20  N   UNL     1      26.589  42.188  50.666  1.00  0.00    -0.338 N 
HETATM   21  C   UNL     1      27.417  41.102  50.672  1.00  0.00     0.316 C 
HETATM   22  N   UNL     1      26.973  40.110  49.844  1.00  0.00    -0.339 N 
HETATM   23  O   UNL     1      28.429  41.018  51.354  1.00  0.00    -0.247 OA
HETATM   24  H   UNL     1      26.373  40.393  49.081  1.00  0.00     0.164 HD
HETATM   25  H   UNL     1      25.676  42.017  50.262  1.00  0.00     0.164 HD
BRANCH  22  26
HETATM   26  C   UNL     1      27.759  38.893  49.636  1.00  0.00     0.086 C 
HETATM   27  C   UNL     1      26.846  37.691  49.370  1.00  0.00     0.025 C 
HETATM   28  C   UNL     1      26.210  37.721  47.981  1.00  0.00     0.002 C 
HETATM   29  C   UNL     1      27.257  37.893  46.884  1.00  0.00     0.000 C 
HETATM   30  C   UNL     1      28.133  39.117  47.126  1.00  0.00     0.002 C 
HETATM   31  C   UNL     1      28.784  39.080  48.509  1.00  0.00     0.025 C 
ENDBRANCH  22  26
ENDBRANCH   5  20
TORSDOF 6
ENDMDL
MODEL 9
REMARK VINA RESULT:      -7.2     13.011     16.264
REMARK  6 active torsions:
REMARK  status: ('A' for Active; 'I' for Inactive)
REMARK    1  A    between atoms: C_2  and  N_3 
REMARK    2  A    between atoms: C_2  and  C_24 
REMARK       I    between atoms: N_3  and  C_4 
REMARK    3  A    between atoms: C_4  and  C_5 
REMARK    4  A    between atoms: C_5  and  N_6 
REMARK    5  A    between atoms: C_10  and  N_11 
REMARK       I    between atoms: N_11  and  C_12 
REMARK       I    between atoms: C_12  and  N_13 
REMARK    6  A    between atoms: N_13  and  C_14 
ROOT
HETATM    1  N   UNL     1      31.378  51.671  40.565  1.00  0.00    -0.063 N 
HETATM    2  H   UNL     1      30.727  50.874  40.472  1.00  0.00     0.280 HD
HETATM    3  C   UNL     1      32.754  51.148  40.231  1.00  0.00     0.237 C 
HETATM    4  C   UNL     1      33.367  50.353  41.369  1.00  0.00     0.053 C 
HETATM    5  C   UNL     1      33.248  50.999  42.748  1.00  0.00     0.089 C 
HETATM    6  C   UNL     1      31.817  51.450  43.019  1.00  0.00     0.053 C 
HETATM    7  C   UNL     1      31.216  52.299  41.919  1.00  0.00     0.237 C 
ENDROOT
BRANCH   1   8
HETATM    8  C   UNL     1      30.920  52.675  39.481  1.00  0.00     0.337 C 
BRANCH   8   9
HETATM    9  C   UNL     1      29.475  53.108  39.705  1.00  0.00     0.244 C 
HETATM   10  N   UNL     1      28.426  52.270  39.521  1.00  0.00    -0.351 N 
HETATM   11  H   UNL     1      27.541  52.749  39.656  1.00  0.00     0.163 HD
HETATM   12  O   UNL     1      29.260  54.262  40.094  1.00  0.00    -0.272 OA
BRANCH  10  13
HETATM   13  C   UNL     1      28.292  50.922  38.959  1.00  0.00     0.120 C 
HETATM   14  C   UNL     1      26.967  50.602  38.275  1.00  0.00     0.038 C 
BRANCH  13  15
HETATM   15  C   UNL     1      28.697  49.858  39.948  1.00  0.00     0.005 A 
HETATM   16  S   UNL     1      28.136  49.829  41.569  1.00  0.00    -0.104 SA
HETATM   17  C   UNL     1      28.989  48.394  41.922  1.00  0.00     0.050 A 
HETATM   18  C   UNL     1      29.678  47.925  40.829  1.00  0.00     0.008 A 
HETATM   19  C   UNL     1      29.511  48.768  39.693  1.00  0.00     0.017 A 
ENDBRANCH  13  15
ENDBRANCH  10  13
ENDBRANCH   8   9
ENDBRANCH   1   8
BRANCH   5  20
HETATM   20  N   UNL     1      34.267  52.002  43.056  1.00  0.00    -0.338 N 
HETATM   21  C   UNL     1      35.620  51.821  43.093  1.00  0.00     0.316 C 
HETATM   22  N   UNL     1      36.290  52.983  43.355  1.00  0.00    -0.339 N 
HETATM   23  O   UNL     1      36.172  50.748  42.894  1.00  0.00    -0.247 OA
HETATM   24  H   UNL     1      35.775  53.699  43.848  1.00  0.00     0.164 HD
HETATM   25  H   UNL     1      33.976  52.969  42.983  1.00  0.00     0.164 HD
BRANCH  22  26
HETATM   26  C   UNL     1      37.743  52.994  43.524  1.00  0.00     0.086 C 
HETATM   27  C   UNL     1      38.373  54.168  42.767  1.00  0.00     0.025 C 
HETATM   28  C   UNL     1      38.114  55.517  43.436  1.00  0.00     0.002 C 
HETATM   29  C   UNL     1      38.522  55.506  44.907  1.00  0.00     0.000 C 
HETATM   30  C   UNL     1      37.856  54.365  45.669  1.00  0.00     0.002 C 
HETATM   31  C   UNL     1      38.129  53.013  45.010  1.00  0.00     0.025 C 
ENDBRANCH  22  26
ENDBRANCH   5  20
TORSDOF 6
ENDMDL
MODEL 10
REMARK VINA RESULT:      -7.1      2.428      3.101
REMARK  6 active torsions:
REMARK  status: ('A' for Active; 'I' for Inactive)
REMARK    1  A    between atoms: C_2  and  N_3 
REMARK    2  A    between atoms: C_2  and  C_24 
REMARK       I    between atoms: N_3  and  C_4 
REMARK    3  A    between atoms: C_4  and  C_5 
REMARK    4  A    between atoms: C_5  and  N_6 
REMARK    5  A    between atoms: C_10  and  N_11 
REMARK       I    between atoms: N_11  and  C_12 
REMARK       I    between atoms: C_12  and  N_13 
REMARK    6  A    between atoms: N_13  and  C_14 
ROOT
HETATM    1  N   UNL     1      25.213  42.708  49.815  1.00  0.00    -0.063 N 
HETATM    2  H   UNL     1      25.025  41.694  49.757  1.00  0.00     0.280 HD
HETATM    3  C   UNL     1      24.339  43.249  50.921  1.00  0.00     0.237 C 
HETATM    4  C   UNL     1      22.893  43.414  50.493  1.00  0.00     0.053 C 
HETATM    5  C   UNL     1      22.692  44.086  49.136  1.00  0.00     0.089 C 
HETATM    6  C   UNL     1      23.575  43.444  48.071  1.00  0.00     0.053 C 
HETATM    7  C   UNL     1      25.034  43.332  48.461  1.00  0.00     0.237 C 
ENDROOT
BRANCH   1   8
HETATM    8  C   UNL     1      26.701  42.804  50.226  1.00  0.00     0.337 C 
BRANCH   8   9
HETATM    9  C   UNL     1      27.029  41.820  51.344  1.00  0.00     0.244 C 
HETATM   10  N   UNL     1      27.893  42.116  52.345  1.00  0.00    -0.351 N 
HETATM   11  H   UNL     1      28.034  41.320  52.960  1.00  0.00     0.163 HD
HETATM   12  O   UNL     1      26.463  40.721  51.346  1.00  0.00    -0.272 OA
BRANCH  10  13
HETATM   13  C   UNL     1      28.817  43.228  52.590  1.00  0.00     0.120 C 
HETATM   14  C   UNL     1      30.238  42.850  52.998  1.00  0.00     0.038 C 
BRANCH  13  15
HETATM   15  C   UNL     1      28.217  44.266  53.505  1.00  0.00     0.005 A 
HETATM   16  S   UNL     1      26.795  45.143  53.115  1.00  0.00    -0.104 SA
HETATM   17  C   UNL     1      26.818  45.993  54.595  1.00  0.00     0.050 A 
HETATM   18  C   UNL     1      27.874  45.611  55.389  1.00  0.00     0.008 A 
HETATM   19  C   UNL     1      28.680  44.618  54.762  1.00  0.00     0.017 A 
ENDBRANCH  13  15
ENDBRANCH  10  13
ENDBRANCH   8   9
ENDBRANCH   1   8
BRANCH   5  20
HETATM   20  N   UNL     1      22.732  45.548  49.153  1.00  0.00    -0.338 N 
HETATM   21  C   UNL     1      22.113  46.402  48.285  1.00  0.00     0.316 C 
HETATM   22  N   UNL     1      22.307  47.712  48.622  1.00  0.00    -0.339 N 
HETATM   23  O   UNL     1      21.444  46.038  47.328  1.00  0.00    -0.247 OA
HETATM   24  H   UNL     1      23.130  47.920  49.171  1.00  0.00     0.164 HD
HETATM   25  H   UNL     1      23.024  45.975  50.023  1.00  0.00     0.164 HD
BRANCH  22  26
HETATM   26  C   UNL     1      21.801  48.792  47.774  1.00  0.00     0.086 C 
HETATM   27  C   UNL     1      20.371  49.174  48.170  1.00  0.00     0.025 C 
HETATM   28  C   UNL     1      20.303  49.947  49.487  1.00  0.00     0.002 C 
HETATM   29  C   UNL     1      21.233  51.157  49.480  1.00  0.00     0.000 C 
HETATM   30  C   UNL     1      22.666  50.766  49.132  1.00  0.00     0.002 C 
HETATM   31  C   UNL     1      22.737  50.008  47.807  1.00  0.00     0.025 C 
ENDBRANCH  22  26
ENDBRANCH   5  20
TORSDOF 6
ENDMDL
