MODEL 1
REMARK VINA RESULT:      -9.9      0.000      0.000
REMARK  3 active torsions:
REMARK  status: ('A' for Active; 'I' for Inactive)
REMARK    1  A    between atoms: C_3  and  N_4 
REMARK       I    between atoms: N_7  and  C_8 
REMARK    2  A    between atoms: C_8  and  C_9 
REMARK    3  A    between atoms: C_23  and  O_24 
ROOT
HETATM    1  N   UNL     1      27.398  45.374  54.443  1.00  0.00    -0.278 NA
HETATM    2  C   UNL     1      26.848  44.298  53.577  1.00  0.00     0.115 C 
HETATM    3  C   UNL     1      25.543  44.759  52.903  1.00  0.00     0.141 C 
HETATM    4  N   UNL     1      25.734  46.024  52.180  1.00  0.00    -0.346 N 
HETATM    5  C   UNL     1      25.003  46.223  51.012  1.00  0.00     0.256 C 
HETATM    6  O   UNL     1      24.169  45.416  50.606  1.00  0.00    -0.267 OA
HETATM    7  C   UNL     1      26.305  47.092  53.017  1.00  0.00     0.141 C 
HETATM    8  C   UNL     1      27.617  46.641  53.688  1.00  0.00     0.115 C 
ENDROOT
BRANCH   5   9
HETATM    9  C   UNL     1      25.248  47.422  50.182  1.00  0.00     0.064 A 
HETATM   10  C   UNL     1      24.194  48.097  49.596  1.00  0.00     0.077 A 
HETATM   11  C   UNL     1      24.395  49.217  48.786  1.00  0.00     0.065 A 
HETATM   12  N   UNL     1      22.819  47.849  49.637  1.00  0.00    -0.330 N 
HETATM   13  N   UNL     1      23.151  49.660  48.340  1.00  0.00    -0.331 N 
HETATM   14  C   UNL     1      25.647  49.709  48.507  1.00  0.00     0.074 A 
HETATM   15  C   UNL     1      22.169  48.800  48.848  1.00  0.00     0.176 A 
HETATM   16  H   UNL     1      22.970  50.432  47.716  1.00  0.00     0.168 HD
HETATM   17  S   UNL     1      20.551  48.891  48.549  1.00  0.00    -0.041 SA
HETATM   18  C   UNL     1      26.719  49.010  49.059  1.00  0.00     0.119 A 
HETATM   19  F   UNL     1      27.966  49.426  48.804  1.00  0.00    -0.206 F 
HETATM   20  C   UNL     1      26.539  47.874  49.870  1.00  0.00     0.061 A 
HETATM   21  H   UNL     1      22.390  47.049  50.088  1.00  0.00     0.168 HD
ENDBRANCH   5   9
BRANCH   1  22
HETATM   22  C   UNL     1      28.571  45.024  55.161  1.00  0.00     0.044 A 
HETATM   23  C   UNL     1      29.447  43.994  54.801  1.00  0.00     0.026 A 
HETATM   24  C   UNL     1      30.606  43.748  55.548  1.00  0.00     0.002 A 
HETATM   25  C   UNL     1      30.911  44.531  56.663  1.00  0.00     0.003 A 
HETATM   26  C   UNL     1      30.051  45.558  57.044  1.00  0.00     0.038 A 
HETATM   27  C   UNL     1      28.900  45.784  56.301  1.00  0.00     0.087 A 
BRANCH  27  28
HETATM   28  O   UNL     1      28.033  46.763  56.711  1.00  0.00    -0.359 OA
HETATM   29  H   UNL     1      27.159  46.354  56.551  1.00  0.00     0.218 HD
ENDBRANCH  27  28
ENDBRANCH   1  22
TORSDOF 3
ENDMDL
MODEL 2
REMARK VINA RESULT:      -9.3      1.633      2.041
REMARK  3 active torsions:
REMARK  status: ('A' for Active; 'I' for Inactive)
REMARK    1  A    between atoms: C_3  and  N_4 
REMARK       I    between atoms: N_7  and  C_8 
REMARK    2  A    between atoms: C_8  and  C_9 
REMARK    3  A    between atoms: C_23  and  O_24 
ROOT
HETATM    1  N   UNL     1      26.546  44.618  52.581  1.00  0.00    -0.278 NA
HETATM    2  C   UNL     1      25.958  43.848  51.453  1.00  0.00     0.115 C 
HETATM    3  C   UNL     1      24.585  44.424  51.062  1.00  0.00     0.141 C 
HETATM    4  N   UNL     1      24.671  45.864  50.779  1.00  0.00    -0.346 N 
HETATM    5  C   UNL     1      23.835  46.386  49.795  1.00  0.00     0.256 C 
HETATM    6  O   UNL     1      22.996  45.704  49.209  1.00  0.00    -0.267 OA
HETATM    7  C   UNL     1      25.278  46.637  51.875  1.00  0.00     0.141 C 
HETATM    8  C   UNL     1      26.658  46.072  52.266  1.00  0.00     0.115 C 
ENDROOT
BRANCH   5   9
HETATM    9  C   UNL     1      23.968  47.801  49.386  1.00  0.00     0.064 A 
HETATM   10  C   UNL     1      22.849  48.600  49.251  1.00  0.00     0.077 A 
HETATM   11  C   UNL     1      22.940  49.932  48.841  1.00  0.00     0.065 A 
HETATM   12  N   UNL     1      21.495  48.310  49.443  1.00  0.00    -0.330 N 
HETATM   13  N   UNL     1      21.651  50.460  48.791  1.00  0.00    -0.331 N 
HETATM   14  C   UNL     1      24.139  50.527  48.532  1.00  0.00     0.074 A 
HETATM   15  C   UNL     1      20.746  49.450  49.142  1.00  0.00     0.176 A 
HETATM   16  H   UNL     1      21.388  51.390  48.502  1.00  0.00     0.168 HD
HETATM   17  S   UNL     1      19.105  49.586  49.174  1.00  0.00    -0.041 SA
HETATM   18  C   UNL     1      25.269  49.717  48.624  1.00  0.00     0.119 A 
HETATM   19  F   UNL     1      26.465  50.233  48.314  1.00  0.00    -0.206 F 
HETATM   20  C   UNL     1      25.199  48.370  49.026  1.00  0.00     0.061 A 
HETATM   21  H   UNL     1      21.127  47.392  49.666  1.00  0.00     0.168 HD
ENDBRANCH   5   9
BRANCH   1  22
HETATM   22  C   UNL     1      27.788  44.125  53.059  1.00  0.00     0.044 A 
HETATM   23  C   UNL     1      28.707  43.404  52.289  1.00  0.00     0.026 A 
HETATM   24  C   UNL     1      29.930  42.994  52.836  1.00  0.00     0.002 A 
HETATM   25  C   UNL     1      30.255  43.302  54.158  1.00  0.00     0.003 A 
HETATM   26  C   UNL     1      29.353  44.014  54.945  1.00  0.00     0.038 A 
HETATM   27  C   UNL     1      28.141  44.405  54.394  1.00  0.00     0.087 A 
BRANCH  27  28
HETATM   28  O   UNL     1      27.237  45.061  55.188  1.00  0.00    -0.359 OA
HETATM   29  H   UNL     1      26.425  44.527  55.073  1.00  0.00     0.218 HD
ENDBRANCH  27  28
ENDBRANCH   1  22
TORSDOF 3
ENDMDL
MODEL 3
REMARK VINA RESULT:      -9.0      5.829      7.135
REMARK  3 active torsions:
REMARK  status: ('A' for Active; 'I' for Inactive)
REMARK    1  A    between atoms: C_3  and  N_4 
REMARK       I    between atoms: N_7  and  C_8 
REMARK    2  A    between atoms: C_8  and  C_9 
REMARK    3  A    between atoms: C_23  and  O_24 
ROOT
HETATM    1  N   UNL     1      29.343  43.907  54.375  1.00  0.00    -0.278 NA
HETATM    2  C   UNL     1      27.907  43.530  54.461  1.00  0.00     0.115 C 
HETATM    3  C   UNL     1      27.322  43.300  53.055  1.00  0.00     0.141 C 
HETATM    4  N   UNL     1      28.119  42.323  52.299  1.00  0.00    -0.346 N 
HETATM    5  C   UNL     1      27.450  41.486  51.411  1.00  0.00     0.256 C 
HETATM    6  O   UNL     1      26.243  41.578  51.194  1.00  0.00    -0.267 OA
HETATM    7  C   UNL     1      29.549  42.668  52.229  1.00  0.00     0.141 C 
HETATM    8  C   UNL     1      30.144  42.891  53.633  1.00  0.00     0.115 C 
ENDROOT
BRANCH   5   9
HETATM    9  C   UNL     1      28.184  40.405  50.718  1.00  0.00     0.064 A 
HETATM   10  C   UNL     1      28.033  40.215  49.357  1.00  0.00     0.077 A 
HETATM   11  C   UNL     1      28.693  39.186  48.680  1.00  0.00     0.065 A 
HETATM   12  N   UNL     1      27.254  40.903  48.423  1.00  0.00    -0.330 N 
HETATM   13  N   UNL     1      28.329  39.249  47.336  1.00  0.00    -0.331 N 
HETATM   14  C   UNL     1      29.518  38.294  49.319  1.00  0.00     0.074 A 
HETATM   15  C   UNL     1      27.417  40.300  47.174  1.00  0.00     0.176 A 
HETATM   16  H   UNL     1      28.618  38.623  46.599  1.00  0.00     0.168 HD
HETATM   17  S   UNL     1      26.668  40.727  45.770  1.00  0.00    -0.041 SA
HETATM   18  C   UNL     1      29.644  38.452  50.698  1.00  0.00     0.119 A 
HETATM   19  F   UNL     1      30.417  37.598  51.382  1.00  0.00    -0.206 F 
HETATM   20  C   UNL     1      28.981  39.475  51.402  1.00  0.00     0.061 A 
HETATM   21  H   UNL     1      26.607  41.649  48.649  1.00  0.00     0.168 HD
ENDBRANCH   5   9
BRANCH   1  22
HETATM   22  C   UNL     1      29.960  44.203  55.618  1.00  0.00     0.044 A 
HETATM   23  C   UNL     1      30.858  43.360  56.281  1.00  0.00     0.026 A 
HETATM   24  C   UNL     1      31.452  43.756  57.486  1.00  0.00     0.002 A 
HETATM   25  C   UNL     1      31.161  45.002  58.045  1.00  0.00     0.003 A 
HETATM   26  C   UNL     1      30.266  45.856  57.406  1.00  0.00     0.038 A 
HETATM   27  C   UNL     1      29.677  45.446  56.217  1.00  0.00     0.087 A 
BRANCH  27  28
HETATM   28  O   UNL     1      28.758  46.270  55.619  1.00  0.00    -0.359 OA
HETATM   29  H   UNL     1      29.289  46.712  54.925  1.00  0.00     0.218 HD
ENDBRANCH  27  28
ENDBRANCH   1  22
TORSDOF 3
ENDMDL
MODEL 4
REMARK VINA RESULT:      -8.9      4.193      4.965
REMARK  3 active torsions:
REMARK  status: ('A' for Active; 'I' for Inactive)
REMARK    1  A    between atoms: C_3  and  N_4 
REMARK       I    between atoms: N_7  and  C_8 
REMARK    2  A    between atoms: C_8  and  C_9 
REMARK    3  A    between atoms: C_23  and  O_24 
ROOT
HETATM    1  N   UNL     1      28.112  44.473  53.750  1.00  0.00    -0.278 NA
HETATM    2  C   UNL     1      26.729  44.253  54.249  1.00  0.00     0.115 C 
HETATM    3  C   UNL     1      25.704  44.481  53.123  1.00  0.00     0.141 C 
HETATM    4  N   UNL     1      26.015  43.661  51.944  1.00  0.00    -0.346 N 
HETATM    5  C   UNL     1      24.951  43.177  51.188  1.00  0.00     0.256 C 
HETATM    6  O   UNL     1      23.780  43.463  51.432  1.00  0.00    -0.267 OA
HETATM    7  C   UNL     1      27.391  43.845  51.454  1.00  0.00     0.141 C 
HETATM    8  C   UNL     1      28.424  43.610  52.574  1.00  0.00     0.115 C 
ENDROOT
BRANCH   5   9
HETATM    9  C   UNL     1      25.203  42.248  50.065  1.00  0.00     0.064 A 
HETATM   10  C   UNL     1      24.678  42.502  48.813  1.00  0.00     0.077 A 
HETATM   11  C   UNL     1      24.877  41.629  47.740  1.00  0.00     0.065 A 
HETATM   12  N   UNL     1      23.885  43.557  48.355  1.00  0.00    -0.330 N 
HETATM   13  N   UNL     1      24.219  42.151  46.628  1.00  0.00    -0.331 N 
HETATM   14  C   UNL     1      25.591  40.462  47.862  1.00  0.00     0.074 A 
HETATM   15  C   UNL     1      23.581  43.338  47.009  1.00  0.00     0.176 A 
HETATM   16  H   UNL     1      24.155  41.735  45.711  1.00  0.00     0.168 HD
HETATM   17  S   UNL     1      22.636  44.284  46.048  1.00  0.00    -0.041 SA
HETATM   18  C   UNL     1      26.090  40.176  49.132  1.00  0.00     0.119 A 
HETATM   19  F   UNL     1      26.774  39.041  49.322  1.00  0.00    -0.206 F 
HETATM   20  C   UNL     1      25.892  41.037  50.229  1.00  0.00     0.061 A 
HETATM   21  H   UNL     1      23.517  44.299  48.940  1.00  0.00     0.168 HD
ENDBRANCH   5   9
BRANCH   1  22
HETATM   22  C   UNL     1      29.130  44.349  54.730  1.00  0.00     0.044 A 
HETATM   23  C   UNL     1      29.909  43.203  54.928  1.00  0.00     0.026 A 
HETATM   24  C   UNL     1      30.922  43.187  55.895  1.00  0.00     0.002 A 
HETATM   25  C   UNL     1      31.176  44.317  56.675  1.00  0.00     0.003 A 
HETATM   26  C   UNL     1      30.410  45.466  56.500  1.00  0.00     0.038 A 
HETATM   27  C   UNL     1      29.402  45.465  55.546  1.00  0.00     0.087 A 
BRANCH  27  28
HETATM   28  O   UNL     1      28.619  46.582  55.413  1.00  0.00    -0.359 OA
HETATM   29  H   UNL     1      28.055  46.543  56.212  1.00  0.00     0.218 HD
ENDBRANCH  27  28
ENDBRANCH   1  22
TORSDOF 3
ENDMDL
MODEL 5
REMARK VINA RESULT:      -8.8      3.707      7.963
REMARK  3 active torsions:
REMARK  status: ('A' for Active; 'I' for Inactive)
REMARK    1  A    between atoms: C_3  and  N_4 
REMARK       I    between atoms: N_7  and  C_8 
REMARK    2  A    between atoms: C_8  and  C_9 
REMARK    3  A    between atoms: C_23  and  O_24 
ROOT
HETATM    1  N   UNL     1      25.331  46.896  50.381  1.00  0.00    -0.278 NA
HETATM    2  C   UNL     1      24.974  47.135  51.805  1.00  0.00     0.115 C 
HETATM    3  C   UNL     1      24.894  45.804  52.574  1.00  0.00     0.141 C 
HETATM    4  N   UNL     1      26.132  45.026  52.425  1.00  0.00    -0.346 N 
HETATM    5  C   UNL     1      26.546  44.248  53.503  1.00  0.00     0.256 C 
HETATM    6  O   UNL     1      25.886  44.141  54.535  1.00  0.00    -0.267 OA
HETATM    7  C   UNL     1      26.515  44.805  51.021  1.00  0.00     0.141 C 
HETATM    8  C   UNL     1      26.606  46.135  50.246  1.00  0.00     0.115 C 
ENDROOT
BRANCH   5   9
HETATM    9  C   UNL     1      27.845  43.544  53.451  1.00  0.00     0.064 A 
HETATM   10  C   UNL     1      28.013  42.440  52.637  1.00  0.00     0.077 A 
HETATM   11  C   UNL     1      29.221  41.740  52.586  1.00  0.00     0.065 A 
HETATM   12  N   UNL     1      27.119  41.800  51.775  1.00  0.00    -0.330 N 
HETATM   13  N   UNL     1      29.072  40.682  51.691  1.00  0.00    -0.331 N 
HETATM   14  C   UNL     1      30.309  42.090  53.348  1.00  0.00     0.074 A 
HETATM   15  C   UNL     1      27.760  40.700  51.200  1.00  0.00     0.176 A 
HETATM   16  H   UNL     1      29.759  39.979  51.462  1.00  0.00     0.168 HD
HETATM   17  S   UNL     1      27.099  39.613  50.154  1.00  0.00    -0.041 SA
HETATM   18  C   UNL     1      30.136  43.176  54.204  1.00  0.00     0.119 A 
HETATM   19  F   UNL     1      31.152  43.553  54.991  1.00  0.00    -0.206 F 
HETATM   20  C   UNL     1      28.924  43.891  54.278  1.00  0.00     0.061 A 
HETATM   21  H   UNL     1      26.141  42.047  51.672  1.00  0.00     0.168 HD
ENDBRANCH   5   9
BRANCH   1  22
HETATM   22  C   UNL     1      25.368  48.059  49.569  1.00  0.00     0.044 A 
HETATM   23  C   UNL     1      26.539  48.690  49.136  1.00  0.00     0.026 A 
HETATM   24  C   UNL     1      26.478  49.811  48.299  1.00  0.00     0.002 A 
HETATM   25  C   UNL     1      25.247  50.317  47.879  1.00  0.00     0.003 A 
HETATM   26  C   UNL     1      24.068  49.710  48.302  1.00  0.00     0.038 A 
HETATM   27  C   UNL     1      24.142  48.605  49.140  1.00  0.00     0.087 A 
BRANCH  27  28
HETATM   28  O   UNL     1      22.977  48.043  49.594  1.00  0.00    -0.359 OA
HETATM   29  H   UNL     1      23.275  47.541  50.380  1.00  0.00     0.218 HD
ENDBRANCH  27  28
ENDBRANCH   1  22
TORSDOF 3
ENDMDL
MODEL 6
REMARK VINA RESULT:      -8.7      3.995      8.465
REMARK  3 active torsions:
REMARK  status: ('A' for Active; 'I' for Inactive)
REMARK    1  A    between atoms: C_3  and  N_4 
REMARK       I    between atoms: N_7  and  C_8 
REMARK    2  A    between atoms: C_8  and  C_9 
REMARK    3  A    between atoms: C_23  and  O_24 
ROOT
HETATM    1  N   UNL     1      23.657  49.221  49.522  1.00  0.00    -0.278 NA
HETATM    2  C   UNL     1      24.839  49.227  48.620  1.00  0.00     0.115 C 
HETATM    3  C   UNL     1      26.024  48.493  49.273  1.00  0.00     0.141 C 
HETATM    4  N   UNL     1      25.645  47.138  49.697  1.00  0.00    -0.346 N 
HETATM    5  C   UNL     1      26.611  46.139  49.626  1.00  0.00     0.256 C 
HETATM    6  O   UNL     1      27.772  46.363  49.287  1.00  0.00    -0.267 OA
HETATM    7  C   UNL     1      24.458  47.111  50.569  1.00  0.00     0.141 C 
HETATM    8  C   UNL     1      23.264  47.837  49.917  1.00  0.00     0.115 C 
ENDROOT
BRANCH   5   9
HETATM    9  C   UNL     1      26.248  44.736  49.922  1.00  0.00     0.064 A 
HETATM   10  C   UNL     1      26.739  44.108  51.052  1.00  0.00     0.077 A 
HETATM   11  C   UNL     1      26.435  42.777  51.344  1.00  0.00     0.065 A 
HETATM   12  N   UNL     1      27.586  44.579  52.060  1.00  0.00    -0.330 N 
HETATM   13  N   UNL     1      27.083  42.434  52.531  1.00  0.00    -0.331 N 
HETATM   14  C   UNL     1      25.646  42.004  50.528  1.00  0.00     0.074 A 
HETATM   15  C   UNL     1      27.818  43.544  52.968  1.00  0.00     0.176 A 
HETATM   16  H   UNL     1      27.080  41.533  52.984  1.00  0.00     0.168 HD
HETATM   17  S   UNL     1      28.788  43.601  54.298  1.00  0.00    -0.041 SA
HETATM   18  C   UNL     1      25.181  42.616  49.365  1.00  0.00     0.119 A 
HETATM   19  F   UNL     1      24.426  41.908  48.515  1.00  0.00    -0.206 F 
HETATM   20  C   UNL     1      25.483  43.953  49.045  1.00  0.00     0.061 A 
HETATM   21  H   UNL     1      28.028  45.490  52.062  1.00  0.00     0.168 HD
ENDBRANCH   5   9
BRANCH   1  22
HETATM   22  C   UNL     1      22.528  49.929  49.036  1.00  0.00     0.044 A 
HETATM   23  C   UNL     1      22.054  49.865  47.720  1.00  0.00     0.026 A 
HETATM   24  C   UNL     1      20.904  50.567  47.341  1.00  0.00     0.002 A 
HETATM   25  C   UNL     1      20.206  51.341  48.271  1.00  0.00     0.003 A 
HETATM   26  C   UNL     1      20.662  51.425  49.583  1.00  0.00     0.038 A 
HETATM   27  C   UNL     1      21.810  50.732  49.943  1.00  0.00     0.087 A 
BRANCH  27  28
HETATM   28  O   UNL     1      22.282  50.858  51.224  1.00  0.00    -0.359 OA
HETATM   29  H   UNL     1      22.653  51.764  51.226  1.00  0.00     0.218 HD
ENDBRANCH  27  28
ENDBRANCH   1  22
TORSDOF 3
ENDMDL
MODEL 7
REMARK VINA RESULT:      -8.7      4.130      7.957
REMARK  3 active torsions:
REMARK  status: ('A' for Active; 'I' for Inactive)
REMARK    1  A    between atoms: C_3  and  N_4 
REMARK       I    between atoms: N_7  and  C_8 
REMARK    2  A    between atoms: C_8  and  C_9 
REMARK    3  A    between atoms: C_23  and  O_24 
ROOT
HETATM    1  N   UNL     1      23.689  49.371  49.436  1.00  0.00    -0.278 NA
HETATM    2  C   UNL     1      24.793  49.356  48.440  1.00  0.00     0.115 C 
HETATM    3  C   UNL     1      26.066  48.742  49.051  1.00  0.00     0.141 C 
HETATM    4  N   UNL     1      25.798  47.412  49.618  1.00  0.00    -0.346 N 
HETATM    5  C   UNL     1      26.810  46.459  49.549  1.00  0.00     0.256 C 
HETATM    6  O   UNL     1      27.926  46.709  49.096  1.00  0.00    -0.267 OA
HETATM    7  C   UNL     1      24.688  47.404  50.585  1.00  0.00     0.141 C 
HETATM    8  C   UNL     1      23.407  48.010  49.978  1.00  0.00     0.115 C 
ENDROOT
BRANCH   5   9
HETATM    9  C   UNL     1      26.552  45.072  49.991  1.00  0.00     0.064 A 
HETATM   10  C   UNL     1      25.560  44.318  49.392  1.00  0.00     0.077 A 
HETATM   11  C   UNL     1      25.275  43.015  49.806  1.00  0.00     0.065 A 
HETATM   12  N   UNL     1      24.674  44.635  48.358  1.00  0.00    -0.330 N 
HETATM   13  N   UNL     1      24.228  42.531  49.023  1.00  0.00    -0.331 N 
HETATM   14  C   UNL     1      25.947  42.405  50.837  1.00  0.00     0.074 A 
HETATM   15  C   UNL     1      23.835  43.542  48.137  1.00  0.00     0.176 A 
HETATM   16  H   UNL     1      23.778  41.630  49.102  1.00  0.00     0.168 HD
HETATM   17  S   UNL     1      22.599  43.454  47.052  1.00  0.00    -0.041 SA
HETATM   18  C   UNL     1      26.920  43.172  51.475  1.00  0.00     0.119 A 
HETATM   19  F   UNL     1      27.594  42.642  52.504  1.00  0.00    -0.206 F 
HETATM   20  C   UNL     1      27.217  44.491  51.082  1.00  0.00     0.061 A 
HETATM   21  H   UNL     1      24.601  45.547  47.921  1.00  0.00     0.168 HD
ENDBRANCH   5   9
BRANCH   1  22
HETATM   22  C   UNL     1      22.487  49.977  48.989  1.00  0.00     0.044 A 
HETATM   23  C   UNL     1      21.950  49.828  47.706  1.00  0.00     0.026 A 
HETATM   24  C   UNL     1      20.732  50.431  47.367  1.00  0.00     0.002 A 
HETATM   25  C   UNL     1      20.030  51.189  48.306  1.00  0.00     0.003 A 
HETATM   26  C   UNL     1      20.548  51.357  49.588  1.00  0.00     0.038 A 
HETATM   27  C   UNL     1      21.761  50.762  49.907  1.00  0.00     0.087 A 
BRANCH  27  28
HETATM   28  O   UNL     1      22.289  50.972  51.154  1.00  0.00    -0.359 OA
HETATM   29  H   UNL     1      22.045  50.152  51.630  1.00  0.00     0.218 HD
ENDBRANCH  27  28
ENDBRANCH   1  22
TORSDOF 3
ENDMDL
MODEL 8
REMARK VINA RESULT:      -8.5      3.390      4.790
REMARK  3 active torsions:
REMARK  status: ('A' for Active; 'I' for Inactive)
REMARK    1  A    between atoms: C_3  and  N_4 
REMARK       I    between atoms: N_7  and  C_8 
REMARK    2  A    between atoms: C_8  and  C_9 
REMARK    3  A    between atoms: C_23  and  O_24 
ROOT
HETATM    1  N   UNL     1      26.833  42.805  50.587  1.00  0.00    -0.278 NA
HETATM    2  C   UNL     1      25.760  43.132  51.563  1.00  0.00     0.115 C 
HETATM    3  C   UNL     1      25.976  44.537  52.156  1.00  0.00     0.141 C 
HETATM    4  N   UNL     1      26.106  45.549  51.097  1.00  0.00    -0.346 N 
HETATM    5  C   UNL     1      25.607  46.823  51.351  1.00  0.00     0.256 C 
HETATM    6  O   UNL     1      25.127  47.144  52.437  1.00  0.00    -0.267 OA
HETATM    7  C   UNL     1      27.145  45.225  50.106  1.00  0.00     0.141 C 
HETATM    8  C   UNL     1      26.930  43.823  49.502  1.00  0.00     0.115 C 
ENDROOT
BRANCH   5   9
HETATM    9  C   UNL     1      25.600  47.842  50.279  1.00  0.00     0.064 A 
HETATM   10  C   UNL     1      24.427  48.155  49.617  1.00  0.00     0.077 A 
HETATM   11  C   UNL     1      24.394  49.094  48.582  1.00  0.00     0.065 A 
HETATM   12  N   UNL     1      23.131  47.657  49.775  1.00  0.00    -0.330 N 
HETATM   13  N   UNL     1      23.084  49.178  48.115  1.00  0.00    -0.331 N 
HETATM   14  C   UNL     1      25.519  49.751  48.147  1.00  0.00     0.074 A 
HETATM   15  C   UNL     1      22.298  48.270  48.837  1.00  0.00     0.176 A 
HETATM   16  H   UNL     1      22.747  49.747  47.353  1.00  0.00     0.168 HD
HETATM   17  S   UNL     1      20.695  47.976  48.604  1.00  0.00    -0.041 SA
HETATM   18  C   UNL     1      26.713  49.411  48.780  1.00  0.00     0.119 A 
HETATM   19  F   UNL     1      27.849  50.000  48.385  1.00  0.00    -0.206 F 
HETATM   20  C   UNL     1      26.771  48.461  49.818  1.00  0.00     0.061 A 
HETATM   21  H   UNL     1      22.876  46.903  50.402  1.00  0.00     0.168 HD
ENDBRANCH   5   9
BRANCH   1  22
HETATM   22  C   UNL     1      26.758  41.502  50.030  1.00  0.00     0.044 A 
HETATM   23  C   UNL     1      25.734  41.054  49.188  1.00  0.00     0.026 A 
HETATM   24  C   UNL     1      25.766  39.762  48.650  1.00  0.00     0.002 A 
HETATM   25  C   UNL     1      26.825  38.899  48.940  1.00  0.00     0.003 A 
HETATM   26  C   UNL     1      27.853  39.321  49.779  1.00  0.00     0.038 A 
HETATM   27  C   UNL     1      27.802  40.601  50.314  1.00  0.00     0.087 A 
BRANCH  27  28
HETATM   28  O   UNL     1      28.791  40.992  51.180  1.00  0.00    -0.359 OA
HETATM   29  H   UNL     1      29.405  41.481  50.595  1.00  0.00     0.218 HD
ENDBRANCH  27  28
ENDBRANCH   1  22
TORSDOF 3
ENDMDL
MODEL 9
REMARK VINA RESULT:      -8.2      5.579      8.517
REMARK  3 active torsions:
REMARK  status: ('A' for Active; 'I' for Inactive)
REMARK    1  A    between atoms: C_3  and  N_4 
REMARK       I    between atoms: N_7  and  C_8 
REMARK    2  A    between atoms: C_8  and  C_9 
REMARK    3  A    between atoms: C_23  and  O_24 
ROOT
HETATM    1  N   UNL     1      22.832  49.227  48.994  1.00  0.00    -0.278 NA
HETATM    2  C   UNL     1      22.156  47.955  48.625  1.00  0.00     0.115 C 
HETATM    3  C   UNL     1      20.637  48.064  48.850  1.00  0.00     0.141 C 
HETATM    4  N   UNL     1      20.075  49.227  48.148  1.00  0.00    -0.346 N 
HETATM    5  C   UNL     1      18.785  49.118  47.636  1.00  0.00     0.256 C 
HETATM    6  O   UNL     1      18.087  48.120  47.805  1.00  0.00    -0.267 OA
HETATM    7  C   UNL     1      20.753  50.491  48.480  1.00  0.00     0.141 C 
HETATM    8  C   UNL     1      22.274  50.392  48.249  1.00  0.00     0.115 C 
ENDROOT
BRANCH   5   9
HETATM    9  C   UNL     1      18.221  50.211  46.815  1.00  0.00     0.064 A 
HETATM   10  C   UNL     1      17.309  51.096  47.358  1.00  0.00     0.077 A 
HETATM   11  C   UNL     1      16.739  52.123  46.601  1.00  0.00     0.065 A 
HETATM   12  N   UNL     1      16.767  51.171  48.645  1.00  0.00    -0.330 N 
HETATM   13  N   UNL     1      15.860  52.829  47.421  1.00  0.00    -0.331 N 
HETATM   14  C   UNL     1      17.032  52.309  45.273  1.00  0.00     0.074 A 
HETATM   15  C   UNL     1      15.856  52.228  48.686  1.00  0.00     0.176 A 
HETATM   16  H   UNL     1      15.276  53.608  47.155  1.00  0.00     0.168 HD
HETATM   17  S   UNL     1      14.932  52.680  49.972  1.00  0.00    -0.041 SA
HETATM   18  C   UNL     1      17.919  51.395  44.705  1.00  0.00     0.119 A 
HETATM   19  F   UNL     1      18.227  51.510  43.407  1.00  0.00    -0.206 F 
HETATM   20  C   UNL     1      18.497  50.348  45.447  1.00  0.00     0.061 A 
HETATM   21  H   UNL     1      16.942  50.500  49.384  1.00  0.00     0.168 HD
ENDBRANCH   5   9
BRANCH   1  22
HETATM   22  C   UNL     1      24.247  49.208  48.882  1.00  0.00     0.044 A 
HETATM   23  C   UNL     1      24.984  49.980  47.978  1.00  0.00     0.026 A 
HETATM   24  C   UNL     1      26.383  49.927  47.968  1.00  0.00     0.002 A 
HETATM   25  C   UNL     1      27.068  49.104  48.865  1.00  0.00     0.003 A 
HETATM   26  C   UNL     1      26.356  48.322  49.770  1.00  0.00     0.038 A 
HETATM   27  C   UNL     1      24.968  48.377  49.761  1.00  0.00     0.087 A 
BRANCH  27  28
HETATM   28  O   UNL     1      24.272  47.567  50.620  1.00  0.00    -0.359 OA
HETATM   29  H   UNL     1      24.203  48.119  51.426  1.00  0.00     0.218 HD
ENDBRANCH  27  28
ENDBRANCH   1  22
TORSDOF 3
ENDMDL
MODEL 10
REMARK VINA RESULT:      -8.2      2.056      2.487
REMARK  3 active torsions:
REMARK  status: ('A' for Active; 'I' for Inactive)
REMARK    1  A    between atoms: C_3  and  N_4 
REMARK       I    between atoms: N_7  and  C_8 
REMARK    2  A    between atoms: C_8  and  C_9 
REMARK    3  A    between atoms: C_23  and  O_24 
ROOT
HETATM    1  N   UNL     1      27.139  44.564  53.204  1.00  0.00    -0.278 NA
HETATM    2  C   UNL     1      27.537  43.964  51.904  1.00  0.00     0.115 C 
HETATM    3  C   UNL     1      26.308  43.772  50.996  1.00  0.00     0.141 C 
HETATM    4  N   UNL     1      25.564  45.030  50.833  1.00  0.00    -0.346 N 
HETATM    5  C   UNL     1      24.940  45.263  49.611  1.00  0.00     0.256 C 
HETATM    6  O   UNL     1      24.936  44.436  48.700  1.00  0.00    -0.267 OA
HETATM    7  C   UNL     1      25.187  45.653  52.112  1.00  0.00     0.141 C 
HETATM    8  C   UNL     1      26.414  45.855  53.024  1.00  0.00     0.115 C 
ENDROOT
BRANCH   5   9
HETATM    9  C   UNL     1      24.284  46.563  49.352  1.00  0.00     0.064 A 
HETATM   10  C   UNL     1      22.941  46.619  49.030  1.00  0.00     0.077 A 
HETATM   11  C   UNL     1      22.300  47.829  48.755  1.00  0.00     0.065 A 
HETATM   12  N   UNL     1      21.995  45.599  48.890  1.00  0.00    -0.330 N 
HETATM   13  N   UNL     1      20.966  47.555  48.457  1.00  0.00    -0.331 N 
HETATM   14  C   UNL     1      22.960  49.033  48.770  1.00  0.00     0.074 A 
HETATM   15  C   UNL     1      20.775  46.169  48.517  1.00  0.00     0.176 A 
HETATM   16  H   UNL     1      20.256  48.220  48.189  1.00  0.00     0.168 HD
HETATM   17  S   UNL     1      19.375  45.366  48.189  1.00  0.00    -0.041 SA
HETATM   18  C   UNL     1      24.324  48.982  49.052  1.00  0.00     0.119 A 
HETATM   19  F   UNL     1      25.029  50.121  49.059  1.00  0.00    -0.206 F 
HETATM   20  C   UNL     1      24.992  47.773  49.323  1.00  0.00     0.061 A 
HETATM   21  H   UNL     1      22.201  44.609  48.954  1.00  0.00     0.168 HD
ENDBRANCH   5   9
BRANCH   1  22
HETATM   22  C   UNL     1      28.194  44.723  54.139  1.00  0.00     0.044 A 
HETATM   23  C   UNL     1      28.471  45.906  54.833  1.00  0.00     0.026 A 
HETATM   24  C   UNL     1      29.509  45.957  55.771  1.00  0.00     0.002 A 
HETATM   25  C   UNL     1      30.285  44.826  56.034  1.00  0.00     0.003 A 
HETATM   26  C   UNL     1      30.031  43.639  55.352  1.00  0.00     0.038 A 
HETATM   27  C   UNL     1      29.005  43.606  54.417  1.00  0.00     0.087 A 
BRANCH  27  28
HETATM   28  O   UNL     1      28.794  42.449  53.712  1.00  0.00    -0.359 OA
HETATM   29  H   UNL     1      29.510  42.472  53.045  1.00  0.00     0.218 HD
ENDBRANCH  27  28
ENDBRANCH   1  22
TORSDOF 3
ENDMDL
