MODEL 1
REMARK VINA RESULT:      -8.6      0.000      0.000
REMARK  4 active torsions:
REMARK  status: ('A' for Active; 'I' for Inactive)
REMARK    1  A    between atoms: C_6  and  C_7 
REMARK    2  A    between atoms: C_8  and  C_9 
REMARK       I    between atoms: C_9  and  N_10 
REMARK    3  A    between atoms: N_10  and  C_11 
REMARK    4  A    between atoms: C_18  and  C_19 
REMARK       I    between atoms: C_19  and  N_20 
ROOT
HETATM    1  C   UNL     1      22.615  48.920  49.192  1.00  0.00     0.035 A 
HETATM    2  C   UNL     1      23.694  48.080  49.501  1.00  0.00     0.046 A 
HETATM    3  C   UNL     1      25.005  48.467  49.143  1.00  0.00     0.030 A 
HETATM    4  C   UNL     1      25.190  49.674  48.483  1.00  0.00     0.063 A 
HETATM    5  N   UNL     1      26.537  49.769  48.271  1.00  0.00    -0.277 N 
HETATM    6  H   UNL     1      27.034  50.523  47.812  1.00  0.00     0.189 HD
HETATM    7  N   UNL     1      27.250  48.734  48.745  1.00  0.00    -0.168 NA
HETATM    8  C   UNL     1      26.317  47.920  49.289  1.00  0.00     0.156 A 
HETATM    9  C   UNL     1      24.140  50.534  48.156  1.00  0.00     0.034 A 
HETATM   10  C   UNL     1      22.851  50.132  48.530  1.00  0.00     0.032 A 
ENDROOT
BRANCH   1  11
HETATM   11  N   UNL     1      21.276  48.634  49.536  1.00  0.00    -0.327 N 
HETATM   12  C   UNL     1      20.362  47.901  48.812  1.00  0.00     0.227 C 
HETATM   13  O   UNL     1      20.518  47.448  47.687  1.00  0.00    -0.273 OA
HETATM   14  H   UNL     1      20.937  49.072  50.379  1.00  0.00     0.169 HD
BRANCH  12  15
HETATM   15  C   UNL     1      19.046  47.647  49.471  1.00  0.00     0.087 A 
HETATM   16  C   UNL     1      17.914  48.657  49.422  1.00  0.00     0.032 A 
HETATM   17  C   UNL     1      18.543  48.272  50.742  1.00  0.00     0.025 A 
BRANCH  16  18
HETATM   18  C   UNL     1      18.086  50.063  48.898  1.00  0.00    -0.051 A 
HETATM   19  C   UNL     1      17.808  50.379  47.557  1.00  0.00     0.031 A 
HETATM   20  C   UNL     1      17.988  51.673  47.066  1.00  0.00     0.034 A 
HETATM   21  C   UNL     1      18.459  52.684  47.896  1.00  0.00     0.024 A 
HETATM   22 CL   UNL     1      17.626  52.016  45.418  1.00  0.00    -0.084 Cl
HETATM   23  C   UNL     1      18.755  52.394  49.225  1.00  0.00     0.002 A 
HETATM   24  C   UNL     1      18.578  51.097  49.714  1.00  0.00     0.007 A 
ENDBRANCH  16  18
ENDBRANCH  12  15
ENDBRANCH   1  11
BRANCH   8  25
HETATM   25  C   UNL     1      26.696  46.657  49.938  1.00  0.00     0.270 C 
HETATM   26  N   UNL     1      26.291  46.555  51.241  1.00  0.00    -0.365 N 
HETATM   27  H   UNL     1      25.770  47.322  51.648  1.00  0.00     0.159 HD
HETATM   28  H   UNL     1      26.496  45.718  51.763  1.00  0.00     0.159 HD
HETATM   29  O   UNL     1      27.315  45.749  49.394  1.00  0.00    -0.266 OA
ENDBRANCH   8  25
TORSDOF 4
ENDMDL
MODEL 2
REMARK VINA RESULT:      -8.5      7.194      9.896
REMARK  4 active torsions:
REMARK  status: ('A' for Active; 'I' for Inactive)
REMARK    1  A    between atoms: C_6  and  C_7 
REMARK    2  A    between atoms: C_8  and  C_9 
REMARK       I    between atoms: C_9  and  N_10 
REMARK    3  A    between atoms: N_10  and  C_11 
REMARK    4  A    between atoms: C_18  and  C_19 
REMARK       I    between atoms: C_19  and  N_20 
ROOT
HETATM    1  C   UNL     1      29.253  43.238  53.247  1.00  0.00     0.035 A 
HETATM    2  C   UNL     1      28.399  44.287  53.615  1.00  0.00     0.046 A 
HETATM    3  C   UNL     1      28.657  45.015  54.798  1.00  0.00     0.030 A 
HETATM    4  C   UNL     1      29.754  44.664  55.574  1.00  0.00     0.063 A 
HETATM    5  N   UNL     1      29.741  45.528  56.633  1.00  0.00    -0.277 N 
HETATM    6  H   UNL     1      30.397  45.564  57.404  1.00  0.00     0.189 HD
HETATM    7  N   UNL     1      28.738  46.421  56.611  1.00  0.00    -0.168 NA
HETATM    8  C   UNL     1      28.059  46.118  55.481  1.00  0.00     0.156 A 
HETATM    9  C   UNL     1      30.624  43.624  55.240  1.00  0.00     0.034 A 
HETATM   10  C   UNL     1      30.351  42.924  54.058  1.00  0.00     0.032 A 
ENDROOT
BRANCH   1  11
HETATM   11  N   UNL     1      29.095  42.476  52.069  1.00  0.00    -0.327 N 
HETATM   12  C   UNL     1      28.292  41.371  51.887  1.00  0.00     0.227 C 
HETATM   13  O   UNL     1      27.646  40.790  52.746  1.00  0.00    -0.273 OA
HETATM   14  H   UNL     1      29.686  42.736  51.295  1.00  0.00     0.169 HD
BRANCH  12  15
HETATM   15  C   UNL     1      28.217  40.830  50.497  1.00  0.00     0.087 A 
HETATM   16  C   UNL     1      27.323  41.451  49.439  1.00  0.00     0.032 A 
HETATM   17  C   UNL     1      27.091  40.031  49.904  1.00  0.00     0.025 A 
BRANCH  16  18
HETATM   18  C   UNL     1      26.294  42.513  49.750  1.00  0.00    -0.051 A 
HETATM   19  C   UNL     1      26.595  43.879  49.613  1.00  0.00     0.031 A 
HETATM   20  C   UNL     1      25.653  44.862  49.921  1.00  0.00     0.034 A 
HETATM   21  C   UNL     1      24.389  44.509  50.382  1.00  0.00     0.024 A 
HETATM   22 CL   UNL     1      26.062  46.523  49.730  1.00  0.00    -0.084 Cl
HETATM   23  C   UNL     1      24.072  43.163  50.540  1.00  0.00     0.002 A 
HETATM   24  C   UNL     1      25.017  42.180  50.234  1.00  0.00     0.007 A 
ENDBRANCH  16  18
ENDBRANCH  12  15
ENDBRANCH   1  11
BRANCH   8  25
HETATM   25  C   UNL     1      26.872  46.886  55.079  1.00  0.00     0.270 C 
HETATM   26  N   UNL     1      27.005  48.239  55.233  1.00  0.00    -0.365 N 
HETATM   27  H   UNL     1      27.880  48.603  55.589  1.00  0.00     0.159 HD
HETATM   28  H   UNL     1      26.246  48.848  54.972  1.00  0.00     0.159 HD
HETATM   29  O   UNL     1      25.838  46.397  54.637  1.00  0.00    -0.266 OA
ENDBRANCH   8  25
TORSDOF 4
ENDMDL
MODEL 3
REMARK VINA RESULT:      -8.3      6.535      9.456
REMARK  4 active torsions:
REMARK  status: ('A' for Active; 'I' for Inactive)
REMARK    1  A    between atoms: C_6  and  C_7 
REMARK    2  A    between atoms: C_8  and  C_9 
REMARK       I    between atoms: C_9  and  N_10 
REMARK    3  A    between atoms: N_10  and  C_11 
REMARK    4  A    between atoms: C_18  and  C_19 
REMARK       I    between atoms: C_19  and  N_20 
ROOT
HETATM    1  C   UNL     1      27.188  41.699  51.112  1.00  0.00     0.035 A 
HETATM    2  C   UNL     1      27.868  40.473  51.118  1.00  0.00     0.046 A 
HETATM    3  C   UNL     1      28.186  39.846  49.892  1.00  0.00     0.030 A 
HETATM    4  C   UNL     1      27.808  40.462  48.707  1.00  0.00     0.063 A 
HETATM    5  N   UNL     1      28.243  39.633  47.712  1.00  0.00    -0.277 N 
HETATM    6  H   UNL     1      28.138  39.765  46.712  1.00  0.00     0.189 HD
HETATM    7  N   UNL     1      28.883  38.533  48.143  1.00  0.00    -0.168 NA
HETATM    8  C   UNL     1      28.857  38.651  49.490  1.00  0.00     0.156 A 
HETATM    9  C   UNL     1      27.128  41.681  48.663  1.00  0.00     0.034 A 
HETATM   10  C   UNL     1      26.832  42.286  49.891  1.00  0.00     0.032 A 
ENDROOT
BRANCH   1  11
HETATM   11  N   UNL     1      26.855  42.416  52.282  1.00  0.00    -0.327 N 
HETATM   12  C   UNL     1      27.587  43.410  52.893  1.00  0.00     0.227 C 
HETATM   13  O   UNL     1      28.710  43.783  52.585  1.00  0.00    -0.273 OA
HETATM   14  H   UNL     1      26.017  42.118  52.756  1.00  0.00     0.169 HD
BRANCH  12  15
HETATM   15  C   UNL     1      26.940  44.090  54.054  1.00  0.00     0.087 A 
HETATM   16  C   UNL     1      25.874  45.156  53.870  1.00  0.00     0.032 A 
HETATM   17  C   UNL     1      27.194  45.494  54.529  1.00  0.00     0.025 A 
BRANCH  16  18
HETATM   18  C   UNL     1      25.538  45.760  52.528  1.00  0.00    -0.051 A 
HETATM   19  C   UNL     1      24.633  45.133  51.654  1.00  0.00     0.031 A 
HETATM   20  C   UNL     1      24.338  45.678  50.403  1.00  0.00     0.034 A 
HETATM   21  C   UNL     1      24.942  46.859  49.987  1.00  0.00     0.024 A 
HETATM   22 CL   UNL     1      23.217  44.879  49.369  1.00  0.00    -0.084 Cl
HETATM   23  C   UNL     1      25.852  47.493  50.829  1.00  0.00     0.002 A 
HETATM   24  C   UNL     1      26.150  46.944  52.079  1.00  0.00     0.007 A 
ENDBRANCH  16  18
ENDBRANCH  12  15
ENDBRANCH   1  11
BRANCH   8  25
HETATM   25  C   UNL     1      29.476  37.635  50.353  1.00  0.00     0.270 C 
HETATM   26  N   UNL     1      28.620  36.644  50.749  1.00  0.00    -0.365 N 
HETATM   27  H   UNL     1      27.662  36.672  50.424  1.00  0.00     0.159 HD
HETATM   28  H   UNL     1      28.960  35.896  51.334  1.00  0.00     0.159 HD
HETATM   29  O   UNL     1      30.650  37.637  50.706  1.00  0.00    -0.266 OA
ENDBRANCH   8  25
TORSDOF 4
ENDMDL
MODEL 4
REMARK VINA RESULT:      -8.2      6.084      9.952
REMARK  4 active torsions:
REMARK  status: ('A' for Active; 'I' for Inactive)
REMARK    1  A    between atoms: C_6  and  C_7 
REMARK    2  A    between atoms: C_8  and  C_9 
REMARK       I    between atoms: C_9  and  N_10 
REMARK    3  A    between atoms: N_10  and  C_11 
REMARK    4  A    between atoms: C_18  and  C_19 
REMARK       I    between atoms: C_19  and  N_20 
ROOT
HETATM    1  C   UNL     1      24.757  43.210  50.704  1.00  0.00     0.035 A 
HETATM    2  C   UNL     1      25.152  44.551  50.603  1.00  0.00     0.046 A 
HETATM    3  C   UNL     1      24.289  45.489  49.993  1.00  0.00     0.030 A 
HETATM    4  C   UNL     1      23.066  45.053  49.501  1.00  0.00     0.063 A 
HETATM    5  N   UNL     1      22.468  46.164  48.977  1.00  0.00    -0.277 N 
HETATM    6  H   UNL     1      21.560  46.220  48.530  1.00  0.00     0.189 HD
HETATM    7  N   UNL     1      23.188  47.292  49.094  1.00  0.00    -0.168 NA
HETATM    8  C   UNL     1      24.317  46.891  49.722  1.00  0.00     0.156 A 
HETATM    9  C   UNL     1      22.641  43.725  49.582  1.00  0.00     0.034 A 
HETATM   10  C   UNL     1      23.511  42.817  50.199  1.00  0.00     0.032 A 
ENDROOT
BRANCH   1  11
HETATM   11  N   UNL     1      25.536  42.209  51.324  1.00  0.00    -0.327 N 
HETATM   12  C   UNL     1      26.901  42.044  51.250  1.00  0.00     0.227 C 
HETATM   13  O   UNL     1      27.676  42.679  50.549  1.00  0.00    -0.273 OA
HETATM   14  H   UNL     1      25.022  41.500  51.824  1.00  0.00     0.169 HD
BRANCH  12  15
HETATM   15  C   UNL     1      27.485  40.970  52.109  1.00  0.00     0.087 A 
HETATM   16  C   UNL     1      27.957  41.243  53.526  1.00  0.00     0.032 A 
HETATM   17  C   UNL     1      28.935  40.793  52.463  1.00  0.00     0.025 A 
BRANCH  16  18
HETATM   18  C   UNL     1      28.074  42.634  54.102  1.00  0.00    -0.051 A 
HETATM   19  C   UNL     1      29.302  43.120  54.585  1.00  0.00     0.031 A 
HETATM   20  C   UNL     1      29.407  44.397  55.138  1.00  0.00     0.034 A 
HETATM   21  C   UNL     1      28.290  45.220  55.233  1.00  0.00     0.024 A 
HETATM   22 CL   UNL     1      30.932  44.955  55.709  1.00  0.00    -0.084 Cl
HETATM   23  C   UNL     1      27.060  44.756  54.775  1.00  0.00     0.002 A 
HETATM   24  C   UNL     1      26.955  43.476  54.225  1.00  0.00     0.007 A 
ENDBRANCH  16  18
ENDBRANCH  12  15
ENDBRANCH   1  11
BRANCH   8  25
HETATM   25  C   UNL     1      25.382  47.849  50.054  1.00  0.00     0.270 C 
HETATM   26  N   UNL     1      25.545  48.844  49.128  1.00  0.00    -0.365 N 
HETATM   27  H   UNL     1      24.938  48.857  48.318  1.00  0.00     0.159 HD
HETATM   28  H   UNL     1      26.244  49.554  49.278  1.00  0.00     0.159 HD
HETATM   29  O   UNL     1      26.081  47.798  51.059  1.00  0.00    -0.266 OA
ENDBRANCH   8  25
TORSDOF 4
ENDMDL
MODEL 5
REMARK VINA RESULT:      -8.1      8.943     11.081
REMARK  4 active torsions:
REMARK  status: ('A' for Active; 'I' for Inactive)
REMARK    1  A    between atoms: C_6  and  C_7 
REMARK    2  A    between atoms: C_8  and  C_9 
REMARK       I    between atoms: C_9  and  N_10 
REMARK    3  A    between atoms: N_10  and  C_11 
REMARK    4  A    between atoms: C_18  and  C_19 
REMARK       I    between atoms: C_19  and  N_20 
ROOT
HETATM    1  C   UNL     1      28.029  41.528  52.293  1.00  0.00     0.035 A 
HETATM    2  C   UNL     1      28.354  40.390  51.541  1.00  0.00     0.046 A 
HETATM    3  C   UNL     1      27.659  40.127  50.339  1.00  0.00     0.030 A 
HETATM    4  C   UNL     1      26.662  41.004  49.936  1.00  0.00     0.063 A 
HETATM    5  N   UNL     1      26.181  40.493  48.763  1.00  0.00    -0.277 N 
HETATM    6  H   UNL     1      25.442  40.875  48.184  1.00  0.00     0.189 HD
HETATM    7  N   UNL     1      26.785  39.364  48.358  1.00  0.00    -0.168 NA
HETATM    8  C   UNL     1      27.703  39.124  49.322  1.00  0.00     0.156 A 
HETATM    9  C   UNL     1      26.310  42.145  50.660  1.00  0.00     0.034 A 
HETATM   10  C   UNL     1      27.019  42.389  51.843  1.00  0.00     0.032 A 
ENDROOT
BRANCH   1  11
HETATM   11  N   UNL     1      28.687  41.891  53.488  1.00  0.00    -0.327 N 
HETATM   12  C   UNL     1      29.750  42.756  53.630  1.00  0.00     0.227 C 
HETATM   13  O   UNL     1      30.381  43.290  52.730  1.00  0.00    -0.273 OA
HETATM   14  H   UNL     1      28.382  41.411  54.321  1.00  0.00     0.169 HD
BRANCH  12  15
HETATM   15  C   UNL     1      30.174  43.059  55.030  1.00  0.00     0.087 A 
HETATM   16  C   UNL     1      29.538  44.176  55.839  1.00  0.00     0.032 A 
HETATM   17  C   UNL     1      31.008  44.224  55.484  1.00  0.00     0.025 A 
BRANCH  16  18
HETATM   18  C   UNL     1      28.595  45.192  55.240  1.00  0.00    -0.051 A 
HETATM   19  C   UNL     1      27.414  44.794  54.590  1.00  0.00     0.031 A 
HETATM   20  C   UNL     1      26.552  45.730  54.016  1.00  0.00     0.034 A 
HETATM   21  C   UNL     1      26.849  47.088  54.067  1.00  0.00     0.024 A 
HETATM   22 CL   UNL     1      25.111  45.198  53.238  1.00  0.00    -0.084 Cl
HETATM   23  C   UNL     1      28.021  47.507  54.692  1.00  0.00     0.002 A 
HETATM   24  C   UNL     1      28.884  46.568  55.263  1.00  0.00     0.007 A 
ENDBRANCH  16  18
ENDBRANCH  12  15
ENDBRANCH   1  11
BRANCH   8  25
HETATM   25  C   UNL     1      28.599  37.961  49.246  1.00  0.00     0.270 C 
HETATM   26  N   UNL     1      28.352  37.005  50.193  1.00  0.00    -0.365 N 
HETATM   27  H   UNL     1      27.594  37.155  50.848  1.00  0.00     0.159 HD
HETATM   28  H   UNL     1      28.909  36.165  50.211  1.00  0.00     0.159 HD
HETATM   29  O   UNL     1      29.494  37.820  48.421  1.00  0.00    -0.266 OA
ENDBRANCH   8  25
TORSDOF 4
ENDMDL
MODEL 6
REMARK VINA RESULT:      -8.1      8.049     10.839
REMARK  4 active torsions:
REMARK  status: ('A' for Active; 'I' for Inactive)
REMARK    1  A    between atoms: C_6  and  C_7 
REMARK    2  A    between atoms: C_8  and  C_9 
REMARK       I    between atoms: C_9  and  N_10 
REMARK    3  A    between atoms: N_10  and  C_11 
REMARK    4  A    between atoms: C_18  and  C_19 
REMARK       I    between atoms: C_19  and  N_20 
ROOT
HETATM    1  C   UNL     1      25.947  44.454  51.658  1.00  0.00     0.035 A 
HETATM    2  C   UNL     1      26.743  43.343  51.345  1.00  0.00     0.046 A 
HETATM    3  C   UNL     1      26.198  42.288  50.579  1.00  0.00     0.030 A 
HETATM    4  C   UNL     1      24.877  42.377  50.161  1.00  0.00     0.063 A 
HETATM    5  N   UNL     1      24.641  41.230  49.457  1.00  0.00    -0.277 N 
HETATM    6  H   UNL     1      23.777  40.954  49.005  1.00  0.00     0.189 HD
HETATM    7  N   UNL     1      25.696  40.403  49.369  1.00  0.00    -0.168 NA
HETATM    8  C   UNL     1      26.668  41.044  50.057  1.00  0.00     0.156 A 
HETATM    9  C   UNL     1      24.055  43.466  50.456  1.00  0.00     0.034 A 
HETATM   10  C   UNL     1      24.621  44.503  51.209  1.00  0.00     0.032 A 
ENDROOT
BRANCH   1  11
HETATM   11  N   UNL     1      26.412  45.569  52.390  1.00  0.00    -0.327 N 
HETATM   12  C   UNL     1      26.288  45.794  53.743  1.00  0.00     0.227 C 
HETATM   13  O   UNL     1      25.663  45.111  54.542  1.00  0.00    -0.273 OA
HETATM   14  H   UNL     1      26.823  46.311  51.845  1.00  0.00     0.169 HD
BRANCH  12  15
HETATM   15  C   UNL     1      26.985  47.001  54.279  1.00  0.00     0.087 A 
HETATM   16  C   UNL     1      28.393  46.934  54.842  1.00  0.00     0.032 A 
HETATM   17  C   UNL     1      27.230  47.329  55.725  1.00  0.00     0.025 A 
BRANCH  16  18
HETATM   18  C   UNL     1      29.115  45.633  55.101  1.00  0.00    -0.051 A 
HETATM   19  C   UNL     1      29.959  45.479  56.215  1.00  0.00     0.031 A 
HETATM   20  C   UNL     1      30.645  44.285  56.444  1.00  0.00     0.034 A 
HETATM   21  C   UNL     1      30.513  43.215  55.565  1.00  0.00     0.024 A 
HETATM   22 CL   UNL     1      31.662  44.139  57.825  1.00  0.00    -0.084 Cl
HETATM   23  C   UNL     1      29.694  43.347  54.448  1.00  0.00     0.002 A 
HETATM   24  C   UNL     1      29.011  44.545  54.217  1.00  0.00     0.007 A 
ENDBRANCH  16  18
ENDBRANCH  12  15
ENDBRANCH   1  11
BRANCH   8  25
HETATM   25  C   UNL     1      28.012  40.465  50.191  1.00  0.00     0.270 C 
HETATM   26  N   UNL     1      28.324  40.068  51.463  1.00  0.00    -0.365 N 
HETATM   27  H   UNL     1      27.631  40.186  52.192  1.00  0.00     0.159 HD
HETATM   28  H   UNL     1      29.221  39.647  51.648  1.00  0.00     0.159 HD
HETATM   29  O   UNL     1      28.811  40.328  49.271  1.00  0.00    -0.266 OA
ENDBRANCH   8  25
TORSDOF 4
ENDMDL
MODEL 7
REMARK VINA RESULT:      -8.0      7.831     10.799
REMARK  4 active torsions:
REMARK  status: ('A' for Active; 'I' for Inactive)
REMARK    1  A    between atoms: C_6  and  C_7 
REMARK    2  A    between atoms: C_8  and  C_9 
REMARK       I    between atoms: C_9  and  N_10 
REMARK    3  A    between atoms: N_10  and  C_11 
REMARK    4  A    between atoms: C_18  and  C_19 
REMARK       I    between atoms: C_19  and  N_20 
ROOT
HETATM    1  C   UNL     1      28.219  41.569  52.524  1.00  0.00     0.035 A 
HETATM    2  C   UNL     1      27.045  42.165  52.044  1.00  0.00     0.046 A 
HETATM    3  C   UNL     1      26.429  41.654  50.879  1.00  0.00     0.030 A 
HETATM    4  C   UNL     1      27.010  40.571  50.234  1.00  0.00     0.063 A 
HETATM    5  N   UNL     1      26.204  40.311  49.162  1.00  0.00    -0.277 N 
HETATM    6  H   UNL     1      26.324  39.585  48.465  1.00  0.00     0.189 HD
HETATM    7  N   UNL     1      25.139  41.123  49.056  1.00  0.00    -0.168 NA
HETATM    8  C   UNL     1      25.263  41.958  50.112  1.00  0.00     0.156 A 
HETATM    9  C   UNL     1      28.180  39.954  50.682  1.00  0.00     0.034 A 
HETATM   10  C   UNL     1      28.767  40.474  51.843  1.00  0.00     0.032 A 
ENDROOT
BRANCH   1  11
HETATM   11  N   UNL     1      28.888  41.988  53.695  1.00  0.00    -0.327 N 
HETATM   12  C   UNL     1      29.936  42.877  53.788  1.00  0.00     0.227 C 
HETATM   13  O   UNL     1      30.543  43.389  52.858  1.00  0.00    -0.273 OA
HETATM   14  H   UNL     1      28.605  41.534  54.549  1.00  0.00     0.169 HD
BRANCH  12  15
HETATM   15  C   UNL     1      30.375  43.240  55.169  1.00  0.00     0.087 A 
HETATM   16  C   UNL     1      29.677  44.320  55.976  1.00  0.00     0.032 A 
HETATM   17  C   UNL     1      31.127  44.476  55.576  1.00  0.00     0.025 A 
BRANCH  16  18
HETATM   18  C   UNL     1      28.640  45.247  55.389  1.00  0.00    -0.051 A 
HETATM   19  C   UNL     1      27.434  44.750  54.862  1.00  0.00     0.031 A 
HETATM   20  C   UNL     1      26.484  45.603  54.298  1.00  0.00     0.034 A 
HETATM   21  C   UNL     1      26.714  46.973  54.236  1.00  0.00     0.024 A 
HETATM   22 CL   UNL     1      25.019  44.951  53.674  1.00  0.00    -0.084 Cl
HETATM   23  C   UNL     1      27.906  47.489  54.738  1.00  0.00     0.002 A 
HETATM   24  C   UNL     1      28.858  46.633  55.299  1.00  0.00     0.007 A 
ENDBRANCH  16  18
ENDBRANCH  12  15
ENDBRANCH   1  11
BRANCH   8  25
HETATM   25  C   UNL     1      24.270  43.012  50.368  1.00  0.00     0.270 C 
HETATM   26  N   UNL     1      24.747  44.282  50.193  1.00  0.00    -0.365 N 
HETATM   27  H   UNL     1      25.710  44.403  49.902  1.00  0.00     0.159 HD
HETATM   28  H   UNL     1      24.134  45.069  50.334  1.00  0.00     0.159 HD
HETATM   29  O   UNL     1      23.108  42.812  50.703  1.00  0.00    -0.266 OA
ENDBRANCH   8  25
TORSDOF 4
ENDMDL
MODEL 8
REMARK VINA RESULT:      -7.9      5.701     10.081
REMARK  4 active torsions:
REMARK  status: ('A' for Active; 'I' for Inactive)
REMARK    1  A    between atoms: C_6  and  C_7 
REMARK    2  A    between atoms: C_8  and  C_9 
REMARK       I    between atoms: C_9  and  N_10 
REMARK    3  A    between atoms: N_10  and  C_11 
REMARK    4  A    between atoms: C_18  and  C_19 
REMARK       I    between atoms: C_19  and  N_20 
ROOT
HETATM    1  C   UNL     1      25.378  44.831  51.052  1.00  0.00     0.035 A 
HETATM    2  C   UNL     1      24.302  44.974  50.165  1.00  0.00     0.046 A 
HETATM    3  C   UNL     1      23.930  46.264  49.722  1.00  0.00     0.030 A 
HETATM    4  C   UNL     1      24.642  47.362  50.185  1.00  0.00     0.063 A 
HETATM    5  N   UNL     1      24.058  48.448  49.594  1.00  0.00    -0.277 N 
HETATM    6  H   UNL     1      24.319  49.421  49.705  1.00  0.00     0.189 HD
HETATM    7  N   UNL     1      23.034  48.154  48.776  1.00  0.00    -0.168 NA
HETATM    8  C   UNL     1      22.943  46.806  48.843  1.00  0.00     0.156 A 
HETATM    9  C   UNL     1      25.717  47.257  51.069  1.00  0.00     0.034 A 
HETATM   10  C   UNL     1      26.071  45.968  51.487  1.00  0.00     0.032 A 
ENDROOT
BRANCH   1  11
HETATM   11  N   UNL     1      25.843  43.584  51.524  1.00  0.00    -0.327 N 
HETATM   12  C   UNL     1      27.109  43.058  51.395  1.00  0.00     0.227 C 
HETATM   13  O   UNL     1      28.036  43.535  50.756  1.00  0.00    -0.273 OA
HETATM   14  H   UNL     1      25.148  42.989  51.948  1.00  0.00     0.169 HD
BRANCH  12  15
HETATM   15  C   UNL     1      27.364  41.767  52.102  1.00  0.00     0.087 A 
HETATM   16  C   UNL     1      27.897  41.720  53.523  1.00  0.00     0.032 A 
HETATM   17  C   UNL     1      28.704  41.145  52.379  1.00  0.00     0.025 A 
BRANCH  16  18
HETATM   18  C   UNL     1      28.408  42.941  54.251  1.00  0.00    -0.051 A 
HETATM   19  C   UNL     1      29.686  42.957  54.836  1.00  0.00     0.031 A 
HETATM   20  C   UNL     1      30.151  44.076  55.529  1.00  0.00     0.034 A 
HETATM   21  C   UNL     1      29.351  45.205  55.665  1.00  0.00     0.024 A 
HETATM   22 CL   UNL     1      31.727  44.055  56.221  1.00  0.00    -0.084 Cl
HETATM   23  C   UNL     1      28.075  45.209  55.108  1.00  0.00     0.002 A 
HETATM   24  C   UNL     1      27.609  44.086  54.417  1.00  0.00     0.007 A 
ENDBRANCH  16  18
ENDBRANCH  12  15
ENDBRANCH   1  11
BRANCH   8  25
HETATM   25  C   UNL     1      21.931  46.074  48.068  1.00  0.00     0.270 C 
HETATM   26  N   UNL     1      20.946  45.509  48.830  1.00  0.00    -0.365 N 
HETATM   27  H   UNL     1      20.974  45.638  49.834  1.00  0.00     0.159 HD
HETATM   28  H   UNL     1      20.202  44.997  48.383  1.00  0.00     0.159 HD
HETATM   29  O   UNL     1      21.932  45.960  46.847  1.00  0.00    -0.266 OA
ENDBRANCH   8  25
TORSDOF 4
ENDMDL
MODEL 9
REMARK VINA RESULT:      -7.7      7.257     10.521
REMARK  4 active torsions:
REMARK  status: ('A' for Active; 'I' for Inactive)
REMARK    1  A    between atoms: C_6  and  C_7 
REMARK    2  A    between atoms: C_8  and  C_9 
REMARK       I    between atoms: C_9  and  N_10 
REMARK    3  A    between atoms: N_10  and  C_11 
REMARK    4  A    between atoms: C_18  and  C_19 
REMARK       I    between atoms: C_19  and  N_20 
ROOT
HETATM    1  C   UNL     1      26.536  41.714  48.750  1.00  0.00     0.035 A 
HETATM    2  C   UNL     1      27.518  40.893  49.320  1.00  0.00     0.046 A 
HETATM    3  C   UNL     1      27.609  39.538  48.927  1.00  0.00     0.030 A 
HETATM    4  C   UNL     1      26.713  39.052  47.985  1.00  0.00     0.063 A 
HETATM    5  N   UNL     1      27.042  37.737  47.815  1.00  0.00    -0.277 N 
HETATM    6  H   UNL     1      26.596  37.067  47.200  1.00  0.00     0.189 HD
HETATM    7  N   UNL     1      28.084  37.323  48.556  1.00  0.00    -0.168 NA
HETATM    8  C   UNL     1      28.447  38.427  49.248  1.00  0.00     0.156 A 
HETATM    9  C   UNL     1      25.721  39.840  47.399  1.00  0.00     0.034 A 
HETATM   10  C   UNL     1      25.656  41.181  47.798  1.00  0.00     0.032 A 
ENDROOT
BRANCH   1  11
HETATM   11  N   UNL     1      26.387  43.085  49.054  1.00  0.00    -0.327 N 
HETATM   12  C   UNL     1      25.391  43.674  49.802  1.00  0.00     0.227 C 
HETATM   13  O   UNL     1      24.397  43.125  50.254  1.00  0.00    -0.273 OA
HETATM   14  H   UNL     1      27.053  43.706  48.621  1.00  0.00     0.169 HD
BRANCH  12  15
HETATM   15  C   UNL     1      25.545  45.134  50.075  1.00  0.00     0.087 A 
HETATM   16  C   UNL     1      26.361  45.651  51.246  1.00  0.00     0.032 A 
HETATM   17  C   UNL     1      24.874  45.919  51.168  1.00  0.00     0.025 A 
BRANCH  16  18
HETATM   18  C   UNL     1      26.899  44.754  52.336  1.00  0.00    -0.051 A 
HETATM   19  C   UNL     1      28.156  44.137  52.215  1.00  0.00     0.031 A 
HETATM   20  C   UNL     1      28.645  43.290  53.211  1.00  0.00     0.034 A 
HETATM   21  C   UNL     1      27.890  43.028  54.349  1.00  0.00     0.024 A 
HETATM   22 CL   UNL     1      30.194  42.563  53.026  1.00  0.00    -0.084 Cl
HETATM   23  C   UNL     1      26.635  43.616  54.485  1.00  0.00     0.002 A 
HETATM   24  C   UNL     1      26.145  44.461  53.486  1.00  0.00     0.007 A 
ENDBRANCH  16  18
ENDBRANCH  12  15
ENDBRANCH   1  11
BRANCH   8  25
HETATM   25  C   UNL     1      29.580  38.397  50.184  1.00  0.00     0.270 C 
HETATM   26  N   UNL     1      29.351  39.062  51.358  1.00  0.00    -0.365 N 
HETATM   27  H   UNL     1      28.450  39.502  51.499  1.00  0.00     0.159 HD
HETATM   28  H   UNL     1      30.068  39.085  52.066  1.00  0.00     0.159 HD
HETATM   29  O   UNL     1      30.649  37.835  49.973  1.00  0.00    -0.266 OA
ENDBRANCH   8  25
TORSDOF 4
ENDMDL
MODEL 10
REMARK VINA RESULT:      -7.6      8.500     11.265
REMARK  4 active torsions:
REMARK  status: ('A' for Active; 'I' for Inactive)
REMARK    1  A    between atoms: C_6  and  C_7 
REMARK    2  A    between atoms: C_8  and  C_9 
REMARK       I    between atoms: C_9  and  N_10 
REMARK    3  A    between atoms: N_10  and  C_11 
REMARK    4  A    between atoms: C_18  and  C_19 
REMARK       I    between atoms: C_19  and  N_20 
ROOT
HETATM    1  C   UNL     1      26.779  41.521  49.744  1.00  0.00     0.035 A 
HETATM    2  C   UNL     1      27.706  40.523  50.072  1.00  0.00     0.046 A 
HETATM    3  C   UNL     1      28.123  39.605  49.082  1.00  0.00     0.030 A 
HETATM    4  C   UNL     1      27.594  39.713  47.803  1.00  0.00     0.063 A 
HETATM    5  N   UNL     1      28.174  38.706  47.084  1.00  0.00    -0.277 N 
HETATM    6  H   UNL     1      28.021  38.482  46.107  1.00  0.00     0.189 HD
HETATM    7  N   UNL     1      29.045  37.955  47.778  1.00  0.00    -0.168 NA
HETATM    8  C   UNL     1      29.026  38.500  49.016  1.00  0.00     0.156 A 
HETATM    9  C   UNL     1      26.668  40.693  47.441  1.00  0.00     0.034 A 
HETATM   10  C   UNL     1      26.277  41.596  48.438  1.00  0.00     0.032 A 
ENDROOT
BRANCH   1  11
HETATM   11  N   UNL     1      26.327  42.501  50.655  1.00  0.00    -0.327 N 
HETATM   12  C   UNL     1      26.754  43.806  50.762  1.00  0.00     0.227 C 
HETATM   13  O   UNL     1      27.677  44.324  50.150  1.00  0.00    -0.273 OA
HETATM   14  H   UNL     1      25.662  42.186  51.344  1.00  0.00     0.169 HD
BRANCH  12  15
HETATM   15  C   UNL     1      26.015  44.666  51.734  1.00  0.00     0.087 A 
HETATM   16  C   UNL     1      26.539  44.929  53.135  1.00  0.00     0.032 A 
HETATM   17  C   UNL     1      25.229  44.201  52.928  1.00  0.00     0.025 A 
BRANCH  16  18
HETATM   18  C   UNL     1      27.715  44.189  53.727  1.00  0.00    -0.051 A 
HETATM   19  C   UNL     1      28.645  44.844  54.553  1.00  0.00     0.031 A 
HETATM   20  C   UNL     1      29.745  44.168  55.083  1.00  0.00     0.034 A 
HETATM   21  C   UNL     1      29.952  42.823  54.797  1.00  0.00     0.024 A 
HETATM   22 CL   UNL     1      30.854  45.008  56.097  1.00  0.00    -0.084 Cl
HETATM   23  C   UNL     1      29.053  42.155  53.970  1.00  0.00     0.002 A 
HETATM   24  C   UNL     1      27.954  42.835  53.437  1.00  0.00     0.007 A 
ENDBRANCH  16  18
ENDBRANCH  12  15
ENDBRANCH   1  11
BRANCH   8  25
HETATM   25  C   UNL     1      29.868  37.963  50.095  1.00  0.00     0.270 C 
HETATM   26  N   UNL     1      29.166  37.371  51.109  1.00  0.00    -0.365 N 
HETATM   27  H   UNL     1      28.156  37.335  51.043  1.00  0.00     0.159 HD
HETATM   28  H   UNL     1      29.660  36.963  51.886  1.00  0.00     0.159 HD
HETATM   29  O   UNL     1      31.093  38.016  50.119  1.00  0.00    -0.266 OA
ENDBRANCH   8  25
TORSDOF 4
ENDMDL
