MODEL 1
REMARK VINA RESULT:      -8.7      0.000      0.000
REMARK  6 active torsions:
REMARK  status: ('A' for Active; 'I' for Inactive)
REMARK    1  A    between atoms: C_2  and  N_3 
REMARK    2  A    between atoms: C_5  and  C_6 
REMARK    3  A    between atoms: C_6  and  N_7 
REMARK       I    between atoms: N_7  and  C_8 
REMARK    4  A    between atoms: C_8  and  C_9 
REMARK    5  A    between atoms: C_9  and  C_10 
REMARK    6  A    between atoms: C_11  and  C_12 
ROOT
HETATM    1  C   UNL     1      27.991  42.863  53.693  1.00  0.00     0.006 A 
HETATM    2  C   UNL     1      29.356  43.187  54.002  1.00  0.00     0.096 A 
HETATM    3  N   UNL     1      30.162  42.916  52.968  1.00  0.00    -0.173 NA
HETATM    4  N   UNL     1      29.358  42.427  52.025  1.00  0.00    -0.282 N 
HETATM    5  H   UNL     1      29.777  42.155  51.142  1.00  0.00     0.189 HD
HETATM    6  C   UNL     1      28.040  42.397  52.385  1.00  0.00     0.033 A 
HETATM    7  C   UNL     1      27.004  41.942  51.429  1.00  0.00     0.070 C 
ENDROOT
BRANCH   1   8
HETATM    8  C   UNL     1      26.803  43.101  54.573  1.00  0.00     0.146 C 
BRANCH   8   9
HETATM    9  C   UNL     1      25.954  44.296  54.160  1.00  0.00     0.222 C 
HETATM   10  N   UNL     1      26.595  45.203  53.338  1.00  0.00    -0.359 N 
HETATM   11  H   UNL     1      27.588  45.057  53.178  1.00  0.00     0.162 HD
HETATM   12  O   UNL     1      24.780  44.444  54.501  1.00  0.00    -0.273 OA
BRANCH  10  13
HETATM   13  C   UNL     1      26.039  46.464  52.852  1.00  0.00     0.155 C 
BRANCH  13  14
HETATM   14  C   UNL     1      25.018  46.357  51.703  1.00  0.00     0.206 C 
HETATM   15  N   UNL     1      25.118  47.418  50.615  1.00  0.00    -0.066 N 
HETATM   16  H   UNL     1      24.766  48.293  51.064  1.00  0.00     0.280 HD
HETATM   17  C   UNL     1      24.160  46.914  49.563  1.00  0.00     0.235 C 
HETATM   18  C   UNL     1      24.233  45.390  49.661  1.00  0.00     0.030 C 
HETATM   19  C   UNL     1      25.068  45.072  50.898  1.00  0.00     0.036 C 
BRANCH  15  20
HETATM   20  C   UNL     1      26.490  47.760  50.089  1.00  0.00     0.231 C 
HETATM   21  C   UNL     1      26.416  48.895  49.080  1.00  0.00     0.034 C 
ENDBRANCH  15  20
ENDBRANCH  13  14
ENDBRANCH  10  13
ENDBRANCH   8   9
ENDBRANCH   1   8
BRANCH   2  22
HETATM   22  C   UNL     1      29.913  43.792  55.211  1.00  0.00    -0.005 A 
HETATM   23  C   UNL     1      29.495  45.056  55.649  1.00  0.00     0.017 A 
HETATM   24  C   UNL     1      30.039  45.611  56.810  1.00  0.00     0.043 A 
HETATM   25  C   UNL     1      30.989  44.899  57.534  1.00  0.00     0.116 A 
HETATM   26  F   UNL     1      31.506  45.434  58.647  1.00  0.00    -0.206 F 
HETATM   27  C   UNL     1      31.404  43.639  57.125  1.00  0.00     0.043 A 
HETATM   28  C   UNL     1      30.864  43.083  55.963  1.00  0.00     0.017 A 
ENDBRANCH   2  22
TORSDOF 6
ENDMDL
MODEL 2
REMARK VINA RESULT:      -8.4      2.384      5.196
REMARK  6 active torsions:
REMARK  status: ('A' for Active; 'I' for Inactive)
REMARK    1  A    between atoms: C_2  and  N_3 
REMARK    2  A    between atoms: C_5  and  C_6 
REMARK    3  A    between atoms: C_6  and  N_7 
REMARK       I    between atoms: N_7  and  C_8 
REMARK    4  A    between atoms: C_8  and  C_9 
REMARK    5  A    between atoms: C_9  and  C_10 
REMARK    6  A    between atoms: C_11  and  C_12 
ROOT
HETATM    1  C   UNL     1      27.108  45.203  54.096  1.00  0.00     0.006 A 
HETATM    2  C   UNL     1      27.962  46.039  54.893  1.00  0.00     0.096 A 
HETATM    3  N   UNL     1      27.726  47.335  54.655  1.00  0.00    -0.173 NA
HETATM    4  N   UNL     1      26.763  47.346  53.735  1.00  0.00    -0.282 N 
HETATM    5  H   UNL     1      26.430  48.248  53.410  1.00  0.00     0.189 HD
HETATM    6  C   UNL     1      26.326  46.100  53.378  1.00  0.00     0.033 A 
HETATM    7  C   UNL     1      25.215  45.935  52.413  1.00  0.00     0.070 C 
ENDROOT
BRANCH   1   8
HETATM    8  C   UNL     1      27.033  43.708  54.147  1.00  0.00     0.146 C 
BRANCH   8   9
HETATM    9  C   UNL     1      27.928  43.007  53.133  1.00  0.00     0.222 C 
HETATM   10  N   UNL     1      27.589  41.692  52.876  1.00  0.00    -0.359 N 
HETATM   11  H   UNL     1      26.862  41.282  53.456  1.00  0.00     0.162 HD
HETATM   12  O   UNL     1      28.866  43.562  52.560  1.00  0.00    -0.273 OA
BRANCH  10  13
HETATM   13  C   UNL     1      28.316  40.774  52.002  1.00  0.00     0.155 C 
BRANCH  13  14
HETATM   14  C   UNL     1      28.168  41.017  50.489  1.00  0.00     0.206 C 
HETATM   15  N   UNL     1      28.852  40.007  49.576  1.00  0.00    -0.066 N 
HETATM   16  H   UNL     1      29.872  40.210  49.674  1.00  0.00     0.280 HD
HETATM   17  C   UNL     1      28.341  40.389  48.208  1.00  0.00     0.235 C 
HETATM   18  C   UNL     1      26.926  40.913  48.447  1.00  0.00     0.030 C 
HETATM   19  C   UNL     1      26.746  41.009  49.959  1.00  0.00     0.036 C 
BRANCH  15  20
HETATM   20  C   UNL     1      28.699  38.542  49.907  1.00  0.00     0.231 C 
HETATM   21  C   UNL     1      30.036  37.935  50.302  1.00  0.00     0.034 C 
ENDBRANCH  15  20
ENDBRANCH  13  14
ENDBRANCH  10  13
ENDBRANCH   8   9
ENDBRANCH   1   8
BRANCH   2  22
HETATM   22  C   UNL     1      28.947  45.659  55.904  1.00  0.00    -0.005 A 
HETATM   23  C   UNL     1      30.004  44.791  55.599  1.00  0.00     0.017 A 
HETATM   24  C   UNL     1      30.935  44.446  56.582  1.00  0.00     0.043 A 
HETATM   25  C   UNL     1      30.813  44.978  57.862  1.00  0.00     0.116 A 
HETATM   26  F   UNL     1      31.708  44.646  58.800  1.00  0.00    -0.206 F 
HETATM   27  C   UNL     1      29.782  45.851  58.179  1.00  0.00     0.043 A 
HETATM   28  C   UNL     1      28.850  46.195  57.199  1.00  0.00     0.017 A 
ENDBRANCH   2  22
TORSDOF 6
ENDMDL
MODEL 3
REMARK VINA RESULT:      -8.3      2.603      4.939
REMARK  6 active torsions:
REMARK  status: ('A' for Active; 'I' for Inactive)
REMARK    1  A    between atoms: C_2  and  N_3 
REMARK    2  A    between atoms: C_5  and  C_6 
REMARK    3  A    between atoms: C_6  and  N_7 
REMARK       I    between atoms: N_7  and  C_8 
REMARK    4  A    between atoms: C_8  and  C_9 
REMARK    5  A    between atoms: C_9  and  C_10 
REMARK    6  A    between atoms: C_11  and  C_12 
ROOT
HETATM    1  C   UNL     1      27.360  45.506  54.259  1.00  0.00     0.006 A 
HETATM    2  C   UNL     1      28.515  45.918  55.009  1.00  0.00     0.096 A 
HETATM    3  N   UNL     1      28.587  47.252  55.089  1.00  0.00    -0.173 NA
HETATM    4  N   UNL     1      27.529  47.695  54.411  1.00  0.00    -0.282 N 
HETATM    5  H   UNL     1      27.394  48.699  54.350  1.00  0.00     0.189 HD
HETATM    6  C   UNL     1      26.736  46.699  53.914  1.00  0.00     0.033 A 
HETATM    7  C   UNL     1      25.484  47.018  53.191  1.00  0.00     0.070 C 
ENDROOT
BRANCH   1   8
HETATM    8  C   UNL     1      26.911  44.097  54.026  1.00  0.00     0.146 C 
BRANCH   8   9
HETATM    9  C   UNL     1      27.021  43.642  52.577  1.00  0.00     0.222 C 
HETATM   10  N   UNL     1      25.998  42.817  52.152  1.00  0.00    -0.359 N 
HETATM   11  H   UNL     1      25.339  42.499  52.858  1.00  0.00     0.162 HD
HETATM   12  O   UNL     1      27.929  43.994  51.823  1.00  0.00    -0.273 OA
BRANCH  10  13
HETATM   13  C   UNL     1      25.892  42.186  50.837  1.00  0.00     0.155 C 
BRANCH  13  14
HETATM   14  C   UNL     1      26.545  40.798  50.697  1.00  0.00     0.206 C 
HETATM   15  N   UNL     1      25.902  39.853  49.690  1.00  0.00    -0.066 N 
HETATM   16  H   UNL     1      25.001  39.565  50.135  1.00  0.00     0.280 HD
HETATM   17  C   UNL     1      26.881  38.706  49.631  1.00  0.00     0.235 C 
HETATM   18  C   UNL     1      28.250  39.344  49.862  1.00  0.00     0.030 C 
HETATM   19  C   UNL     1      27.995  40.797  50.249  1.00  0.00     0.036 C 
BRANCH  15  20
HETATM   20  C   UNL     1      25.523  40.413  48.341  1.00  0.00     0.231 C 
HETATM   21  C   UNL     1      25.560  39.329  47.275  1.00  0.00     0.034 C 
ENDBRANCH  15  20
ENDBRANCH  13  14
ENDBRANCH  10  13
ENDBRANCH   8   9
ENDBRANCH   1   8
BRANCH   2  22
HETATM   22  C   UNL     1      29.513  45.100  55.695  1.00  0.00    -0.005 A 
HETATM   23  C   UNL     1      29.986  45.447  56.968  1.00  0.00     0.017 A 
HETATM   24  C   UNL     1      30.937  44.646  57.606  1.00  0.00     0.043 A 
HETATM   25  C   UNL     1      31.403  43.497  56.976  1.00  0.00     0.116 A 
HETATM   26  F   UNL     1      32.313  42.732  57.592  1.00  0.00    -0.206 F 
HETATM   27  C   UNL     1      30.935  43.128  55.722  1.00  0.00     0.043 A 
HETATM   28  C   UNL     1      29.986  43.928  55.082  1.00  0.00     0.017 A 
ENDBRANCH   2  22
TORSDOF 6
ENDMDL
MODEL 4
REMARK VINA RESULT:      -8.2      2.184      3.432
REMARK  6 active torsions:
REMARK  status: ('A' for Active; 'I' for Inactive)
REMARK    1  A    between atoms: C_2  and  N_3 
REMARK    2  A    between atoms: C_5  and  C_6 
REMARK    3  A    between atoms: C_6  and  N_7 
REMARK       I    between atoms: N_7  and  C_8 
REMARK    4  A    between atoms: C_8  and  C_9 
REMARK    5  A    between atoms: C_9  and  C_10 
REMARK    6  A    between atoms: C_11  and  C_12 
ROOT
HETATM    1  C   UNL     1      27.404  45.594  54.425  1.00  0.00     0.006 A 
HETATM    2  C   UNL     1      28.611  45.963  55.113  1.00  0.00     0.096 A 
HETATM    3  N   UNL     1      28.752  47.293  55.160  1.00  0.00    -0.173 NA
HETATM    4  N   UNL     1      27.686  47.774  54.523  1.00  0.00    -0.282 N 
HETATM    5  H   UNL     1      27.597  48.782  54.446  1.00  0.00     0.189 HD
HETATM    6  C   UNL     1      26.823  46.809  54.084  1.00  0.00     0.033 A 
HETATM    7  C   UNL     1      25.555  47.176  53.412  1.00  0.00     0.070 C 
ENDROOT
BRANCH   1   8
HETATM    8  C   UNL     1      26.877  44.204  54.244  1.00  0.00     0.146 C 
BRANCH   8   9
HETATM    9  C   UNL     1      26.943  43.698  52.810  1.00  0.00     0.222 C 
HETATM   10  N   UNL     1      25.802  43.055  52.371  1.00  0.00    -0.359 N 
HETATM   11  H   UNL     1      25.078  42.879  53.063  1.00  0.00     0.162 HD
HETATM   12  O   UNL     1      27.919  43.863  52.077  1.00  0.00    -0.273 OA
BRANCH  10  13
HETATM   13  C   UNL     1      25.622  42.417  51.068  1.00  0.00     0.155 C 
BRANCH  13  14
HETATM   14  C   UNL     1      24.288  42.700  50.352  1.00  0.00     0.206 C 
HETATM   15  N   UNL     1      24.077  44.128  49.865  1.00  0.00    -0.066 N 
HETATM   16  H   UNL     1      23.916  44.684  50.735  1.00  0.00     0.280 HD
HETATM   17  C   UNL     1      22.820  44.020  49.037  1.00  0.00     0.235 C 
HETATM   18  C   UNL     1      22.867  42.618  48.430  1.00  0.00     0.030 C 
HETATM   19  C   UNL     1      24.037  41.896  49.090  1.00  0.00     0.036 C 
BRANCH  15  20
HETATM   20  C   UNL     1      25.226  44.809  49.160  1.00  0.00     0.231 C 
HETATM   21  C   UNL     1      25.762  45.964  49.991  1.00  0.00     0.034 C 
ENDBRANCH  15  20
ENDBRANCH  13  14
ENDBRANCH  10  13
ENDBRANCH   8   9
ENDBRANCH   1   8
BRANCH   2  22
HETATM   22  C   UNL     1      29.599  45.109  55.770  1.00  0.00    -0.005 A 
HETATM   23  C   UNL     1      30.087  45.416  57.048  1.00  0.00     0.017 A 
HETATM   24  C   UNL     1      31.028  44.581  57.658  1.00  0.00     0.043 A 
HETATM   25  C   UNL     1      31.469  43.441  56.995  1.00  0.00     0.116 A 
HETATM   26  F   UNL     1      32.370  42.644  57.584  1.00  0.00    -0.206 F 
HETATM   27  C   UNL     1      30.985  43.112  55.736  1.00  0.00     0.043 A 
HETATM   28  C   UNL     1      30.047  43.945  55.124  1.00  0.00     0.017 A 
ENDBRANCH   2  22
TORSDOF 6
ENDMDL
MODEL 5
REMARK VINA RESULT:      -8.2      2.625      4.187
REMARK  6 active torsions:
REMARK  status: ('A' for Active; 'I' for Inactive)
REMARK    1  A    between atoms: C_2  and  N_3 
REMARK    2  A    between atoms: C_5  and  C_6 
REMARK    3  A    between atoms: C_6  and  N_7 
REMARK       I    between atoms: N_7  and  C_8 
REMARK    4  A    between atoms: C_8  and  C_9 
REMARK    5  A    between atoms: C_9  and  C_10 
REMARK    6  A    between atoms: C_11  and  C_12 
ROOT
HETATM    1  C   UNL     1      29.187  44.883  55.709  1.00  0.00     0.006 A 
HETATM    2  C   UNL     1      29.669  43.850  54.834  1.00  0.00     0.096 A 
HETATM    3  N   UNL     1      30.930  43.515  55.133  1.00  0.00    -0.173 NA
HETATM    4  N   UNL     1      31.262  44.302  56.155  1.00  0.00    -0.282 N 
HETATM    5  H   UNL     1      32.195  44.205  56.542  1.00  0.00     0.189 HD
HETATM    6  C   UNL     1      30.252  45.125  56.569  1.00  0.00     0.033 A 
HETATM    7  C   UNL     1      30.434  46.019  57.735  1.00  0.00     0.070 C 
ENDROOT
BRANCH   1   8
HETATM    8  C   UNL     1      27.804  45.456  55.725  1.00  0.00     0.146 C 
BRANCH   8   9
HETATM    9  C   UNL     1      27.595  46.601  54.743  1.00  0.00     0.222 C 
HETATM   10  N   UNL     1      26.581  46.399  53.828  1.00  0.00    -0.359 N 
HETATM   11  H   UNL     1      26.148  45.479  53.815  1.00  0.00     0.162 HD
HETATM   12  O   UNL     1      28.253  47.643  54.767  1.00  0.00    -0.273 OA
BRANCH  10  13
HETATM   13  C   UNL     1      26.215  47.302  52.738  1.00  0.00     0.155 C 
BRANCH  13  14
HETATM   14  C   UNL     1      25.132  46.792  51.768  1.00  0.00     0.206 C 
HETATM   15  N   UNL     1      25.252  47.257  50.323  1.00  0.00    -0.066 N 
HETATM   16  H   UNL     1      24.986  48.267  50.347  1.00  0.00     0.280 HD
HETATM   17  C   UNL     1      24.209  46.428  49.614  1.00  0.00     0.235 C 
HETATM   18  C   UNL     1      24.180  45.100  50.371  1.00  0.00     0.030 C 
HETATM   19  C   UNL     1      25.052  45.285  51.609  1.00  0.00     0.036 C 
BRANCH  15  20
HETATM   20  C   UNL     1      26.617  47.217  49.680  1.00  0.00     0.231 C 
HETATM   21  C   UNL     1      27.069  48.612  49.281  1.00  0.00     0.034 C 
ENDBRANCH  15  20
ENDBRANCH  13  14
ENDBRANCH  10  13
ENDBRANCH   8   9
ENDBRANCH   1   8
BRANCH   2  22
HETATM   22  C   UNL     1      28.966  43.135  53.771  1.00  0.00    -0.005 A 
HETATM   23  C   UNL     1      28.627  43.771  52.569  1.00  0.00     0.017 A 
HETATM   24  C   UNL     1      27.958  43.065  51.566  1.00  0.00     0.043 A 
HETATM   25  C   UNL     1      27.641  41.725  51.762  1.00  0.00     0.116 A 
HETATM   26  F   UNL     1      27.001  41.052  50.797  1.00  0.00    -0.206 F 
HETATM   27  C   UNL     1      27.983  41.073  52.939  1.00  0.00     0.043 A 
HETATM   28  C   UNL     1      28.649  41.778  53.944  1.00  0.00     0.017 A 
ENDBRANCH   2  22
TORSDOF 6
ENDMDL
MODEL 6
REMARK VINA RESULT:      -8.1      4.557      9.437
REMARK  6 active torsions:
REMARK  status: ('A' for Active; 'I' for Inactive)
REMARK    1  A    between atoms: C_2  and  N_3 
REMARK    2  A    between atoms: C_5  and  C_6 
REMARK    3  A    between atoms: C_6  and  N_7 
REMARK       I    between atoms: N_7  and  C_8 
REMARK    4  A    between atoms: C_8  and  C_9 
REMARK    5  A    between atoms: C_9  and  C_10 
REMARK    6  A    between atoms: C_11  and  C_12 
ROOT
HETATM    1  C   UNL     1      25.088  48.831  49.170  1.00  0.00     0.006 A 
HETATM    2  C   UNL     1      24.321  49.654  48.276  1.00  0.00     0.096 A 
HETATM    3  N   UNL     1      25.114  50.280  47.398  1.00  0.00    -0.173 NA
HETATM    4  N   UNL     1      26.349  49.889  47.709  1.00  0.00    -0.282 N 
HETATM    5  H   UNL     1      27.114  50.254  47.153  1.00  0.00     0.189 HD
HETATM    6  C   UNL     1      26.400  48.996  48.744  1.00  0.00     0.033 A 
HETATM    7  C   UNL     1      27.690  48.412  49.175  1.00  0.00     0.070 C 
ENDROOT
BRANCH   1   8
HETATM    8  C   UNL     1      24.540  47.927  50.231  1.00  0.00     0.146 C 
BRANCH   8   9
HETATM    9  C   UNL     1      24.929  46.464  50.062  1.00  0.00     0.222 C 
HETATM   10  N   UNL     1      25.751  45.966  51.054  1.00  0.00    -0.359 N 
HETATM   11  H   UNL     1      26.109  46.633  51.733  1.00  0.00     0.162 HD
HETATM   12  O   UNL     1      24.530  45.760  49.133  1.00  0.00    -0.273 OA
BRANCH  10  13
HETATM   13  C   UNL     1      26.325  44.623  51.101  1.00  0.00     0.155 C 
BRANCH  13  14
HETATM   14  C   UNL     1      26.405  43.967  52.492  1.00  0.00     0.206 C 
HETATM   15  N   UNL     1      27.589  43.038  52.729  1.00  0.00    -0.066 N 
HETATM   16  H   UNL     1      27.377  42.188  52.160  1.00  0.00     0.280 HD
HETATM   17  C   UNL     1      27.501  42.750  54.208  1.00  0.00     0.235 C 
HETATM   18  C   UNL     1      26.929  44.027  54.825  1.00  0.00     0.030 C 
HETATM   19  C   UNL     1      26.516  44.925  53.663  1.00  0.00     0.036 C 
BRANCH  15  20
HETATM   20  C   UNL     1      28.950  43.500  52.268  1.00  0.00     0.231 C 
HETATM   21  C   UNL     1      30.050  42.848  53.091  1.00  0.00     0.034 C 
ENDBRANCH  15  20
ENDBRANCH  13  14
ENDBRANCH  10  13
ENDBRANCH   8   9
ENDBRANCH   1   8
BRANCH   2  22
HETATM   22  C   UNL     1      22.872  49.825  48.189  1.00  0.00    -0.005 A 
HETATM   23  C   UNL     1      22.042  48.778  47.763  1.00  0.00     0.017 A 
HETATM   24  C   UNL     1      20.659  48.964  47.692  1.00  0.00     0.043 A 
HETATM   25  C   UNL     1      20.109  50.189  48.055  1.00  0.00     0.116 A 
HETATM   26  F   UNL     1      18.784  50.362  47.986  1.00  0.00    -0.206 F 
HETATM   27  C   UNL     1      20.913  51.232  48.494  1.00  0.00     0.043 A 
HETATM   28  C   UNL     1      22.296  51.049  48.564  1.00  0.00     0.017 A 
ENDBRANCH   2  22
TORSDOF 6
ENDMDL
MODEL 7
REMARK VINA RESULT:      -7.9      1.938      2.907
REMARK  6 active torsions:
REMARK  status: ('A' for Active; 'I' for Inactive)
REMARK    1  A    between atoms: C_2  and  N_3 
REMARK    2  A    between atoms: C_5  and  C_6 
REMARK    3  A    between atoms: C_6  and  N_7 
REMARK       I    between atoms: N_7  and  C_8 
REMARK    4  A    between atoms: C_8  and  C_9 
REMARK    5  A    between atoms: C_9  and  C_10 
REMARK    6  A    between atoms: C_11  and  C_12 
ROOT
HETATM    1  C   UNL     1      27.613  42.863  52.059  1.00  0.00     0.006 A 
HETATM    2  C   UNL     1      28.127  42.575  53.370  1.00  0.00     0.096 A 
HETATM    3  N   UNL     1      27.976  41.281  53.674  1.00  0.00    -0.173 NA
HETATM    4  N   UNL     1      27.380  40.745  52.609  1.00  0.00    -0.282 N 
HETATM    5  H   UNL     1      27.172  39.752  52.634  1.00  0.00     0.189 HD
HETATM    6  C   UNL     1      27.162  41.634  51.594  1.00  0.00     0.033 A 
HETATM    7  C   UNL     1      26.566  41.188  50.314  1.00  0.00     0.070 C 
ENDROOT
BRANCH   1   8
HETATM    8  C   UNL     1      27.677  44.182  51.352  1.00  0.00     0.146 C 
BRANCH   8   9
HETATM    9  C   UNL     1      26.339  44.904  51.266  1.00  0.00     0.222 C 
HETATM   10  N   UNL     1      25.980  45.304  49.993  1.00  0.00    -0.359 N 
HETATM   11  H   UNL     1      26.675  45.187  49.261  1.00  0.00     0.162 HD
HETATM   12  O   UNL     1      25.610  45.100  52.239  1.00  0.00    -0.273 OA
BRANCH  10  13
HETATM   13  C   UNL     1      24.787  46.071  49.638  1.00  0.00     0.155 C 
BRANCH  13  14
HETATM   14  C   UNL     1      23.514  45.253  49.353  1.00  0.00     0.206 C 
HETATM   15  N   UNL     1      22.245  46.054  49.090  1.00  0.00    -0.066 N 
HETATM   16  H   UNL     1      21.982  46.445  50.021  1.00  0.00     0.280 HD
HETATM   17  C   UNL     1      21.267  44.997  48.637  1.00  0.00     0.235 C 
HETATM   18  C   UNL     1      22.117  43.960  47.903  1.00  0.00     0.030 C 
HETATM   19  C   UNL     1      23.574  44.348  48.136  1.00  0.00     0.036 C 
BRANCH  15  20
HETATM   20  C   UNL     1      22.343  47.243  48.166  1.00  0.00     0.231 C 
HETATM   21  C   UNL     1      22.069  48.536  48.918  1.00  0.00     0.034 C 
ENDBRANCH  15  20
ENDBRANCH  13  14
ENDBRANCH  10  13
ENDBRANCH   8   9
ENDBRANCH   1   8
BRANCH   2  22
HETATM   22  C   UNL     1      28.803  43.463  54.314  1.00  0.00    -0.005 A 
HETATM   23  C   UNL     1      30.101  43.191  54.766  1.00  0.00     0.017 A 
HETATM   24  C   UNL     1      30.728  44.057  55.665  1.00  0.00     0.043 A 
HETATM   25  C   UNL     1      30.060  45.197  56.102  1.00  0.00     0.116 A 
HETATM   26  F   UNL     1      30.665  46.025  56.963  1.00  0.00    -0.206 F 
HETATM   27  C   UNL     1      28.780  45.492  55.653  1.00  0.00     0.043 A 
HETATM   28  C   UNL     1      28.152  44.626  54.756  1.00  0.00     0.017 A 
ENDBRANCH   2  22
TORSDOF 6
ENDMDL
MODEL 8
REMARK VINA RESULT:      -7.8      4.504      8.397
REMARK  6 active torsions:
REMARK  status: ('A' for Active; 'I' for Inactive)
REMARK    1  A    between atoms: C_2  and  N_3 
REMARK    2  A    between atoms: C_5  and  C_6 
REMARK    3  A    between atoms: C_6  and  N_7 
REMARK       I    between atoms: N_7  and  C_8 
REMARK    4  A    between atoms: C_8  and  C_9 
REMARK    5  A    between atoms: C_9  and  C_10 
REMARK    6  A    between atoms: C_11  and  C_12 
ROOT
HETATM    1  C   UNL     1      21.905  47.705  48.543  1.00  0.00     0.006 A 
HETATM    2  C   UNL     1      22.745  48.763  49.032  1.00  0.00     0.096 A 
HETATM    3  N   UNL     1      22.024  49.701  49.658  1.00  0.00    -0.173 NA
HETATM    4  N   UNL     1      20.763  49.278  49.574  1.00  0.00    -0.282 N 
HETATM    5  H   UNL     1      20.042  49.855  49.996  1.00  0.00     0.189 HD
HETATM    6  C   UNL     1      20.626  48.072  48.944  1.00  0.00     0.033 A 
HETATM    7  C   UNL     1      19.299  47.428  48.823  1.00  0.00     0.070 C 
ENDROOT
BRANCH   1   8
HETATM    8  C   UNL     1      22.364  46.452  47.862  1.00  0.00     0.146 C 
BRANCH   8   9
HETATM    9  C   UNL     1      22.316  45.213  48.746  1.00  0.00     0.222 C 
HETATM   10  N   UNL     1      23.350  45.112  49.656  1.00  0.00    -0.359 N 
HETATM   11  H   UNL     1      24.098  45.797  49.581  1.00  0.00     0.162 HD
HETATM   12  O   UNL     1      21.418  44.371  48.685  1.00  0.00    -0.273 OA
BRANCH  10  13
HETATM   13  C   UNL     1      23.582  43.997  50.572  1.00  0.00     0.155 C 
BRANCH  13  14
HETATM   14  C   UNL     1      24.990  43.910  51.191  1.00  0.00     0.206 C 
HETATM   15  N   UNL     1      25.532  42.506  51.432  1.00  0.00    -0.066 N 
HETATM   16  H   UNL     1      24.976  42.143  52.238  1.00  0.00     0.280 HD
HETATM   17  C   UNL     1      26.968  42.761  51.820  1.00  0.00     0.235 C 
HETATM   18  C   UNL     1      27.374  44.006  51.032  1.00  0.00     0.030 C 
HETATM   19  C   UNL     1      26.104  44.544  50.380  1.00  0.00     0.036 C 
BRANCH  15  20
HETATM   20  C   UNL     1      25.359  41.487  50.332  1.00  0.00     0.231 C 
HETATM   21  C   UNL     1      26.323  40.325  50.516  1.00  0.00     0.034 C 
ENDBRANCH  15  20
ENDBRANCH  13  14
ENDBRANCH  10  13
ENDBRANCH   8   9
ENDBRANCH   1   8
BRANCH   2  22
HETATM   22  C   UNL     1      24.200  48.889  48.979  1.00  0.00    -0.005 A 
HETATM   23  C   UNL     1      24.817  49.837  48.150  1.00  0.00     0.017 A 
HETATM   24  C   UNL     1      26.210  49.941  48.120  1.00  0.00     0.043 A 
HETATM   25  C   UNL     1      26.981  49.108  48.924  1.00  0.00     0.116 A 
HETATM   26  F   UNL     1      28.315  49.212  48.893  1.00  0.00    -0.206 F 
HETATM   27  C   UNL     1      26.387  48.174  49.763  1.00  0.00     0.043 A 
HETATM   28  C   UNL     1      24.996  48.067  49.793  1.00  0.00     0.017 A 
ENDBRANCH   2  22
TORSDOF 6
ENDMDL
MODEL 9
REMARK VINA RESULT:      -7.8      3.206      4.740
REMARK  6 active torsions:
REMARK  status: ('A' for Active; 'I' for Inactive)
REMARK    1  A    between atoms: C_2  and  N_3 
REMARK    2  A    between atoms: C_5  and  C_6 
REMARK    3  A    between atoms: C_6  and  N_7 
REMARK       I    between atoms: N_7  and  C_8 
REMARK    4  A    between atoms: C_8  and  C_9 
REMARK    5  A    between atoms: C_9  and  C_10 
REMARK    6  A    between atoms: C_11  and  C_12 
ROOT
HETATM    1  C   UNL     1      26.713  46.072  53.980  1.00  0.00     0.006 A 
HETATM    2  C   UNL     1      27.826  45.165  54.052  1.00  0.00     0.096 A 
HETATM    3  N   UNL     1      28.769  45.626  54.883  1.00  0.00    -0.173 NA
HETATM    4  N   UNL     1      28.297  46.789  55.329  1.00  0.00    -0.282 N 
HETATM    5  H   UNL     1      28.869  47.311  55.985  1.00  0.00     0.189 HD
HETATM    6  C   UNL     1      27.055  47.100  54.849  1.00  0.00     0.033 A 
HETATM    7  C   UNL     1      26.358  48.328  55.295  1.00  0.00     0.070 C 
ENDROOT
BRANCH   1   8
HETATM    8  C   UNL     1      25.444  45.856  53.215  1.00  0.00     0.146 C 
BRANCH   8   9
HETATM    9  C   UNL     1      25.380  46.612  51.895  1.00  0.00     0.222 C 
HETATM   10  N   UNL     1      24.498  46.086  50.970  1.00  0.00    -0.359 N 
HETATM   11  H   UNL     1      24.064  45.196  51.203  1.00  0.00     0.162 HD
HETATM   12  O   UNL     1      26.035  47.629  51.663  1.00  0.00    -0.273 OA
BRANCH  10  13
HETATM   13  C   UNL     1      24.291  46.572  49.607  1.00  0.00     0.155 C 
BRANCH  13  14
HETATM   14  C   UNL     1      22.888  47.123  49.289  1.00  0.00     0.206 C 
HETATM   15  N   UNL     1      22.709  48.629  49.431  1.00  0.00    -0.066 N 
HETATM   16  H   UNL     1      22.722  48.801  50.461  1.00  0.00     0.280 HD
HETATM   17  C   UNL     1      21.337  48.862  48.848  1.00  0.00     0.235 C 
HETATM   18  C   UNL     1      21.190  47.808  47.750  1.00  0.00     0.030 C 
HETATM   19  C   UNL     1      22.392  46.877  47.876  1.00  0.00     0.036 C 
BRANCH  15  20
HETATM   20  C   UNL     1      23.784  49.522  48.861  1.00  0.00     0.231 C 
HETATM   21  C   UNL     1      23.222  50.893  48.518  1.00  0.00     0.034 C 
ENDBRANCH  15  20
ENDBRANCH  13  14
ENDBRANCH  10  13
ENDBRANCH   8   9
ENDBRANCH   1   8
BRANCH   2  22
HETATM   22  C   UNL     1      28.002  43.863  53.413  1.00  0.00    -0.005 A 
HETATM   23  C   UNL     1      28.010  42.680  54.165  1.00  0.00     0.017 A 
HETATM   24  C   UNL     1      28.175  41.446  53.530  1.00  0.00     0.043 A 
HETATM   25  C   UNL     1      28.321  41.397  52.148  1.00  0.00     0.116 A 
HETATM   26  F   UNL     1      28.478  40.213  51.544  1.00  0.00    -0.206 F 
HETATM   27  C   UNL     1      28.300  42.557  51.384  1.00  0.00     0.043 A 
HETATM   28  C   UNL     1      28.137  43.791  52.017  1.00  0.00     0.017 A 
ENDBRANCH   2  22
TORSDOF 6
ENDMDL
MODEL 10
REMARK VINA RESULT:      -7.7      3.063      4.600
REMARK  6 active torsions:
REMARK  status: ('A' for Active; 'I' for Inactive)
REMARK    1  A    between atoms: C_2  and  N_3 
REMARK    2  A    between atoms: C_5  and  C_6 
REMARK    3  A    between atoms: C_6  and  N_7 
REMARK       I    between atoms: N_7  and  C_8 
REMARK    4  A    between atoms: C_8  and  C_9 
REMARK    5  A    between atoms: C_9  and  C_10 
REMARK    6  A    between atoms: C_11  and  C_12 
ROOT
HETATM    1  C   UNL     1      26.922  46.067  54.486  1.00  0.00     0.006 A 
HETATM    2  C   UNL     1      28.124  45.283  54.562  1.00  0.00     0.096 A 
HETATM    3  N   UNL     1      29.065  45.911  55.278  1.00  0.00    -0.173 NA
HETATM    4  N   UNL     1      28.504  47.062  55.647  1.00  0.00    -0.282 N 
HETATM    5  H   UNL     1      29.059  47.699  56.210  1.00  0.00     0.189 HD
HETATM    6  C   UNL     1      27.209  47.204  55.231  1.00  0.00     0.033 A 
HETATM    7  C   UNL     1      26.419  48.397  55.611  1.00  0.00     0.070 C 
ENDROOT
BRANCH   1   8
HETATM    8  C   UNL     1      25.637  45.656  53.836  1.00  0.00     0.146 C 
BRANCH   8   9
HETATM    9  C   UNL     1      25.436  46.231  52.440  1.00  0.00     0.222 C 
HETATM   10  N   UNL     1      24.635  45.469  51.612  1.00  0.00    -0.359 N 
HETATM   11  H   UNL     1      24.349  44.557  51.959  1.00  0.00     0.162 HD
HETATM   12  O   UNL     1      25.921  47.301  52.071  1.00  0.00    -0.273 OA
BRANCH  10  13
HETATM   13  C   UNL     1      24.335  45.752  50.209  1.00  0.00     0.155 C 
BRANCH  13  14
HETATM   14  C   UNL     1      23.881  44.552  49.357  1.00  0.00     0.206 C 
HETATM   15  N   UNL     1      24.987  43.758  48.672  1.00  0.00    -0.066 N 
HETATM   16  H   UNL     1      25.325  44.383  47.907  1.00  0.00     0.280 HD
HETATM   17  C   UNL     1      24.252  42.560  48.124  1.00  0.00     0.235 C 
HETATM   18  C   UNL     1      23.129  42.293  49.126  1.00  0.00     0.030 C 
HETATM   19  C   UNL     1      23.128  43.465  50.102  1.00  0.00     0.036 C 
BRANCH  15  20
HETATM   20  C   UNL     1      26.213  43.415  49.483  1.00  0.00     0.231 C 
HETATM   21  C   UNL     1      26.858  42.136  48.973  1.00  0.00     0.034 C 
ENDBRANCH  15  20
ENDBRANCH  13  14
ENDBRANCH  10  13
ENDBRANCH   8   9
ENDBRANCH   1   8
BRANCH   2  22
HETATM   22  C   UNL     1      28.393  43.947  54.034  1.00  0.00    -0.005 A 
HETATM   23  C   UNL     1      29.615  43.642  53.419  1.00  0.00     0.017 A 
HETATM   24  C   UNL     1      29.850  42.355  52.926  1.00  0.00     0.043 A 
HETATM   25  C   UNL     1      28.869  41.378  53.058  1.00  0.00     0.116 A 
HETATM   26  F   UNL     1      29.100  40.147  52.585  1.00  0.00    -0.206 F 
HETATM   27  C   UNL     1      27.659  41.657  53.677  1.00  0.00     0.043 A 
HETATM   28  C   UNL     1      27.421  42.942  54.169  1.00  0.00     0.017 A 
ENDBRANCH   2  22
TORSDOF 6
ENDMDL
