MODEL 1
REMARK VINA RESULT:     -10.3      0.000      0.000
REMARK  3 active torsions:
REMARK  status: ('A' for Active; 'I' for Inactive)
REMARK    1  A    between atoms: N_4  and  C_5 
REMARK    2  A    between atoms: C_5  and  C_6 
REMARK       I    between atoms: C_6  and  N_7 
REMARK    3  A    between atoms: N_7  and  C_8 
ROOT
HETATM    1  C   UNL     1      26.253  44.461  51.789  1.00  0.00     0.257 C 
ENDROOT
BRANCH   1   2
HETATM    2  N   UNL     1      27.087  44.605  52.984  1.00  0.00    -0.225 N 
HETATM    3  N   UNL     1      26.982  45.814  53.635  1.00  0.00    -0.173 NA
HETATM    4  C   UNL     1      27.814  46.105  54.586  1.00  0.00     0.062 A 
HETATM    5  C   UNL     1      27.668  47.454  55.252  1.00  0.00     0.073 C 
HETATM    6  C   UNL     1      28.892  45.199  55.025  1.00  0.00     0.006 A 
HETATM    7  C   UNL     1      29.008  43.985  54.358  1.00  0.00     0.046 A 
HETATM    8  C   UNL     1      29.783  45.517  56.057  1.00  0.00     0.014 A 
HETATM    9  C   UNL     1      28.086  43.675  53.250  1.00  0.00     0.275 A 
HETATM   10  C   UNL     1      30.008  43.074  54.724  1.00  0.00     0.018 A 
HETATM   11  O   UNL     1      28.222  42.628  52.618  1.00  0.00    -0.266 OA
HETATM   12  C   UNL     1      30.895  43.389  55.754  1.00  0.00     0.001 A 
HETATM   13  C   UNL     1      30.784  44.611  56.416  1.00  0.00     0.001 A 
ENDBRANCH   1   2
BRANCH   1  14
HETATM   14  C   UNL     1      26.637  45.327  50.585  1.00  0.00     0.238 C 
HETATM   15  N   UNL     1      26.138  46.610  50.589  1.00  0.00    -0.351 N 
HETATM   16  H   UNL     1      25.581  46.916  51.387  1.00  0.00     0.163 HD
HETATM   17  O   UNL     1      27.215  44.855  49.607  1.00  0.00    -0.272 OA
BRANCH  15  18
HETATM   18  C   UNL     1      26.182  47.441  49.413  1.00  0.00     0.118 C 
HETATM   19  C   UNL     1      24.922  48.231  49.187  1.00  0.00    -0.029 A 
HETATM   20  C   UNL     1      25.225  49.521  48.733  1.00  0.00    -0.050 A 
HETATM   21  C   UNL     1      23.604  47.813  49.304  1.00  0.00     0.010 A 
HETATM   22  C   UNL     1      24.225  50.416  48.393  1.00  0.00     0.007 A 
HETATM   23  C   UNL     1      26.706  49.713  48.627  1.00  0.00     0.041 C 
HETATM   24  C   UNL     1      22.896  50.006  48.525  1.00  0.00     0.001 A 
HETATM   25  C   UNL     1      22.588  48.714  48.978  1.00  0.00     0.001 A 
HETATM   26  C   UNL     1      27.223  48.572  49.515  1.00  0.00     0.034 C 
ENDBRANCH  15  18
ENDBRANCH   1  14
TORSDOF 3
ENDMDL
MODEL 2
REMARK VINA RESULT:     -10.2      1.270      2.128
REMARK  3 active torsions:
REMARK  status: ('A' for Active; 'I' for Inactive)
REMARK    1  A    between atoms: N_4  and  C_5 
REMARK    2  A    between atoms: C_5  and  C_6 
REMARK       I    between atoms: C_6  and  N_7 
REMARK    3  A    between atoms: N_7  and  C_8 
ROOT
HETATM    1  C   UNL     1      26.029  45.659  52.526  1.00  0.00     0.257 C 
ENDROOT
BRANCH   1   2
HETATM    2  N   UNL     1      27.261  45.262  53.211  1.00  0.00    -0.225 N 
HETATM    3  N   UNL     1      27.837  44.097  52.757  1.00  0.00    -0.173 NA
HETATM    4  C   UNL     1      28.818  43.566  53.420  1.00  0.00     0.062 A 
HETATM    5  C   UNL     1      29.401  42.276  52.891  1.00  0.00     0.073 C 
HETATM    6  C   UNL     1      29.367  44.148  54.660  1.00  0.00     0.006 A 
HETATM    7  C   UNL     1      28.774  45.316  55.127  1.00  0.00     0.046 A 
HETATM    8  C   UNL     1      30.429  43.573  55.368  1.00  0.00     0.014 A 
HETATM    9  C   UNL     1      27.633  45.893  54.392  1.00  0.00     0.275 A 
HETATM   10  C   UNL     1      29.245  45.924  56.297  1.00  0.00     0.018 A 
HETATM   11  O   UNL     1      27.067  46.893  54.834  1.00  0.00    -0.266 OA
HETATM   12  C   UNL     1      30.305  45.354  57.002  1.00  0.00     0.001 A 
HETATM   13  C   UNL     1      30.894  44.178  56.538  1.00  0.00     0.001 A 
ENDBRANCH   1   2
BRANCH   1  14
HETATM   14  C   UNL     1      26.165  46.041  51.049  1.00  0.00     0.238 C 
HETATM   15  N   UNL     1      26.345  47.381  50.793  1.00  0.00    -0.351 N 
HETATM   16  H   UNL     1      26.408  48.025  51.581  1.00  0.00     0.163 HD
HETATM   17  O   UNL     1      25.964  45.225  50.149  1.00  0.00    -0.272 OA
BRANCH  15  18
HETATM   18  C   UNL     1      26.216  47.920  49.462  1.00  0.00     0.118 C 
HETATM   19  C   UNL     1      24.894  48.593  49.214  1.00  0.00    -0.029 A 
HETATM   20  C   UNL     1      25.070  49.754  48.449  1.00  0.00    -0.050 A 
HETATM   21  C   UNL     1      23.622  48.170  49.574  1.00  0.00     0.010 A 
HETATM   22  C   UNL     1      23.988  50.513  48.035  1.00  0.00     0.007 A 
HETATM   23  C   UNL     1      26.518  49.965  48.130  1.00  0.00     0.041 C 
HETATM   24  C   UNL     1      22.708  50.100  48.410  1.00  0.00     0.001 A 
HETATM   25  C   UNL     1      22.526  48.937  49.175  1.00  0.00     0.001 A 
HETATM   26  C   UNL     1      27.192  49.078  49.185  1.00  0.00     0.034 C 
ENDBRANCH  15  18
ENDBRANCH   1  14
TORSDOF 3
ENDMDL
MODEL 3
REMARK VINA RESULT:     -10.1      1.085      2.038
REMARK  3 active torsions:
REMARK  status: ('A' for Active; 'I' for Inactive)
REMARK    1  A    between atoms: N_4  and  C_5 
REMARK    2  A    between atoms: C_5  and  C_6 
REMARK       I    between atoms: C_6  and  N_7 
REMARK    3  A    between atoms: N_7  and  C_8 
ROOT
HETATM    1  C   UNL     1      26.445  43.792  51.862  1.00  0.00     0.257 C 
ENDROOT
BRANCH   1   2
HETATM    2  N   UNL     1      27.250  44.091  53.048  1.00  0.00    -0.225 N 
HETATM    3  N   UNL     1      27.097  45.360  53.559  1.00  0.00    -0.173 NA
HETATM    4  C   UNL     1      27.901  45.779  54.486  1.00  0.00     0.062 A 
HETATM    5  C   UNL     1      27.703  47.188  54.997  1.00  0.00     0.073 C 
HETATM    6  C   UNL     1      28.995  44.961  55.041  1.00  0.00     0.006 A 
HETATM    7  C   UNL     1      29.160  43.685  54.513  1.00  0.00     0.046 A 
HETATM    8  C   UNL     1      29.856  45.417  56.046  1.00  0.00     0.014 A 
HETATM    9  C   UNL     1      28.269  43.227  53.431  1.00  0.00     0.275 A 
HETATM   10  C   UNL     1      30.178  42.851  54.994  1.00  0.00     0.018 A 
HETATM   11  O   UNL     1      28.449  42.122  52.920  1.00  0.00    -0.266 OA
HETATM   12  C   UNL     1      31.035  43.304  55.998  1.00  0.00     0.001 A 
HETATM   13  C   UNL     1      30.875  44.587  56.520  1.00  0.00     0.001 A 
ENDBRANCH   1   2
BRANCH   1  14
HETATM   14  C   UNL     1      25.375  44.822  51.488  1.00  0.00     0.238 C 
HETATM   15  N   UNL     1      25.803  45.874  50.711  1.00  0.00    -0.351 N 
HETATM   16  H   UNL     1      26.777  45.892  50.407  1.00  0.00     0.163 HD
HETATM   17  O   UNL     1      24.249  44.795  51.986  1.00  0.00    -0.272 OA
BRANCH  15  18
HETATM   18  C   UNL     1      24.991  47.047  50.511  1.00  0.00     0.118 C 
HETATM   19  C   UNL     1      25.666  48.113  49.693  1.00  0.00    -0.029 A 
HETATM   20  C   UNL     1      24.751  48.712  48.816  1.00  0.00    -0.050 A 
HETATM   21  C   UNL     1      26.974  48.570  49.771  1.00  0.00     0.010 A 
HETATM   22  C   UNL     1      25.123  49.769  48.002  1.00  0.00     0.007 A 
HETATM   23  C   UNL     1      23.394  48.095  48.961  1.00  0.00     0.041 C 
HETATM   24  C   UNL     1      26.443  50.220  48.065  1.00  0.00     0.001 A 
HETATM   25  C   UNL     1      27.362  49.625  48.942  1.00  0.00     0.001 A 
HETATM   26  C   UNL     1      23.737  46.772  49.661  1.00  0.00     0.034 C 
ENDBRANCH  15  18
ENDBRANCH   1  14
TORSDOF 3
ENDMDL
MODEL 4
REMARK VINA RESULT:      -9.6      1.727      8.370
REMARK  3 active torsions:
REMARK  status: ('A' for Active; 'I' for Inactive)
REMARK    1  A    between atoms: N_4  and  C_5 
REMARK    2  A    between atoms: C_5  and  C_6 
REMARK       I    between atoms: C_6  and  N_7 
REMARK    3  A    between atoms: N_7  and  C_8 
ROOT
HETATM    1  C   UNL     1      25.355  45.359  50.405  1.00  0.00     0.257 C 
ENDROOT
BRANCH   1   2
HETATM    2  N   UNL     1      24.428  46.362  49.878  1.00  0.00    -0.225 N 
HETATM    3  N   UNL     1      23.282  45.861  49.303  1.00  0.00    -0.173 NA
HETATM    4  C   UNL     1      22.495  46.655  48.644  1.00  0.00     0.062 A 
HETATM    5  C   UNL     1      21.262  46.049  48.013  1.00  0.00     0.073 C 
HETATM    6  C   UNL     1      22.759  48.095  48.468  1.00  0.00     0.006 A 
HETATM    7  C   UNL     1      23.924  48.598  49.036  1.00  0.00     0.046 A 
HETATM    8  C   UNL     1      21.903  48.948  47.761  1.00  0.00     0.014 A 
HETATM    9  C   UNL     1      24.836  47.685  49.749  1.00  0.00     0.275 A 
HETATM   10  C   UNL     1      24.238  49.958  48.910  1.00  0.00     0.018 A 
HETATM   11  O   UNL     1      25.898  48.114  50.202  1.00  0.00    -0.266 OA
HETATM   12  C   UNL     1      23.384  50.809  48.208  1.00  0.00     0.001 A 
HETATM   13  C   UNL     1      22.220  50.302  47.631  1.00  0.00     0.001 A 
ENDBRANCH   1   2
BRANCH   1  14
HETATM   14  C   UNL     1      25.428  45.235  51.930  1.00  0.00     0.238 C 
HETATM   15  N   UNL     1      26.512  45.836  52.527  1.00  0.00    -0.351 N 
HETATM   16  H   UNL     1      27.174  46.344  51.940  1.00  0.00     0.163 HD
HETATM   17  O   UNL     1      24.656  44.510  52.557  1.00  0.00    -0.272 OA
BRANCH  15  18
HETATM   18  C   UNL     1      26.860  45.574  53.901  1.00  0.00     0.118 C 
HETATM   19  C   UNL     1      28.070  44.693  54.057  1.00  0.00    -0.029 A 
HETATM   20  C   UNL     1      28.867  45.139  55.120  1.00  0.00    -0.050 A 
HETATM   21  C   UNL     1      28.400  43.541  53.359  1.00  0.00     0.010 A 
HETATM   22  C   UNL     1      30.006  44.450  55.501  1.00  0.00     0.007 A 
HETATM   23  C   UNL     1      28.272  46.357  55.756  1.00  0.00     0.041 C 
HETATM   24  C   UNL     1      30.352  43.299  54.790  1.00  0.00     0.001 A 
HETATM   25  C   UNL     1      29.556  42.847  53.727  1.00  0.00     0.001 A 
HETATM   26  C   UNL     1      27.315  46.837  54.656  1.00  0.00     0.034 C 
ENDBRANCH  15  18
ENDBRANCH   1  14
TORSDOF 3
ENDMDL
MODEL 5
REMARK VINA RESULT:      -9.0      1.676      2.321
REMARK  3 active torsions:
REMARK  status: ('A' for Active; 'I' for Inactive)
REMARK    1  A    between atoms: N_4  and  C_5 
REMARK    2  A    between atoms: C_5  and  C_6 
REMARK       I    between atoms: C_6  and  N_7 
REMARK    3  A    between atoms: N_7  and  C_8 
ROOT
HETATM    1  C   UNL     1      26.899  43.223  51.725  1.00  0.00     0.257 C 
ENDROOT
BRANCH   1   2
HETATM    2  N   UNL     1      27.528  43.712  52.953  1.00  0.00    -0.225 N 
HETATM    3  N   UNL     1      27.100  44.949  53.382  1.00  0.00    -0.173 NA
HETATM    4  C   UNL     1      27.729  45.546  54.346  1.00  0.00     0.062 A 
HETATM    5  C   UNL     1      27.232  46.911  54.764  1.00  0.00     0.073 C 
HETATM    6  C   UNL     1      28.903  44.969  55.028  1.00  0.00     0.006 A 
HETATM    7  C   UNL     1      29.345  43.728  54.585  1.00  0.00     0.046 A 
HETATM    8  C   UNL     1      29.574  45.617  56.073  1.00  0.00     0.014 A 
HETATM    9  C   UNL     1      28.652  43.070  53.462  1.00  0.00     0.275 A 
HETATM   10  C   UNL     1      30.453  43.119  55.189  1.00  0.00     0.018 A 
HETATM   11  O   UNL     1      29.076  42.000  53.026  1.00  0.00    -0.266 OA
HETATM   12  C   UNL     1      31.121  43.763  56.231  1.00  0.00     0.001 A 
HETATM   13  C   UNL     1      30.683  45.012  56.669  1.00  0.00     0.001 A 
ENDBRANCH   1   2
BRANCH   1  14
HETATM   14  C   UNL     1      26.690  44.253  50.611  1.00  0.00     0.238 C 
HETATM   15  N   UNL     1      25.715  45.196  50.845  1.00  0.00    -0.351 N 
HETATM   16  H   UNL     1      25.221  45.177  51.737  1.00  0.00     0.163 HD
HETATM   17  O   UNL     1      27.243  44.144  49.517  1.00  0.00    -0.272 OA
BRANCH  15  18
HETATM   18  C   UNL     1      25.220  46.049  49.794  1.00  0.00     0.118 C 
HETATM   19  C   UNL     1      23.899  45.601  49.230  1.00  0.00    -0.029 A 
HETATM   20  C   UNL     1      23.077  46.706  48.972  1.00  0.00    -0.050 A 
HETATM   21  C   UNL     1      23.486  44.318  48.901  1.00  0.00     0.010 A 
HETATM   22  C   UNL     1      21.830  46.552  48.387  1.00  0.00     0.007 A 
HETATM   23  C   UNL     1      23.765  47.981  49.349  1.00  0.00     0.041 C 
HETATM   24  C   UNL     1      21.403  45.261  48.070  1.00  0.00     0.001 A 
HETATM   25  C   UNL     1      22.224  44.152  48.325  1.00  0.00     0.001 A 
HETATM   26  C   UNL     1      24.866  47.464  50.285  1.00  0.00     0.034 C 
ENDBRANCH  15  18
ENDBRANCH   1  14
TORSDOF 3
ENDMDL
MODEL 6
REMARK VINA RESULT:      -9.0      3.207      5.089
REMARK  3 active torsions:
REMARK  status: ('A' for Active; 'I' for Inactive)
REMARK    1  A    between atoms: N_4  and  C_5 
REMARK    2  A    between atoms: C_5  and  C_6 
REMARK       I    between atoms: C_6  and  N_7 
REMARK    3  A    between atoms: N_7  and  C_8 
ROOT
HETATM    1  C   UNL     1      25.618  45.766  53.220  1.00  0.00     0.257 C 
ENDROOT
BRANCH   1   2
HETATM    2  N   UNL     1      26.878  45.121  53.591  1.00  0.00    -0.225 N 
HETATM    3  N   UNL     1      27.024  43.821  53.160  1.00  0.00    -0.173 NA
HETATM    4  C   UNL     1      28.015  43.108  53.597  1.00  0.00     0.062 A 
HETATM    5  C   UNL     1      28.116  41.681  53.111  1.00  0.00     0.073 C 
HETATM    6  C   UNL     1      29.021  43.616  54.550  1.00  0.00     0.006 A 
HETATM    7  C   UNL     1      28.865  44.923  54.997  1.00  0.00     0.046 A 
HETATM    8  C   UNL     1      30.092  42.843  55.013  1.00  0.00     0.014 A 
HETATM    9  C   UNL     1      27.714  45.717  54.529  1.00  0.00     0.275 A 
HETATM   10  C   UNL     1      29.784  45.472  55.901  1.00  0.00     0.018 A 
HETATM   11  O   UNL     1      27.538  46.853  54.967  1.00  0.00    -0.266 OA
HETATM   12  C   UNL     1      30.853  44.703  56.361  1.00  0.00     0.001 A 
HETATM   13  C   UNL     1      31.004  43.389  55.920  1.00  0.00     0.001 A 
ENDBRANCH   1   2
BRANCH   1  14
HETATM   14  C   UNL     1      25.149  45.563  51.775  1.00  0.00     0.238 C 
HETATM   15  N   UNL     1      24.485  44.384  51.523  1.00  0.00    -0.351 N 
HETATM   16  H   UNL     1      24.319  43.741  52.298  1.00  0.00     0.163 HD
HETATM   17  O   UNL     1      25.487  46.328  50.872  1.00  0.00    -0.272 OA
BRANCH  15  18
HETATM   18  C   UNL     1      24.231  43.933  50.178  1.00  0.00     0.118 C 
HETATM   19  C   UNL     1      25.186  42.869  49.711  1.00  0.00    -0.029 A 
HETATM   20  C   UNL     1      24.510  41.898  48.959  1.00  0.00    -0.050 A 
HETATM   21  C   UNL     1      26.563  42.805  49.875  1.00  0.00     0.010 A 
HETATM   22  C   UNL     1      25.191  40.849  48.364  1.00  0.00     0.007 A 
HETATM   23  C   UNL     1      23.050  42.218  48.868  1.00  0.00     0.041 C 
HETATM   24  C   UNL     1      26.573  40.771  48.542  1.00  0.00     0.001 A 
HETATM   25  C   UNL     1      27.255  41.741  49.292  1.00  0.00     0.001 A 
HETATM   26  C   UNL     1      22.883  43.202  50.035  1.00  0.00     0.034 C 
ENDBRANCH  15  18
ENDBRANCH   1  14
TORSDOF 3
ENDMDL
MODEL 7
REMARK VINA RESULT:      -8.6      1.559      2.927
REMARK  3 active torsions:
REMARK  status: ('A' for Active; 'I' for Inactive)
REMARK    1  A    between atoms: N_4  and  C_5 
REMARK    2  A    between atoms: C_5  and  C_6 
REMARK       I    between atoms: C_6  and  N_7 
REMARK    3  A    between atoms: N_7  and  C_8 
ROOT
HETATM    1  C   UNL     1      26.049  43.648  51.595  1.00  0.00     0.257 C 
ENDROOT
BRANCH   1   2
HETATM    2  N   UNL     1      27.139  44.010  52.502  1.00  0.00    -0.225 N 
HETATM    3  N   UNL     1      28.267  43.226  52.411  1.00  0.00    -0.173 NA
HETATM    4  C   UNL     1      29.206  43.348  53.297  1.00  0.00     0.062 A 
HETATM    5  C   UNL     1      30.413  42.448  53.163  1.00  0.00     0.073 C 
HETATM    6  C   UNL     1      29.139  44.297  54.424  1.00  0.00     0.006 A 
HETATM    7  C   UNL     1      27.993  45.078  54.526  1.00  0.00     0.046 A 
HETATM    8  C   UNL     1      30.159  44.428  55.375  1.00  0.00     0.014 A 
HETATM    9  C   UNL     1      26.910  44.908  53.540  1.00  0.00     0.275 A 
HETATM   10  C   UNL     1      27.862  46.002  55.570  1.00  0.00     0.018 A 
HETATM   11  O   UNL     1      25.869  45.553  53.659  1.00  0.00    -0.266 OA
HETATM   12  C   UNL     1      28.879  46.134  56.516  1.00  0.00     0.001 A 
HETATM   13  C   UNL     1      30.024  45.345  56.419  1.00  0.00     0.001 A 
ENDBRANCH   1   2
BRANCH   1  14
HETATM   14  C   UNL     1      25.053  44.760  51.250  1.00  0.00     0.238 C 
HETATM   15  N   UNL     1      25.556  45.802  50.505  1.00  0.00    -0.351 N 
HETATM   16  H   UNL     1      26.530  45.762  50.204  1.00  0.00     0.163 HD
HETATM   17  O   UNL     1      23.926  44.795  51.745  1.00  0.00    -0.272 OA
BRANCH  15  18
HETATM   18  C   UNL     1      24.826  47.033  50.339  1.00  0.00     0.118 C 
HETATM   19  C   UNL     1      25.608  48.104  49.628  1.00  0.00    -0.029 A 
HETATM   20  C   UNL     1      24.782  48.811  48.745  1.00  0.00    -0.050 A 
HETATM   21  C   UNL     1      26.934  48.472  49.805  1.00  0.00     0.010 A 
HETATM   22  C   UNL     1      25.261  49.891  48.022  1.00  0.00     0.007 A 
HETATM   23  C   UNL     1      23.385  48.272  48.777  1.00  0.00     0.041 C 
HETATM   24  C   UNL     1      26.599  50.254  48.184  1.00  0.00     0.001 A 
HETATM   25  C   UNL     1      27.430  49.550  49.068  1.00  0.00     0.001 A 
HETATM   26  C   UNL     1      23.609  46.890  49.406  1.00  0.00     0.034 C 
ENDBRANCH  15  18
ENDBRANCH   1  14
TORSDOF 3
ENDMDL
MODEL 8
REMARK VINA RESULT:      -8.5      2.078      7.898
REMARK  3 active torsions:
REMARK  status: ('A' for Active; 'I' for Inactive)
REMARK    1  A    between atoms: N_4  and  C_5 
REMARK    2  A    between atoms: C_5  and  C_6 
REMARK       I    between atoms: C_6  and  N_7 
REMARK    3  A    between atoms: N_7  and  C_8 
ROOT
HETATM    1  C   UNL     1      24.787  42.937  51.036  1.00  0.00     0.257 C 
ENDROOT
BRANCH   1   2
HETATM    2  N   UNL     1      24.379  44.121  50.279  1.00  0.00    -0.225 N 
HETATM    3  N   UNL     1      25.161  45.239  50.466  1.00  0.00    -0.173 NA
HETATM    4  C   UNL     1      24.772  46.381  49.990  1.00  0.00     0.062 A 
HETATM    5  C   UNL     1      25.657  47.580  50.244  1.00  0.00     0.073 C 
HETATM    6  C   UNL     1      23.513  46.562  49.243  1.00  0.00     0.006 A 
HETATM    7  C   UNL     1      22.716  45.437  49.068  1.00  0.00     0.046 A 
HETATM    8  C   UNL     1      23.102  47.797  48.727  1.00  0.00     0.014 A 
HETATM    9  C   UNL     1      23.141  44.148  49.645  1.00  0.00     0.275 A 
HETATM   10  C   UNL     1      21.507  45.534  48.366  1.00  0.00     0.018 A 
HETATM   11  O   UNL     1      22.411  43.163  49.543  1.00  0.00    -0.266 OA
HETATM   12  C   UNL     1      21.098  46.764  47.849  1.00  0.00     0.001 A 
HETATM   13  C   UNL     1      21.893  47.893  48.033  1.00  0.00     0.001 A 
ENDBRANCH   1   2
BRANCH   1  14
HETATM   14  C   UNL     1      26.285  42.797  51.325  1.00  0.00     0.238 C 
HETATM   15  N   UNL     1      26.689  43.188  52.581  1.00  0.00    -0.351 N 
HETATM   16  H   UNL     1      25.984  43.512  53.243  1.00  0.00     0.163 HD
HETATM   17  O   UNL     1      27.090  42.509  50.440  1.00  0.00    -0.272 OA
BRANCH  15  18
HETATM   18  C   UNL     1      28.082  43.373  52.903  1.00  0.00     0.118 C 
HETATM   19  C   UNL     1      28.320  44.402  53.974  1.00  0.00    -0.029 A 
HETATM   20  C   UNL     1      29.338  43.983  54.840  1.00  0.00    -0.050 A 
HETATM   21  C   UNL     1      27.729  45.649  54.126  1.00  0.00     0.010 A 
HETATM   22  C   UNL     1      29.783  44.794  55.871  1.00  0.00     0.007 A 
HETATM   23  C   UNL     1      29.861  42.640  54.435  1.00  0.00     0.041 C 
HETATM   24  C   UNL     1      29.179  46.042  56.039  1.00  0.00     0.001 A 
HETATM   25  C   UNL     1      28.160  46.467  55.173  1.00  0.00     0.001 A 
HETATM   26  C   UNL     1      28.721  42.127  53.545  1.00  0.00     0.034 C 
ENDBRANCH  15  18
ENDBRANCH   1  14
TORSDOF 3
ENDMDL
MODEL 9
REMARK VINA RESULT:      -8.4      2.063      7.979
REMARK  3 active torsions:
REMARK  status: ('A' for Active; 'I' for Inactive)
REMARK    1  A    between atoms: N_4  and  C_5 
REMARK    2  A    between atoms: C_5  and  C_6 
REMARK       I    between atoms: C_6  and  N_7 
REMARK    3  A    between atoms: N_7  and  C_8 
ROOT
HETATM    1  C   UNL     1      24.646  43.073  51.143  1.00  0.00     0.257 C 
ENDROOT
BRANCH   1   2
HETATM    2  N   UNL     1      23.993  44.193  50.463  1.00  0.00    -0.225 N 
HETATM    3  N   UNL     1      23.119  43.843  49.458  1.00  0.00    -0.173 NA
HETATM    4  C   UNL     1      22.640  44.761  48.677  1.00  0.00     0.062 A 
HETATM    5  C   UNL     1      21.702  44.320  47.576  1.00  0.00     0.073 C 
HETATM    6  C   UNL     1      22.980  46.190  48.802  1.00  0.00     0.006 A 
HETATM    7  C   UNL     1      23.875  46.542  49.807  1.00  0.00     0.046 A 
HETATM    8  C   UNL     1      22.455  47.177  47.959  1.00  0.00     0.014 A 
HETATM    9  C   UNL     1      24.449  45.491  50.667  1.00  0.00     0.275 A 
HETATM   10  C   UNL     1      24.242  47.882  49.985  1.00  0.00     0.018 A 
HETATM   11  O   UNL     1      25.286  45.788  51.518  1.00  0.00    -0.266 OA
HETATM   12  C   UNL     1      23.716  48.866  49.147  1.00  0.00     0.001 A 
HETATM   13  C   UNL     1      22.827  48.512  48.134  1.00  0.00     0.001 A 
ENDBRANCH   1   2
BRANCH   1  14
HETATM   14  C   UNL     1      26.178  43.062  51.117  1.00  0.00     0.238 C 
HETATM   15  N   UNL     1      26.797  43.193  52.339  1.00  0.00    -0.351 N 
HETATM   16  H   UNL     1      26.218  43.258  53.176  1.00  0.00     0.163 HD
HETATM   17  O   UNL     1      26.807  43.097  50.059  1.00  0.00    -0.272 OA
BRANCH  15  18
HETATM   18  C   UNL     1      28.207  43.473  52.445  1.00  0.00     0.118 C 
HETATM   19  C   UNL     1      28.591  44.138  53.739  1.00  0.00    -0.029 A 
HETATM   20  C   UNL     1      29.807  43.625  54.212  1.00  0.00    -0.050 A 
HETATM   21  C   UNL     1      27.950  45.171  54.408  1.00  0.00     0.010 A 
HETATM   22  C   UNL     1      30.401  44.128  55.358  1.00  0.00     0.007 A 
HETATM   23  C   UNL     1      30.334  42.570  53.289  1.00  0.00     0.041 C 
HETATM   24  C   UNL     1      29.751  45.156  56.044  1.00  0.00     0.001 A 
HETATM   25  C   UNL     1      28.534  45.673  55.573  1.00  0.00     0.001 A 
HETATM   26  C   UNL     1      29.070  42.199  52.501  1.00  0.00     0.034 C 
ENDBRANCH  15  18
ENDBRANCH   1  14
TORSDOF 3
ENDMDL
MODEL 10
REMARK VINA RESULT:      -8.2      2.248      3.268
REMARK  3 active torsions:
REMARK  status: ('A' for Active; 'I' for Inactive)
REMARK    1  A    between atoms: N_4  and  C_5 
REMARK    2  A    between atoms: C_5  and  C_6 
REMARK       I    between atoms: C_6  and  N_7 
REMARK    3  A    between atoms: N_7  and  C_8 
ROOT
HETATM    1  C   UNL     1      28.408  42.249  51.909  1.00  0.00     0.257 C 
ENDROOT
BRANCH   1   2
HETATM    2  N   UNL     1      28.458  43.051  53.133  1.00  0.00    -0.225 N 
HETATM    3  N   UNL     1      27.404  43.919  53.312  1.00  0.00    -0.173 NA
HETATM    4  C   UNL     1      27.453  44.801  54.262  1.00  0.00     0.062 A 
HETATM    5  C   UNL     1      26.280  45.744  54.401  1.00  0.00     0.073 C 
HETATM    6  C   UNL     1      28.596  44.934  55.185  1.00  0.00     0.006 A 
HETATM    7  C   UNL     1      29.667  44.068  54.995  1.00  0.00     0.046 A 
HETATM    8  C   UNL     1      28.640  45.885  56.213  1.00  0.00     0.014 A 
HETATM    9  C   UNL     1      29.625  43.095  53.888  1.00  0.00     0.275 A 
HETATM   10  C   UNL     1      30.785  44.138  55.836  1.00  0.00     0.018 A 
HETATM   11  O   UNL     1      30.595  42.367  53.679  1.00  0.00    -0.266 OA
HETATM   12  C   UNL     1      30.829  45.082  56.862  1.00  0.00     0.001 A 
HETATM   13  C   UNL     1      29.759  45.956  57.046  1.00  0.00     0.001 A 
ENDBRANCH   1   2
BRANCH   1  14
HETATM   14  C   UNL     1      27.043  42.137  51.225  1.00  0.00     0.238 C 
HETATM   15  N   UNL     1      26.581  43.283  50.620  1.00  0.00    -0.351 N 
HETATM   16  H   UNL     1      27.172  44.115  50.633  1.00  0.00     0.163 HD
HETATM   17  O   UNL     1      26.337  41.136  51.349  1.00  0.00    -0.272 OA
BRANCH  15  18
HETATM   18  C   UNL     1      25.215  43.409  50.181  1.00  0.00     0.118 C 
HETATM   19  C   UNL     1      24.763  44.836  50.023  1.00  0.00    -0.029 A 
HETATM   20  C   UNL     1      23.955  44.971  48.886  1.00  0.00    -0.050 A 
HETATM   21  C   UNL     1      24.990  45.916  50.863  1.00  0.00     0.010 A 
HETATM   22  C   UNL     1      23.364  46.183  48.566  1.00  0.00     0.007 A 
HETATM   23  C   UNL     1      23.805  43.659  48.180  1.00  0.00     0.041 C 
HETATM   24  C   UNL     1      23.604  47.277  49.399  1.00  0.00     0.001 A 
HETATM   25  C   UNL     1      24.411  47.145  50.539  1.00  0.00     0.001 A 
HETATM   26  C   UNL     1      24.989  42.869  48.756  1.00  0.00     0.034 C 
ENDBRANCH  15  18
ENDBRANCH   1  14
TORSDOF 3
ENDMDL
