MODEL 1
REMARK VINA RESULT:      -8.5      0.000      0.000
REMARK  8 active torsions:
REMARK  status: ('A' for Active; 'I' for Inactive)
REMARK    1  A    between atoms: C_2  and  C_3 
REMARK    2  A    between atoms: C_7  and  C_8 
REMARK       I    between atoms: C_8  and  N_9 
REMARK    3  A    between atoms: N_9  and  C_10 
REMARK    4  A    between atoms: C_10  and  C_11 
REMARK    5  A    between atoms: C_11  and  O_12 
REMARK    6  A    between atoms: C_11  and  C_13 
REMARK    7  A    between atoms: C_13  and  O_14 
REMARK    8  A    between atoms: O_14  and  C_15 
ROOT
HETATM    1  C   UNL     1      27.818  41.333  51.630  1.00  0.00     0.269 C 
HETATM    2  N   UNL     1      26.556  41.859  51.546  1.00  0.00    -0.353 N 
HETATM    3  O   UNL     1      28.215  40.447  50.880  1.00  0.00    -0.266 OA
HETATM    4  H   UNL     1      26.206  42.454  52.284  1.00  0.00     0.162 HD
ENDROOT
BRANCH   1   5
HETATM    5  C   UNL     1      28.659  41.930  52.634  1.00  0.00     0.120 A 
HETATM    6  N   UNL     1      30.022  41.916  52.537  1.00  0.00    -0.272 N 
HETATM    7  N   UNL     1      30.650  42.618  53.494  1.00  0.00    -0.174 NA
HETATM    8  H   UNL     1      30.575  41.474  51.811  1.00  0.00     0.189 HD
HETATM    9  C   UNL     1      29.663  43.099  54.265  1.00  0.00     0.089 A 
HETATM   10  C   UNL     1      28.399  42.662  53.777  1.00  0.00     0.071 A 
BRANCH   9  11
HETATM   11  C   UNL     1      29.929  43.989  55.399  1.00  0.00    -0.005 A 
HETATM   12  C   UNL     1      29.184  45.170  55.562  1.00  0.00     0.017 A 
HETATM   13  C   UNL     1      29.396  46.002  56.664  1.00  0.00     0.043 A 
HETATM   14  C   UNL     1      30.362  45.660  57.602  1.00  0.00     0.116 A 
HETATM   15  C   UNL     1      31.120  44.504  57.458  1.00  0.00     0.043 A 
HETATM   16  F   UNL     1      30.563  46.452  58.663  1.00  0.00    -0.206 F 
HETATM   17  C   UNL     1      30.905  43.669  56.358  1.00  0.00     0.017 A 
ENDBRANCH   9  11
ENDBRANCH   1   5
BRANCH   2  18
HETATM   18  C   UNL     1      25.651  41.596  50.445  1.00  0.00     0.156 C 
BRANCH  18  19
HETATM   19  C   UNL     1      25.627  42.694  49.382  1.00  0.00     0.159 C 
BRANCH  19  20
HETATM   20  O   UNL     1      26.708  42.509  48.454  1.00  0.00    -0.392 OA
HETATM   21  H   UNL     1      26.535  43.157  47.741  1.00  0.00     0.210 HD
ENDBRANCH  19  20
BRANCH  19  22
HETATM   22  C   UNL     1      25.666  44.113  49.959  1.00  0.00     0.201 C 
BRANCH  22  23
HETATM   23  O   UNL     1      24.514  44.227  50.814  1.00  0.00    -0.383 OA
BRANCH  23  24
HETATM   24  C   UNL     1      24.682  45.147  51.896  1.00  0.00     0.121 C 
HETATM   25  C   UNL     1      25.536  46.306  51.371  1.00  0.00     0.032 C 
HETATM   26  C   UNL     1      25.849  47.322  52.463  1.00  0.00     0.002 C 
HETATM   27  C   UNL     1      26.509  46.658  53.668  1.00  0.00     0.000 C 
HETATM   28  C   UNL     1      25.677  45.493  54.196  1.00  0.00     0.002 C 
HETATM   29  C   UNL     1      25.355  44.480  53.099  1.00  0.00     0.032 C 
ENDBRANCH  23  24
ENDBRANCH  22  23
ENDBRANCH  19  22
ENDBRANCH  18  19
ENDBRANCH   2  18
TORSDOF 8
ENDMDL
MODEL 2
REMARK VINA RESULT:      -8.4      4.766      5.772
REMARK  8 active torsions:
REMARK  status: ('A' for Active; 'I' for Inactive)
REMARK    1  A    between atoms: C_2  and  C_3 
REMARK    2  A    between atoms: C_7  and  C_8 
REMARK       I    between atoms: C_8  and  N_9 
REMARK    3  A    between atoms: N_9  and  C_10 
REMARK    4  A    between atoms: C_10  and  C_11 
REMARK    5  A    between atoms: C_11  and  O_12 
REMARK    6  A    between atoms: C_11  and  C_13 
REMARK    7  A    between atoms: C_13  and  O_14 
REMARK    8  A    between atoms: O_14  and  C_15 
ROOT
HETATM    1  C   UNL     1      24.727  45.355  51.616  1.00  0.00     0.269 C 
HETATM    2  N   UNL     1      24.502  46.460  50.840  1.00  0.00    -0.353 N 
HETATM    3  O   UNL     1      24.097  44.310  51.476  1.00  0.00    -0.266 OA
HETATM    4  H   UNL     1      24.907  47.349  51.095  1.00  0.00     0.162 HD
ENDROOT
BRANCH   1   5
HETATM    5  C   UNL     1      25.788  45.495  52.579  1.00  0.00     0.120 A 
HETATM    6  N   UNL     1      25.709  46.377  53.619  1.00  0.00    -0.272 N 
HETATM    7  N   UNL     1      26.728  46.298  54.489  1.00  0.00    -0.174 NA
HETATM    8  H   UNL     1      24.956  47.032  53.805  1.00  0.00     0.189 HD
HETATM    9  C   UNL     1      27.523  45.337  53.992  1.00  0.00     0.089 A 
HETATM   10  C   UNL     1      26.984  44.831  52.776  1.00  0.00     0.071 A 
BRANCH   9  11
HETATM   11  C   UNL     1      28.730  44.891  54.695  1.00  0.00    -0.005 A 
HETATM   12  C   UNL     1      29.289  45.682  55.714  1.00  0.00     0.017 A 
HETATM   13  C   UNL     1      30.411  45.245  56.422  1.00  0.00     0.043 A 
HETATM   14  C   UNL     1      30.983  44.018  56.108  1.00  0.00     0.116 A 
HETATM   15  C   UNL     1      30.456  43.223  55.097  1.00  0.00     0.043 A 
HETATM   16  F   UNL     1      32.054  43.593  56.790  1.00  0.00    -0.206 F 
HETATM   17  C   UNL     1      29.330  43.658  54.390  1.00  0.00     0.017 A 
ENDBRANCH   9  11
ENDBRANCH   1   5
BRANCH   2  18
HETATM   18  C   UNL     1      23.678  46.446  49.647  1.00  0.00     0.156 C 
BRANCH  18  19
HETATM   19  C   UNL     1      23.456  47.825  49.025  1.00  0.00     0.159 C 
BRANCH  19  20
HETATM   20  O   UNL     1      23.974  48.847  49.892  1.00  0.00    -0.392 OA
HETATM   21  H   UNL     1      24.941  48.696  49.900  1.00  0.00     0.210 HD
ENDBRANCH  19  20
BRANCH  19  22
HETATM   22  C   UNL     1      21.993  48.118  48.680  1.00  0.00     0.201 C 
BRANCH  22  23
HETATM   23  O   UNL     1      21.549  49.104  49.629  1.00  0.00    -0.383 OA
BRANCH  23  24
HETATM   24  C   UNL     1      20.364  49.800  49.233  1.00  0.00     0.121 C 
HETATM   25  C   UNL     1      20.789  51.217  48.832  1.00  0.00     0.032 C 
HETATM   26  C   UNL     1      19.593  52.085  48.460  1.00  0.00     0.002 C 
HETATM   27  C   UNL     1      18.560  52.120  49.581  1.00  0.00     0.000 C 
HETATM   28  C   UNL     1      18.135  50.716  50.002  1.00  0.00     0.002 C 
HETATM   29  C   UNL     1      19.335  49.843  50.365  1.00  0.00     0.032 C 
ENDBRANCH  23  24
ENDBRANCH  22  23
ENDBRANCH  19  22
ENDBRANCH  18  19
ENDBRANCH   2  18
TORSDOF 8
ENDMDL
MODEL 3
REMARK VINA RESULT:      -8.0      4.290      5.533
REMARK  8 active torsions:
REMARK  status: ('A' for Active; 'I' for Inactive)
REMARK    1  A    between atoms: C_2  and  C_3 
REMARK    2  A    between atoms: C_7  and  C_8 
REMARK       I    between atoms: C_8  and  N_9 
REMARK    3  A    between atoms: N_9  and  C_10 
REMARK    4  A    between atoms: C_10  and  C_11 
REMARK    5  A    between atoms: C_11  and  O_12 
REMARK    6  A    between atoms: C_11  and  C_13 
REMARK    7  A    between atoms: C_13  and  O_14 
REMARK    8  A    between atoms: O_14  and  C_15 
ROOT
HETATM    1  C   UNL     1      24.108  44.597  50.978  1.00  0.00     0.269 C 
HETATM    2  N   UNL     1      24.260  45.857  50.463  1.00  0.00    -0.353 N 
HETATM    3  O   UNL     1      23.124  43.902  50.742  1.00  0.00    -0.266 OA
HETATM    4  H   UNL     1      24.987  46.464  50.816  1.00  0.00     0.162 HD
ENDROOT
BRANCH   1   5
HETATM    5  C   UNL     1      25.209  44.132  51.779  1.00  0.00     0.120 A 
HETATM    6  N   UNL     1      25.783  42.908  51.579  1.00  0.00    -0.272 N 
HETATM    7  N   UNL     1      26.872  42.679  52.330  1.00  0.00    -0.174 NA
HETATM    8  H   UNL     1      25.493  42.203  50.909  1.00  0.00     0.189 HD
HETATM    9  C   UNL     1      27.011  43.789  53.071  1.00  0.00     0.089 A 
HETATM   10  C   UNL     1      25.968  44.712  52.779  1.00  0.00     0.071 A 
BRANCH   9  11
HETATM   11  C   UNL     1      28.140  43.971  53.989  1.00  0.00    -0.005 A 
HETATM   12  C   UNL     1      29.161  43.007  54.055  1.00  0.00     0.017 A 
HETATM   13  C   UNL     1      30.265  43.193  54.891  1.00  0.00     0.043 A 
HETATM   14  C   UNL     1      30.347  44.339  55.671  1.00  0.00     0.116 A 
HETATM   15  C   UNL     1      29.345  45.301  55.633  1.00  0.00     0.043 A 
HETATM   16  F   UNL     1      31.407  44.523  56.468  1.00  0.00    -0.206 F 
HETATM   17  C   UNL     1      28.242  45.119  54.793  1.00  0.00     0.017 A 
ENDBRANCH   9  11
ENDBRANCH   1   5
BRANCH   2  18
HETATM   18  C   UNL     1      23.408  46.406  49.426  1.00  0.00     0.156 C 
BRANCH  18  19
HETATM   19  C   UNL     1      23.647  47.889  49.142  1.00  0.00     0.159 C 
BRANCH  19  20
HETATM   20  O   UNL     1      23.754  48.617  50.376  1.00  0.00    -0.392 OA
HETATM   21  H   UNL     1      23.430  47.995  51.058  1.00  0.00     0.210 HD
ENDBRANCH  19  20
BRANCH  19  22
HETATM   22  C   UNL     1      22.581  48.525  48.244  1.00  0.00     0.201 C 
BRANCH  22  23
HETATM   23  O   UNL     1      21.311  48.136  48.797  1.00  0.00    -0.383 OA
BRANCH  23  24
HETATM   24  C   UNL     1      20.318  49.165  48.753  1.00  0.00     0.121 C 
HETATM   25  C   UNL     1      21.052  50.485  48.490  1.00  0.00     0.032 C 
HETATM   26  C   UNL     1      20.101  51.675  48.496  1.00  0.00     0.002 C 
HETATM   27  C   UNL     1      19.303  51.743  49.794  1.00  0.00     0.000 C 
HETATM   28  C   UNL     1      18.575  50.432  50.078  1.00  0.00     0.002 C 
HETATM   29  C   UNL     1      19.527  49.237  50.062  1.00  0.00     0.032 C 
ENDBRANCH  23  24
ENDBRANCH  22  23
ENDBRANCH  19  22
ENDBRANCH  18  19
ENDBRANCH   2  18
TORSDOF 8
ENDMDL
MODEL 4
REMARK VINA RESULT:      -7.9      6.589     10.251
REMARK  8 active torsions:
REMARK  status: ('A' for Active; 'I' for Inactive)
REMARK    1  A    between atoms: C_2  and  C_3 
REMARK    2  A    between atoms: C_7  and  C_8 
REMARK       I    between atoms: C_8  and  N_9 
REMARK    3  A    between atoms: N_9  and  C_10 
REMARK    4  A    between atoms: C_10  and  C_11 
REMARK    5  A    between atoms: C_11  and  O_12 
REMARK    6  A    between atoms: C_11  and  C_13 
REMARK    7  A    between atoms: C_13  and  O_14 
REMARK    8  A    between atoms: O_14  and  C_15 
ROOT
HETATM    1  C   UNL     1      24.151  48.183  49.707  1.00  0.00     0.269 C 
HETATM    2  N   UNL     1      24.260  47.194  50.648  1.00  0.00    -0.353 N 
HETATM    3  O   UNL     1      25.122  48.637  49.111  1.00  0.00    -0.266 OA
HETATM    4  H   UNL     1      23.474  46.970  51.241  1.00  0.00     0.162 HD
ENDROOT
BRANCH   1   5
HETATM    5  C   UNL     1      22.805  48.616  49.436  1.00  0.00     0.120 A 
HETATM    6  N   UNL     1      21.780  47.729  49.265  1.00  0.00    -0.272 N 
HETATM    7  N   UNL     1      20.572  48.300  49.138  1.00  0.00    -0.174 NA
HETATM    8  H   UNL     1      21.846  46.716  49.266  1.00  0.00     0.189 HD
HETATM    9  C   UNL     1      20.811  49.618  49.209  1.00  0.00     0.089 A 
HETATM   10  C   UNL     1      22.205  49.859  49.362  1.00  0.00     0.071 A 
BRANCH   9  11
HETATM   11  C   UNL     1      19.727  50.605  49.181  1.00  0.00    -0.005 A 
HETATM   12  C   UNL     1      18.572  50.409  49.959  1.00  0.00     0.017 A 
HETATM   13  C   UNL     1      17.553  51.365  49.978  1.00  0.00     0.043 A 
HETATM   14  C   UNL     1      17.682  52.516  49.211  1.00  0.00     0.116 A 
HETATM   15  C   UNL     1      18.808  52.728  48.424  1.00  0.00     0.043 A 
HETATM   16  F   UNL     1      16.710  53.437  49.232  1.00  0.00    -0.206 F 
HETATM   17  C   UNL     1      19.830  51.774  48.409  1.00  0.00     0.017 A 
ENDBRANCH   9  11
ENDBRANCH   1   5
BRANCH   2  18
HETATM   18  C   UNL     1      25.475  46.435  50.873  1.00  0.00     0.156 C 
BRANCH  18  19
HETATM   19  C   UNL     1      25.239  45.039  51.452  1.00  0.00     0.159 C 
BRANCH  19  20
HETATM   20  O   UNL     1      23.835  44.739  51.463  1.00  0.00    -0.392 OA
HETATM   21  H   UNL     1      23.396  45.614  51.482  1.00  0.00     0.210 HD
ENDBRANCH  19  20
BRANCH  19  22
HETATM   22  C   UNL     1      25.832  44.844  52.852  1.00  0.00     0.201 C 
BRANCH  22  23
HETATM   23  O   UNL     1      26.695  43.697  52.762  1.00  0.00    -0.383 OA
BRANCH  23  24
HETATM   24  C   UNL     1      28.047  43.954  53.154  1.00  0.00     0.121 C 
HETATM   25  C   UNL     1      28.859  42.701  52.809  1.00  0.00     0.032 C 
HETATM   26  C   UNL     1      30.312  42.826  53.253  1.00  0.00     0.002 C 
HETATM   27  C   UNL     1      30.414  43.153  54.739  1.00  0.00     0.000 C 
HETATM   28  C   UNL     1      29.599  44.391  55.102  1.00  0.00     0.002 C 
HETATM   29  C   UNL     1      28.146  44.270  54.648  1.00  0.00     0.032 C 
ENDBRANCH  23  24
ENDBRANCH  22  23
ENDBRANCH  19  22
ENDBRANCH  18  19
ENDBRANCH   2  18
TORSDOF 8
ENDMDL
MODEL 5
REMARK VINA RESULT:      -7.8      5.176      6.842
REMARK  8 active torsions:
REMARK  status: ('A' for Active; 'I' for Inactive)
REMARK    1  A    between atoms: C_2  and  C_3 
REMARK    2  A    between atoms: C_7  and  C_8 
REMARK       I    between atoms: C_8  and  N_9 
REMARK    3  A    between atoms: N_9  and  C_10 
REMARK    4  A    between atoms: C_10  and  C_11 
REMARK    5  A    between atoms: C_11  and  O_12 
REMARK    6  A    between atoms: C_11  and  C_13 
REMARK    7  A    between atoms: C_13  and  O_14 
REMARK    8  A    between atoms: O_14  and  C_15 
ROOT
HETATM    1  C   UNL     1      23.726  46.127  49.580  1.00  0.00     0.269 C 
HETATM    2  N   UNL     1      23.420  47.450  49.761  1.00  0.00    -0.353 N 
HETATM    3  O   UNL     1      23.392  45.503  48.577  1.00  0.00    -0.266 OA
HETATM    4  H   UNL     1      23.553  47.881  50.664  1.00  0.00     0.162 HD
ENDROOT
BRANCH   1   5
HETATM    5  C   UNL     1      24.509  45.536  50.633  1.00  0.00     0.120 A 
HETATM    6  N   UNL     1      23.971  44.653  51.526  1.00  0.00    -0.272 N 
HETATM    7  N   UNL     1      24.863  44.107  52.368  1.00  0.00    -0.174 NA
HETATM    8  H   UNL     1      23.002  44.356  51.578  1.00  0.00     0.189 HD
HETATM    9  C   UNL     1      26.034  44.667  52.030  1.00  0.00     0.089 A 
HETATM   10  C   UNL     1      25.849  45.595  50.967  1.00  0.00     0.071 A 
BRANCH   9  11
HETATM   11  C   UNL     1      27.292  44.281  52.677  1.00  0.00    -0.005 A 
HETATM   12  C   UNL     1      27.538  44.634  54.015  1.00  0.00     0.017 A 
HETATM   13  C   UNL     1      28.712  44.230  54.656  1.00  0.00     0.043 A 
HETATM   14  C   UNL     1      29.649  43.479  53.958  1.00  0.00     0.116 A 
HETATM   15  C   UNL     1      29.435  43.127  52.630  1.00  0.00     0.043 A 
HETATM   16  F   UNL     1      30.772  43.085  54.571  1.00  0.00    -0.206 F 
HETATM   17  C   UNL     1      28.258  43.527  51.989  1.00  0.00     0.017 A 
ENDBRANCH   9  11
ENDBRANCH   1   5
BRANCH   2  18
HETATM   18  C   UNL     1      22.882  48.297  48.714  1.00  0.00     0.156 C 
BRANCH  18  19
HETATM   19  C   UNL     1      23.628  49.619  48.536  1.00  0.00     0.159 C 
BRANCH  19  20
HETATM   20  O   UNL     1      24.951  49.519  49.089  1.00  0.00    -0.392 OA
HETATM   21  H   UNL     1      25.255  50.446  49.168  1.00  0.00     0.210 HD
ENDBRANCH  19  20
BRANCH  19  22
HETATM   22  C   UNL     1      22.897  50.826  49.134  1.00  0.00     0.201 C 
BRANCH  22  23
HETATM   23  O   UNL     1      21.838  50.288  49.945  1.00  0.00    -0.383 OA
BRANCH  23  24
HETATM   24  C   UNL     1      20.623  51.041  49.889  1.00  0.00     0.121 C 
HETATM   25  C   UNL     1      19.476  50.063  50.164  1.00  0.00     0.032 C 
HETATM   26  C   UNL     1      18.114  50.739  50.055  1.00  0.00     0.002 C 
HETATM   27  C   UNL     1      17.938  51.422  48.703  1.00  0.00     0.000 C 
HETATM   28  C   UNL     1      19.080  52.391  48.408  1.00  0.00     0.002 C 
HETATM   29  C   UNL     1      20.445  51.716  48.527  1.00  0.00     0.032 C 
ENDBRANCH  23  24
ENDBRANCH  22  23
ENDBRANCH  19  22
ENDBRANCH  18  19
ENDBRANCH   2  18
TORSDOF 8
ENDMDL
MODEL 6
REMARK VINA RESULT:      -7.8      3.605      4.477
REMARK  8 active torsions:
REMARK  status: ('A' for Active; 'I' for Inactive)
REMARK    1  A    between atoms: C_2  and  C_3 
REMARK    2  A    between atoms: C_7  and  C_8 
REMARK       I    between atoms: C_8  and  N_9 
REMARK    3  A    between atoms: N_9  and  C_10 
REMARK    4  A    between atoms: C_10  and  C_11 
REMARK    5  A    between atoms: C_11  and  O_12 
REMARK    6  A    between atoms: C_11  and  C_13 
REMARK    7  A    between atoms: C_13  and  O_14 
REMARK    8  A    between atoms: O_14  and  C_15 
ROOT
HETATM    1  C   UNL     1      26.771  44.000  50.969  1.00  0.00     0.269 C 
HETATM    2  N   UNL     1      26.185  45.237  50.995  1.00  0.00    -0.353 N 
HETATM    3  O   UNL     1      26.546  43.181  50.083  1.00  0.00    -0.266 OA
HETATM    4  H   UNL     1      26.253  45.813  51.822  1.00  0.00     0.162 HD
ENDROOT
BRANCH   1   5
HETATM    5  C   UNL     1      27.707  43.749  52.034  1.00  0.00     0.120 A 
HETATM    6  N   UNL     1      28.723  42.844  51.906  1.00  0.00    -0.272 N 
HETATM    7  N   UNL     1      29.573  42.818  52.945  1.00  0.00    -0.174 NA
HETATM    8  H   UNL     1      28.907  42.246  51.108  1.00  0.00     0.189 HD
HETATM    9  C   UNL     1      29.086  43.728  53.803  1.00  0.00     0.089 A 
HETATM   10  C   UNL     1      27.897  44.311  53.282  1.00  0.00     0.071 A 
BRANCH   9  11
HETATM   11  C   UNL     1      29.775  44.058  55.055  1.00  0.00    -0.005 A 
HETATM   12  C   UNL     1      29.440  45.228  55.759  1.00  0.00     0.017 A 
HETATM   13  C   UNL     1      30.056  45.528  56.977  1.00  0.00     0.043 A 
HETATM   14  C   UNL     1      31.015  44.664  57.490  1.00  0.00     0.116 A 
HETATM   15  C   UNL     1      31.372  43.508  56.807  1.00  0.00     0.043 A 
HETATM   16  F   UNL     1      31.602  44.946  58.660  1.00  0.00    -0.206 F 
HETATM   17  C   UNL     1      30.753  43.204  55.590  1.00  0.00     0.017 A 
ENDBRANCH   9  11
ENDBRANCH   1   5
BRANCH   2  18
HETATM   18  C   UNL     1      25.432  45.789  49.886  1.00  0.00     0.156 C 
BRANCH  18  19
HETATM   19  C   UNL     1      25.061  47.262  50.055  1.00  0.00     0.159 C 
BRANCH  19  20
HETATM   20  O   UNL     1      25.023  47.606  51.449  1.00  0.00    -0.392 OA
HETATM   21  H   UNL     1      24.082  47.511  51.701  1.00  0.00     0.210 HD
ENDBRANCH  19  20
BRANCH  19  22
HETATM   22  C   UNL     1      23.740  47.648  49.381  1.00  0.00     0.201 C 
BRANCH  22  23
HETATM   23  O   UNL     1      24.014  48.837  48.619  1.00  0.00    -0.383 OA
BRANCH  23  24
HETATM   24  C   UNL     1      22.849  49.449  48.057  1.00  0.00     0.121 C 
HETATM   25  C   UNL     1      22.486  50.632  48.961  1.00  0.00     0.032 C 
HETATM   26  C   UNL     1      21.206  51.323  48.504  1.00  0.00     0.002 C 
HETATM   27  C   UNL     1      20.048  50.337  48.400  1.00  0.00     0.000 C 
HETATM   28  C   UNL     1      20.398  49.145  47.514  1.00  0.00     0.002 C 
HETATM   29  C   UNL     1      21.686  48.459  47.966  1.00  0.00     0.032 C 
ENDBRANCH  23  24
ENDBRANCH  22  23
ENDBRANCH  19  22
ENDBRANCH  18  19
ENDBRANCH   2  18
TORSDOF 8
ENDMDL
MODEL 7
REMARK VINA RESULT:      -7.5      4.622      8.097
REMARK  8 active torsions:
REMARK  status: ('A' for Active; 'I' for Inactive)
REMARK    1  A    between atoms: C_2  and  C_3 
REMARK    2  A    between atoms: C_7  and  C_8 
REMARK       I    between atoms: C_8  and  N_9 
REMARK    3  A    between atoms: N_9  and  C_10 
REMARK    4  A    between atoms: C_10  and  C_11 
REMARK    5  A    between atoms: C_11  and  O_12 
REMARK    6  A    between atoms: C_11  and  C_13 
REMARK    7  A    between atoms: C_13  and  O_14 
REMARK    8  A    between atoms: O_14  and  C_15 
ROOT
HETATM    1  C   UNL     1      25.434  44.441  49.784  1.00  0.00     0.269 C 
HETATM    2  N   UNL     1      26.047  44.022  50.934  1.00  0.00    -0.353 N 
HETATM    3  O   UNL     1      25.229  43.692  48.834  1.00  0.00    -0.266 OA
HETATM    4  H   UNL     1      26.358  44.698  51.618  1.00  0.00     0.162 HD
ENDROOT
BRANCH   1   5
HETATM    5  C   UNL     1      25.007  45.816  49.790  1.00  0.00     0.120 A 
HETATM    6  N   UNL     1      25.861  46.838  50.097  1.00  0.00    -0.272 N 
HETATM    7  N   UNL     1      25.335  48.063  49.941  1.00  0.00    -0.174 NA
HETATM    8  H   UNL     1      26.832  46.753  50.381  1.00  0.00     0.189 HD
HETATM    9  C   UNL     1      24.076  47.841  49.533  1.00  0.00     0.089 A 
HETATM   10  C   UNL     1      23.821  46.443  49.458  1.00  0.00     0.071 A 
BRANCH   9  11
HETATM   11  C   UNL     1      23.172  48.940  49.180  1.00  0.00    -0.005 A 
HETATM   12  C   UNL     1      21.781  48.738  49.176  1.00  0.00     0.017 A 
HETATM   13  C   UNL     1      20.907  49.790  48.888  1.00  0.00     0.043 A 
HETATM   14  C   UNL     1      21.423  51.046  48.594  1.00  0.00     0.116 A 
HETATM   15  C   UNL     1      22.795  51.268  48.580  1.00  0.00     0.043 A 
HETATM   16  F   UNL     1      20.589  52.057  48.324  1.00  0.00    -0.206 F 
HETATM   17  C   UNL     1      23.670  50.217  48.873  1.00  0.00     0.017 A 
ENDBRANCH   9  11
ENDBRANCH   1   5
BRANCH   2  18
HETATM   18  C   UNL     1      26.308  42.629  51.240  1.00  0.00     0.156 C 
BRANCH  18  19
HETATM   19  C   UNL     1      27.761  42.334  51.613  1.00  0.00     0.159 C 
BRANCH  19  20
HETATM   20  O   UNL     1      28.215  41.151  50.937  1.00  0.00    -0.392 OA
HETATM   21  H   UNL     1      28.724  41.486  50.171  1.00  0.00     0.210 HD
ENDBRANCH  19  20
BRANCH  19  22
HETATM   22  C   UNL     1      27.995  42.203  53.122  1.00  0.00     0.201 C 
BRANCH  22  23
HETATM   23  O   UNL     1      27.713  43.497  53.683  1.00  0.00    -0.383 OA
BRANCH  23  24
HETATM   24  C   UNL     1      28.861  44.164  54.214  1.00  0.00     0.121 C 
HETATM   25  C   UNL     1      29.743  43.091  54.861  1.00  0.00     0.032 C 
HETATM   26  C   UNL     1      30.972  43.694  55.533  1.00  0.00     0.002 C 
HETATM   27  C   UNL     1      30.582  44.766  56.545  1.00  0.00     0.000 C 
HETATM   28  C   UNL     1      29.692  45.836  55.920  1.00  0.00     0.002 C 
HETATM   29  C   UNL     1      28.466  45.231  55.238  1.00  0.00     0.032 C 
ENDBRANCH  23  24
ENDBRANCH  22  23
ENDBRANCH  19  22
ENDBRANCH  18  19
ENDBRANCH   2  18
TORSDOF 8
ENDMDL
MODEL 8
REMARK VINA RESULT:      -7.5      6.150      9.654
REMARK  8 active torsions:
REMARK  status: ('A' for Active; 'I' for Inactive)
REMARK    1  A    between atoms: C_2  and  C_3 
REMARK    2  A    between atoms: C_7  and  C_8 
REMARK       I    between atoms: C_8  and  N_9 
REMARK    3  A    between atoms: N_9  and  C_10 
REMARK    4  A    between atoms: C_10  and  C_11 
REMARK    5  A    between atoms: C_11  and  O_12 
REMARK    6  A    between atoms: C_11  and  C_13 
REMARK    7  A    between atoms: C_13  and  O_14 
REMARK    8  A    between atoms: O_14  and  C_15 
ROOT
HETATM    1  C   UNL     1      25.898  47.868  49.481  1.00  0.00     0.269 C 
HETATM    2  N   UNL     1      25.491  46.955  50.417  1.00  0.00    -0.353 N 
HETATM    3  O   UNL     1      27.047  47.908  49.053  1.00  0.00    -0.266 OA
HETATM    4  H   UNL     1      24.596  47.063  50.874  1.00  0.00     0.162 HD
ENDROOT
BRANCH   1   5
HETATM    5  C   UNL     1      24.864  48.748  49.002  1.00  0.00     0.120 A 
HETATM    6  N   UNL     1      25.103  49.690  48.041  1.00  0.00    -0.272 N 
HETATM    7  N   UNL     1      24.008  50.344  47.625  1.00  0.00    -0.174 NA
HETATM    8  H   UNL     1      25.995  49.899  47.604  1.00  0.00     0.189 HD
HETATM    9  C   UNL     1      23.007  49.828  48.355  1.00  0.00     0.089 A 
HETATM   10  C   UNL     1      23.509  48.846  49.254  1.00  0.00     0.071 A 
BRANCH   9  11
HETATM   11  C   UNL     1      21.612  50.232  48.152  1.00  0.00    -0.005 A 
HETATM   12  C   UNL     1      21.150  51.459  48.659  1.00  0.00     0.017 A 
HETATM   13  C   UNL     1      19.836  51.876  48.431  1.00  0.00     0.043 A 
HETATM   14  C   UNL     1      18.978  51.063  47.702  1.00  0.00     0.116 A 
HETATM   15  C   UNL     1      19.406  49.840  47.201  1.00  0.00     0.043 A 
HETATM   16  F   UNL     1      17.720  51.463  47.477  1.00  0.00    -0.206 F 
HETATM   17  C   UNL     1      20.723  49.424  47.424  1.00  0.00     0.017 A 
ENDBRANCH   9  11
ENDBRANCH   1   5
BRANCH   2  18
HETATM   18  C   UNL     1      26.292  45.818  50.826  1.00  0.00     0.156 C 
BRANCH  18  19
HETATM   19  C   UNL     1      25.494  44.527  51.011  1.00  0.00     0.159 C 
BRANCH  19  20
HETATM   20  O   UNL     1      24.370  44.760  51.875  1.00  0.00    -0.392 OA
HETATM   21  H   UNL     1      24.694  44.526  52.768  1.00  0.00     0.210 HD
ENDBRANCH  19  20
BRANCH  19  22
HETATM   22  C   UNL     1      26.329  43.355  51.535  1.00  0.00     0.201 C 
BRANCH  22  23
HETATM   23  O   UNL     1      26.567  43.627  52.928  1.00  0.00    -0.383 OA
BRANCH  23  24
HETATM   24  C   UNL     1      27.931  43.928  53.236  1.00  0.00     0.121 C 
HETATM   25  C   UNL     1      28.754  42.683  52.888  1.00  0.00     0.032 C 
HETATM   26  C   UNL     1      30.225  42.856  53.246  1.00  0.00     0.002 C 
HETATM   27  C   UNL     1      30.400  43.234  54.713  1.00  0.00     0.000 C 
HETATM   28  C   UNL     1      29.576  44.465  55.081  1.00  0.00     0.002 C 
HETATM   29  C   UNL     1      28.104  44.296  54.712  1.00  0.00     0.032 C 
ENDBRANCH  23  24
ENDBRANCH  22  23
ENDBRANCH  19  22
ENDBRANCH  18  19
ENDBRANCH   2  18
TORSDOF 8
ENDMDL
MODEL 9
REMARK VINA RESULT:      -7.4      3.642      7.057
REMARK  8 active torsions:
REMARK  status: ('A' for Active; 'I' for Inactive)
REMARK    1  A    between atoms: C_2  and  C_3 
REMARK    2  A    between atoms: C_7  and  C_8 
REMARK       I    between atoms: C_8  and  N_9 
REMARK    3  A    between atoms: N_9  and  C_10 
REMARK    4  A    between atoms: C_10  and  C_11 
REMARK    5  A    between atoms: C_11  and  O_12 
REMARK    6  A    between atoms: C_11  and  C_13 
REMARK    7  A    between atoms: C_13  and  O_14 
REMARK    8  A    between atoms: O_14  and  C_15 
ROOT
HETATM    1  C   UNL     1      25.735  44.653  52.935  1.00  0.00     0.269 C 
HETATM    2  N   UNL     1      26.604  45.683  52.693  1.00  0.00    -0.353 N 
HETATM    3  O   UNL     1      24.778  44.761  53.697  1.00  0.00    -0.266 OA
HETATM    4  H   UNL     1      27.472  45.509  52.206  1.00  0.00     0.162 HD
ENDROOT
BRANCH   1   5
HETATM    5  C   UNL     1      26.001  43.447  52.196  1.00  0.00     0.120 A 
HETATM    6  N   UNL     1      25.048  42.849  51.420  1.00  0.00    -0.272 N 
HETATM    7  N   UNL     1      25.494  41.803  50.706  1.00  0.00    -0.174 NA
HETATM    8  H   UNL     1      24.082  43.141  51.310  1.00  0.00     0.189 HD
HETATM    9  C   UNL     1      26.789  41.693  51.039  1.00  0.00     0.089 A 
HETATM   10  C   UNL     1      27.138  42.686  51.997  1.00  0.00     0.071 A 
BRANCH   9  11
HETATM   11  C   UNL     1      27.668  40.699  50.416  1.00  0.00    -0.005 A 
HETATM   12  C   UNL     1      27.760  40.616  49.015  1.00  0.00     0.017 A 
HETATM   13  C   UNL     1      28.629  39.704  48.410  1.00  0.00     0.043 A 
HETATM   14  C   UNL     1      29.403  38.867  49.204  1.00  0.00     0.116 A 
HETATM   15  C   UNL     1      29.322  38.922  50.590  1.00  0.00     0.043 A 
HETATM   16  F   UNL     1      30.242  37.997  48.627  1.00  0.00    -0.206 F 
HETATM   17  C   UNL     1      28.455  39.837  51.197  1.00  0.00     0.017 A 
ENDBRANCH   9  11
ENDBRANCH   1   5
BRANCH   2  18
HETATM   18  C   UNL     1      26.365  47.048  53.118  1.00  0.00     0.156 C 
BRANCH  18  19
HETATM   19  C   UNL     1      26.365  47.238  54.635  1.00  0.00     0.159 C 
BRANCH  19  20
HETATM   20  O   UNL     1      25.605  48.404  54.988  1.00  0.00    -0.392 OA
HETATM   21  H   UNL     1      24.671  48.113  54.936  1.00  0.00     0.210 HD
ENDBRANCH  19  20
BRANCH  19  22
HETATM   22  C   UNL     1      27.768  47.318  55.246  1.00  0.00     0.201 C 
BRANCH  22  23
HETATM   23  O   UNL     1      28.406  46.065  54.945  1.00  0.00    -0.383 OA
BRANCH  23  24
HETATM   24  C   UNL     1      29.585  45.812  55.716  1.00  0.00     0.121 C 
HETATM   25  C   UNL     1      30.008  44.368  55.426  1.00  0.00     0.032 C 
HETATM   26  C   UNL     1      31.219  43.955  56.255  1.00  0.00     0.002 C 
HETATM   27  C   UNL     1      30.971  44.163  57.745  1.00  0.00     0.000 C 
HETATM   28  C   UNL     1      30.536  45.594  58.050  1.00  0.00     0.002 C 
HETATM   29  C   UNL     1      29.329  46.012  57.212  1.00  0.00     0.032 C 
ENDBRANCH  23  24
ENDBRANCH  22  23
ENDBRANCH  19  22
ENDBRANCH  18  19
ENDBRANCH   2  18
TORSDOF 8
ENDMDL
MODEL 10
REMARK VINA RESULT:      -7.4      3.427      4.259
REMARK  8 active torsions:
REMARK  status: ('A' for Active; 'I' for Inactive)
REMARK    1  A    between atoms: C_2  and  C_3 
REMARK    2  A    between atoms: C_7  and  C_8 
REMARK       I    between atoms: C_8  and  N_9 
REMARK    3  A    between atoms: N_9  and  C_10 
REMARK    4  A    between atoms: C_10  and  C_11 
REMARK    5  A    between atoms: C_11  and  O_12 
REMARK    6  A    between atoms: C_11  and  C_13 
REMARK    7  A    between atoms: C_13  and  O_14 
REMARK    8  A    between atoms: O_14  and  C_15 
ROOT
HETATM    1  C   UNL     1      25.662  43.681  50.840  1.00  0.00     0.269 C 
HETATM    2  N   UNL     1      24.801  44.607  50.312  1.00  0.00    -0.353 N 
HETATM    3  O   UNL     1      25.795  42.558  50.365  1.00  0.00    -0.266 OA
HETATM    4  H   UNL     1      24.586  45.449  50.827  1.00  0.00     0.162 HD
ENDROOT
BRANCH   1   5
HETATM    5  C   UNL     1      26.430  44.140  51.967  1.00  0.00     0.120 A 
HETATM    6  N   UNL     1      25.920  45.017  52.882  1.00  0.00    -0.272 N 
HETATM    7  N   UNL     1      26.723  45.250  53.932  1.00  0.00    -0.174 NA
HETATM    8  H   UNL     1      25.005  45.457  52.858  1.00  0.00     0.189 HD
HETATM    9  C   UNL     1      27.818  44.512  53.690  1.00  0.00     0.089 A 
HETATM   10  C   UNL     1      27.687  43.827  52.450  1.00  0.00     0.071 A 
BRANCH   9  11
HETATM   11  C   UNL     1      28.925  44.433  54.648  1.00  0.00    -0.005 A 
HETATM   12  C   UNL     1      29.143  45.476  55.565  1.00  0.00     0.017 A 
HETATM   13  C   UNL     1      30.166  45.390  56.514  1.00  0.00     0.043 A 
HETATM   14  C   UNL     1      30.980  44.265  56.542  1.00  0.00     0.116 A 
HETATM   15  C   UNL     1      30.793  43.226  55.638  1.00  0.00     0.043 A 
HETATM   16  F   UNL     1      31.956  44.177  57.453  1.00  0.00    -0.206 F 
HETATM   17  C   UNL     1      29.766  43.309  54.691  1.00  0.00     0.017 A 
ENDBRANCH   9  11
ENDBRANCH   1   5
BRANCH   2  18
HETATM   18  C   UNL     1      24.142  44.447  49.031  1.00  0.00     0.156 C 
BRANCH  18  19
HETATM   19  C   UNL     1      22.617  44.537  49.100  1.00  0.00     0.159 C 
BRANCH  19  20
HETATM   20  O   UNL     1      22.023  43.465  48.350  1.00  0.00    -0.392 OA
HETATM   21  H   UNL     1      22.514  42.667  48.633  1.00  0.00     0.210 HD
ENDBRANCH  19  20
BRANCH  19  22
HETATM   22  C   UNL     1      22.057  45.884  48.628  1.00  0.00     0.201 C 
BRANCH  22  23
HETATM   23  O   UNL     1      23.048  46.869  48.970  1.00  0.00    -0.383 OA
BRANCH  23  24
HETATM   24  C   UNL     1      22.882  48.119  48.295  1.00  0.00     0.121 C 
HETATM   25  C   UNL     1      24.023  49.032  48.757  1.00  0.00     0.032 C 
HETATM   26  C   UNL     1      23.909  50.429  48.158  1.00  0.00     0.002 C 
HETATM   27  C   UNL     1      22.552  51.055  48.459  1.00  0.00     0.000 C 
HETATM   28  C   UNL     1      21.403  50.152  48.016  1.00  0.00     0.002 C 
HETATM   29  C   UNL     1      21.523  48.749  48.608  1.00  0.00     0.032 C 
ENDBRANCH  23  24
ENDBRANCH  22  23
ENDBRANCH  19  22
ENDBRANCH  18  19
ENDBRANCH   2  18
TORSDOF 8
ENDMDL
