MODEL 1
REMARK VINA RESULT:      -8.9      0.000      0.000
REMARK  8 active torsions:
REMARK  status: ('A' for Active; 'I' for Inactive)
REMARK    1  A    between atoms: C_5  and  O_6 
REMARK    2  A    between atoms: O_6  and  C_7 
REMARK    3  A    between atoms: C_7  and  C_8 
REMARK    4  A    between atoms: C_8  and  C_9 
REMARK    5  A    between atoms: C_9  and  C_10 
REMARK    6  A    between atoms: C_10  and  N_11 
REMARK       I    between atoms: N_11  and  C_12 
REMARK    7  A    between atoms: C_12  and  C_13 
REMARK    8  A    between atoms: C_17  and  C_18 
ROOT
HETATM    1  N   UNL     1      25.239  45.716  50.685  1.00  0.00    -0.345 N 
HETATM    2  C   UNL     1      25.211  44.808  51.713  1.00  0.00     0.270 C 
HETATM    3  O   UNL     1      24.186  44.224  52.051  1.00  0.00    -0.266 OA
HETATM    4  H   UNL     1      26.115  46.110  50.381  1.00  0.00     0.163 HD
ENDROOT
BRANCH   2   5
HETATM    5  C   UNL     1      26.471  44.585  52.366  1.00  0.00     0.120 A 
HETATM    6  N   UNL     1      27.552  44.088  51.692  1.00  0.00    -0.272 N 
HETATM    7  H   UNL     1      27.592  43.839  50.708  1.00  0.00     0.189 HD
HETATM    8  N   UNL     1      28.646  43.921  52.450  1.00  0.00    -0.174 NA
HETATM    9  C   UNL     1      28.279  44.336  53.673  1.00  0.00     0.089 A 
HETATM   10  C   UNL     1      26.919  44.758  53.661  1.00  0.00     0.071 A 
BRANCH   9  11
HETATM   11  C   UNL     1      29.207  44.313  54.808  1.00  0.00    -0.003 A 
HETATM   12  C   UNL     1      29.184  45.332  55.774  1.00  0.00     0.053 A 
HETATM   13  C   UNL     1      30.072  45.254  56.828  1.00  0.00     0.106 A 
HETATM   14  C   UNL     1      30.965  44.217  56.952  1.00  0.00     0.105 A 
HETATM   15  O   UNL     1      30.177  46.154  57.842  1.00  0.00    -0.323 OA
HETATM   16  O   UNL     1      31.745  44.333  58.060  1.00  0.00    -0.323 OA
HETATM   17  C   UNL     1      31.025  43.201  56.027  1.00  0.00     0.040 A 
HETATM   18  C   UNL     1      31.243  45.566  58.617  1.00  0.00     0.352 A 
HETATM   19  C   UNL     1      30.137  43.255  54.946  1.00  0.00     0.017 A 
ENDBRANCH   9  11
ENDBRANCH   2   5
BRANCH   1  20
HETATM   20  C   UNL     1      24.057  45.997  49.915  1.00  0.00     0.217 C 
BRANCH  20  21
HETATM   21  C   UNL     1      24.151  47.338  49.336  1.00  0.00    -0.085 C 
BRANCH  21  22
HETATM   22  C   UNL     1      24.234  48.541  48.840  1.00  0.00    -0.078 C 
BRANCH  22  23
HETATM   23  C   UNL     1      24.330  49.943  48.261  1.00  0.00     0.269 C 
BRANCH  23  24
HETATM   24  O   UNL     1      23.267  50.128  47.330  1.00  0.00    -0.338 OA
BRANCH  24  25
HETATM   25  C   UNL     1      22.004  50.156  47.847  1.00  0.00     0.087 A 
HETATM   26  C   UNL     1      20.982  49.244  47.620  1.00  0.00     0.153 A 
HETATM   27  N   UNL     1      19.746  49.327  48.172  1.00  0.00    -0.263 NA
HETATM   28  C   UNL     1      19.504  50.373  48.996  1.00  0.00     0.030 A 
HETATM   29  C   UNL     1      18.138  50.464  49.610  1.00  0.00     0.070 C 
HETATM   30  C   UNL     1      20.464  51.338  49.278  1.00  0.00     0.029 A 
HETATM   31  C   UNL     1      21.725  51.223  48.694  1.00  0.00     0.040 A 
ENDBRANCH  24  25
ENDBRANCH  23  24
ENDBRANCH  22  23
ENDBRANCH  21  22
ENDBRANCH  20  21
ENDBRANCH   1  20
TORSDOF 8
ENDMDL
MODEL 2
REMARK VINA RESULT:      -8.8      1.507      1.801
REMARK  8 active torsions:
REMARK  status: ('A' for Active; 'I' for Inactive)
REMARK    1  A    between atoms: C_5  and  O_6 
REMARK    2  A    between atoms: O_6  and  C_7 
REMARK    3  A    between atoms: C_7  and  C_8 
REMARK    4  A    between atoms: C_8  and  C_9 
REMARK    5  A    between atoms: C_9  and  C_10 
REMARK    6  A    between atoms: C_10  and  N_11 
REMARK       I    between atoms: N_11  and  C_12 
REMARK    7  A    between atoms: C_12  and  C_13 
REMARK    8  A    between atoms: C_17  and  C_18 
ROOT
HETATM    1  N   UNL     1      24.667  45.706  50.321  1.00  0.00    -0.345 N 
HETATM    2  C   UNL     1      24.677  44.823  51.371  1.00  0.00     0.270 C 
HETATM    3  O   UNL     1      23.894  43.881  51.450  1.00  0.00    -0.266 OA
HETATM    4  H   UNL     1      25.381  46.414  50.248  1.00  0.00     0.163 HD
ENDROOT
BRANCH   2   5
HETATM    5  C   UNL     1      25.674  45.076  52.374  1.00  0.00     0.120 A 
HETATM    6  N   UNL     1      25.763  46.283  53.010  1.00  0.00    -0.272 N 
HETATM    7  H   UNL     1      25.168  47.092  52.862  1.00  0.00     0.189 HD
HETATM    8  N   UNL     1      26.759  46.362  53.905  1.00  0.00    -0.174 NA
HETATM    9  C   UNL     1      27.345  45.155  53.870  1.00  0.00     0.089 A 
HETATM   10  C   UNL     1      26.694  44.320  52.919  1.00  0.00     0.071 A 
BRANCH   9  11
HETATM   11  C   UNL     1      28.497  44.829  54.717  1.00  0.00    -0.003 A 
HETATM   12  C   UNL     1      28.787  45.595  55.858  1.00  0.00     0.053 A 
HETATM   13  C   UNL     1      29.877  45.237  56.626  1.00  0.00     0.106 A 
HETATM   14  C   UNL     1      30.673  44.164  56.305  1.00  0.00     0.105 A 
HETATM   15  O   UNL     1      30.290  45.870  57.756  1.00  0.00    -0.323 OA
HETATM   16  O   UNL     1      31.688  43.985  57.192  1.00  0.00    -0.323 OA
HETATM   17  C   UNL     1      30.428  43.390  55.194  1.00  0.00     0.040 A 
HETATM   18  C   UNL     1      31.442  45.074  58.107  1.00  0.00     0.352 A 
HETATM   19  C   UNL     1      29.330  43.731  54.395  1.00  0.00     0.017 A 
ENDBRANCH   9  11
ENDBRANCH   2   5
BRANCH   1  20
HETATM   20  C   UNL     1      23.753  45.539  49.223  1.00  0.00     0.217 C 
BRANCH  20  21
HETATM   21  C   UNL     1      23.148  46.828  48.884  1.00  0.00    -0.085 C 
BRANCH  21  22
HETATM   22  C   UNL     1      22.591  47.970  48.593  1.00  0.00    -0.078 C 
BRANCH  22  23
HETATM   23  C   UNL     1      21.941  49.301  48.254  1.00  0.00     0.269 C 
BRANCH  23  24
HETATM   24  O   UNL     1      21.649  49.991  49.466  1.00  0.00    -0.338 OA
BRANCH  24  25
HETATM   25  C   UNL     1      20.418  50.575  49.552  1.00  0.00     0.087 A 
HETATM   26  C   UNL     1      19.357  50.185  50.358  1.00  0.00     0.153 A 
HETATM   27  N   UNL     1      18.157  50.816  50.400  1.00  0.00    -0.263 NA
HETATM   28  C   UNL     1      17.994  51.894  49.600  1.00  0.00     0.030 A 
HETATM   29  C   UNL     1      16.669  52.595  49.648  1.00  0.00     0.070 C 
HETATM   30  C   UNL     1      18.999  52.355  48.756  1.00  0.00     0.029 A 
HETATM   31  C   UNL     1      20.220  51.684  48.736  1.00  0.00     0.040 A 
ENDBRANCH  24  25
ENDBRANCH  23  24
ENDBRANCH  22  23
ENDBRANCH  21  22
ENDBRANCH  20  21
ENDBRANCH   1  20
TORSDOF 8
ENDMDL
MODEL 3
REMARK VINA RESULT:      -8.6      2.689     12.293
REMARK  8 active torsions:
REMARK  status: ('A' for Active; 'I' for Inactive)
REMARK    1  A    between atoms: C_5  and  O_6 
REMARK    2  A    between atoms: O_6  and  C_7 
REMARK    3  A    between atoms: C_7  and  C_8 
REMARK    4  A    between atoms: C_8  and  C_9 
REMARK    5  A    between atoms: C_9  and  C_10 
REMARK    6  A    between atoms: C_10  and  N_11 
REMARK       I    between atoms: N_11  and  C_12 
REMARK    7  A    between atoms: C_12  and  C_13 
REMARK    8  A    between atoms: C_17  and  C_18 
ROOT
HETATM    1  N   UNL     1      24.756  46.867  49.762  1.00  0.00    -0.345 N 
HETATM    2  C   UNL     1      24.494  48.174  49.437  1.00  0.00     0.270 C 
HETATM    3  O   UNL     1      25.380  49.012  49.307  1.00  0.00    -0.266 OA
HETATM    4  H   UNL     1      24.010  46.189  49.775  1.00  0.00     0.163 HD
ENDROOT
BRANCH   2   5
HETATM    5  C   UNL     1      23.105  48.493  49.257  1.00  0.00     0.120 A 
HETATM    6  N   UNL     1      22.155  47.519  49.127  1.00  0.00    -0.272 N 
HETATM    7  H   UNL     1      22.308  46.515  49.146  1.00  0.00     0.189 HD
HETATM    8  N   UNL     1      20.910  47.983  48.947  1.00  0.00    -0.174 NA
HETATM    9  C   UNL     1      21.038  49.319  48.972  1.00  0.00     0.089 A 
HETATM   10  C   UNL     1      22.402  49.678  49.162  1.00  0.00     0.071 A 
BRANCH   9  11
HETATM   11  C   UNL     1      19.885  50.210  48.807  1.00  0.00    -0.003 A 
HETATM   12  C   UNL     1      18.578  49.697  48.797  1.00  0.00     0.053 A 
HETATM   13  C   UNL     1      17.529  50.582  48.650  1.00  0.00     0.106 A 
HETATM   14  C   UNL     1      17.731  51.935  48.515  1.00  0.00     0.105 A 
HETATM   15  O   UNL     1      16.211  50.249  48.622  1.00  0.00    -0.323 OA
HETATM   16  O   UNL     1      16.566  52.624  48.385  1.00  0.00    -0.323 OA
HETATM   17  C   UNL     1      18.995  52.480  48.514  1.00  0.00     0.040 A 
HETATM   18  C   UNL     1      15.607  51.548  48.449  1.00  0.00     0.352 A 
HETATM   19  C   UNL     1      20.078  51.605  48.659  1.00  0.00     0.017 A 
ENDBRANCH   9  11
ENDBRANCH   2   5
BRANCH   1  20
HETATM   20  C   UNL     1      26.108  46.402  49.923  1.00  0.00     0.217 C 
BRANCH  20  21
HETATM   21  C   UNL     1      26.324  45.980  51.308  1.00  0.00    -0.085 C 
BRANCH  21  22
HETATM   22  C   UNL     1      26.501  45.618  52.548  1.00  0.00    -0.078 C 
BRANCH  22  23
HETATM   23  C   UNL     1      26.709  45.197  53.993  1.00  0.00     0.269 C 
BRANCH  23  24
HETATM   24  O   UNL     1      27.668  46.065  54.590  1.00  0.00    -0.338 OA
BRANCH  24  25
HETATM   25  C   UNL     1      28.714  45.467  55.231  1.00  0.00     0.087 A 
HETATM   26  C   UNL     1      29.355  45.904  56.383  1.00  0.00     0.153 A 
HETATM   27  N   UNL     1      30.389  45.256  56.974  1.00  0.00    -0.263 NA
HETATM   28  C   UNL     1      30.816  44.110  56.396  1.00  0.00     0.030 A 
HETATM   29  C   UNL     1      31.958  43.391  57.052  1.00  0.00     0.070 C 
HETATM   30  C   UNL     1      30.238  43.598  55.239  1.00  0.00     0.029 A 
HETATM   31  C   UNL     1      29.177  44.288  54.656  1.00  0.00     0.040 A 
ENDBRANCH  24  25
ENDBRANCH  23  24
ENDBRANCH  22  23
ENDBRANCH  21  22
ENDBRANCH  20  21
ENDBRANCH   1  20
TORSDOF 8
ENDMDL
MODEL 4
REMARK VINA RESULT:      -8.6      1.651      2.369
REMARK  8 active torsions:
REMARK  status: ('A' for Active; 'I' for Inactive)
REMARK    1  A    between atoms: C_5  and  O_6 
REMARK    2  A    between atoms: O_6  and  C_7 
REMARK    3  A    between atoms: C_7  and  C_8 
REMARK    4  A    between atoms: C_8  and  C_9 
REMARK    5  A    between atoms: C_9  and  C_10 
REMARK    6  A    between atoms: C_10  and  N_11 
REMARK       I    between atoms: N_11  and  C_12 
REMARK    7  A    between atoms: C_12  and  C_13 
REMARK    8  A    between atoms: C_17  and  C_18 
ROOT
HETATM    1  N   UNL     1      24.016  44.943  49.511  1.00  0.00    -0.345 N 
HETATM    2  C   UNL     1      23.859  44.068  50.556  1.00  0.00     0.270 C 
HETATM    3  O   UNL     1      22.805  43.479  50.772  1.00  0.00    -0.266 OA
HETATM    4  H   UNL     1      24.921  45.341  49.315  1.00  0.00     0.163 HD
ENDROOT
BRANCH   2   5
HETATM    5  C   UNL     1      25.021  43.885  51.380  1.00  0.00     0.120 A 
HETATM    6  N   UNL     1      25.741  42.723  51.362  1.00  0.00    -0.272 N 
HETATM    7  H   UNL     1      25.554  41.903  50.794  1.00  0.00     0.189 HD
HETATM    8  N   UNL     1      26.785  42.708  52.204  1.00  0.00    -0.174 NA
HETATM    9  C   UNL     1      26.764  43.913  52.794  1.00  0.00     0.089 A 
HETATM   10  C   UNL     1      25.670  44.681  52.305  1.00  0.00     0.071 A 
BRANCH   9  11
HETATM   11  C   UNL     1      27.760  44.299  53.799  1.00  0.00    -0.003 A 
HETATM   12  C   UNL     1      28.793  43.419  54.160  1.00  0.00     0.053 A 
HETATM   13  C   UNL     1      29.710  43.839  55.102  1.00  0.00     0.106 A 
HETATM   14  C   UNL     1      29.637  45.080  55.688  1.00  0.00     0.105 A 
HETATM   15  O   UNL     1      30.764  43.111  55.559  1.00  0.00    -0.323 OA
HETATM   16  O   UNL     1      30.635  45.291  56.586  1.00  0.00    -0.323 OA
HETATM   17  C   UNL     1      28.639  45.971  55.367  1.00  0.00     0.040 A 
HETATM   18  C   UNL     1      31.344  44.037  56.502  1.00  0.00     0.352 A 
HETATM   19  C   UNL     1      27.693  45.572  54.415  1.00  0.00     0.017 A 
ENDBRANCH   9  11
ENDBRANCH   2   5
BRANCH   1  20
HETATM   20  C   UNL     1      22.946  45.180  48.579  1.00  0.00     0.217 C 
BRANCH  20  21
HETATM   21  C   UNL     1      22.711  46.620  48.452  1.00  0.00    -0.085 C 
BRANCH  21  22
HETATM   22  C   UNL     1      22.500  47.903  48.361  1.00  0.00    -0.078 C 
BRANCH  22  23
HETATM   23  C   UNL     1      22.253  49.399  48.254  1.00  0.00     0.269 C 
BRANCH  23  24
HETATM   24  O   UNL     1      21.833  49.886  49.525  1.00  0.00    -0.338 OA
BRANCH  24  25
HETATM   25  C   UNL     1      20.600  50.468  49.576  1.00  0.00     0.087 A 
HETATM   26  C   UNL     1      19.525  50.094  50.371  1.00  0.00     0.153 A 
HETATM   27  N   UNL     1      18.323  50.722  50.377  1.00  0.00    -0.263 NA
HETATM   28  C   UNL     1      18.172  51.782  49.550  1.00  0.00     0.030 A 
HETATM   29  C   UNL     1      16.845  52.479  49.558  1.00  0.00     0.070 C 
HETATM   30  C   UNL     1      19.191  52.226  48.714  1.00  0.00     0.029 A 
HETATM   31  C   UNL     1      20.414  51.558  48.731  1.00  0.00     0.040 A 
ENDBRANCH  24  25
ENDBRANCH  23  24
ENDBRANCH  22  23
ENDBRANCH  21  22
ENDBRANCH  20  21
ENDBRANCH   1  20
TORSDOF 8
ENDMDL
MODEL 5
REMARK VINA RESULT:      -8.4      2.432      3.372
REMARK  8 active torsions:
REMARK  status: ('A' for Active; 'I' for Inactive)
REMARK    1  A    between atoms: C_5  and  O_6 
REMARK    2  A    between atoms: O_6  and  C_7 
REMARK    3  A    between atoms: C_7  and  C_8 
REMARK    4  A    between atoms: C_8  and  C_9 
REMARK    5  A    between atoms: C_9  and  C_10 
REMARK    6  A    between atoms: C_10  and  N_11 
REMARK       I    between atoms: N_11  and  C_12 
REMARK    7  A    between atoms: C_12  and  C_13 
REMARK    8  A    between atoms: C_17  and  C_18 
ROOT
HETATM    1  N   UNL     1      24.901  43.656  49.868  1.00  0.00    -0.345 N 
HETATM    2  C   UNL     1      26.117  44.255  50.084  1.00  0.00     0.270 C 
HETATM    3  O   UNL     1      26.748  44.808  49.189  1.00  0.00    -0.266 OA
HETATM    4  H   UNL     1      24.373  43.289  50.644  1.00  0.00     0.163 HD
ENDROOT
BRANCH   2   5
HETATM    5  C   UNL     1      26.598  44.192  51.436  1.00  0.00     0.120 A 
HETATM    6  N   UNL     1      25.767  43.906  52.482  1.00  0.00    -0.272 N 
HETATM    7  H   UNL     1      24.772  43.710  52.431  1.00  0.00     0.189 HD
HETATM    8  N   UNL     1      26.370  43.905  53.681  1.00  0.00    -0.174 NA
HETATM    9  C   UNL     1      27.655  44.189  53.416  1.00  0.00     0.089 A 
HETATM   10  C   UNL     1      27.837  44.379  52.017  1.00  0.00     0.071 A 
BRANCH   9  11
HETATM   11  C   UNL     1      28.661  44.283  54.478  1.00  0.00    -0.003 A 
HETATM   12  C   UNL     1      28.551  45.255  55.486  1.00  0.00     0.053 A 
HETATM   13  C   UNL     1      29.520  45.290  56.469  1.00  0.00     0.106 A 
HETATM   14  C   UNL     1      30.575  44.409  56.483  1.00  0.00     0.105 A 
HETATM   15  O   UNL     1      29.558  46.164  57.510  1.00  0.00    -0.323 OA
HETATM   16  O   UNL     1      31.410  44.616  57.536  1.00  0.00    -0.323 OA
HETATM   17  C   UNL     1      30.724  43.445  55.513  1.00  0.00     0.040 A 
HETATM   18  C   UNL     1      30.762  45.733  58.180  1.00  0.00     0.352 A 
HETATM   19  C   UNL     1      29.757  43.387  54.502  1.00  0.00     0.017 A 
ENDBRANCH   9  11
ENDBRANCH   2   5
BRANCH   1  20
HETATM   20  C   UNL     1      24.281  43.689  48.571  1.00  0.00     0.217 C 
BRANCH  20  21
HETATM   21  C   UNL     1      23.407  44.859  48.470  1.00  0.00    -0.085 C 
BRANCH  21  22
HETATM   22  C   UNL     1      22.643  45.910  48.366  1.00  0.00    -0.078 C 
BRANCH  22  23
HETATM   23  C   UNL     1      21.751  47.135  48.245  1.00  0.00     0.269 C 
BRANCH  23  24
HETATM   24  O   UNL     1      22.181  48.109  49.192  1.00  0.00    -0.338 OA
BRANCH  24  25
HETATM   25  C   UNL     1      23.508  48.428  49.177  1.00  0.00     0.087 A 
HETATM   26  C   UNL     1      24.509  47.895  49.979  1.00  0.00     0.153 A 
HETATM   27  N   UNL     1      25.815  48.254  49.909  1.00  0.00    -0.263 NA
HETATM   28  C   UNL     1      26.153  49.193  48.995  1.00  0.00     0.030 A 
HETATM   29  C   UNL     1      27.598  49.587  48.915  1.00  0.00     0.070 C 
HETATM   30  C   UNL     1      25.218  49.786  48.154  1.00  0.00     0.029 A 
HETATM   31  C   UNL     1      23.884  49.395  48.251  1.00  0.00     0.040 A 
ENDBRANCH  24  25
ENDBRANCH  23  24
ENDBRANCH  22  23
ENDBRANCH  21  22
ENDBRANCH  20  21
ENDBRANCH   1  20
TORSDOF 8
ENDMDL
MODEL 6
REMARK VINA RESULT:      -8.2      1.830      2.439
REMARK  8 active torsions:
REMARK  status: ('A' for Active; 'I' for Inactive)
REMARK    1  A    between atoms: C_5  and  O_6 
REMARK    2  A    between atoms: O_6  and  C_7 
REMARK    3  A    between atoms: C_7  and  C_8 
REMARK    4  A    between atoms: C_8  and  C_9 
REMARK    5  A    between atoms: C_9  and  C_10 
REMARK    6  A    between atoms: C_10  and  N_11 
REMARK       I    between atoms: N_11  and  C_12 
REMARK    7  A    between atoms: C_12  and  C_13 
REMARK    8  A    between atoms: C_17  and  C_18 
ROOT
HETATM    1  N   UNL     1      25.350  46.241  50.787  1.00  0.00    -0.345 N 
HETATM    2  C   UNL     1      25.067  45.541  51.932  1.00  0.00     0.270 C 
HETATM    3  O   UNL     1      24.114  44.772  52.018  1.00  0.00    -0.266 OA
HETATM    4  H   UNL     1      26.190  46.795  50.727  1.00  0.00     0.163 HD
ENDROOT
BRANCH   2   5
HETATM    5  C   UNL     1      25.969  45.768  53.027  1.00  0.00     0.120 A 
HETATM    6  N   UNL     1      25.988  46.952  53.710  1.00  0.00    -0.272 N 
HETATM    7  H   UNL     1      25.398  47.760  53.538  1.00  0.00     0.189 HD
HETATM    8  N   UNL     1      26.901  47.009  54.691  1.00  0.00    -0.174 NA
HETATM    9  C   UNL     1      27.502  45.809  54.665  1.00  0.00     0.089 A 
HETATM   10  C   UNL     1      26.947  45.003  53.633  1.00  0.00     0.071 A 
BRANCH   9  11
HETATM   11  C   UNL     1      28.580  45.464  55.599  1.00  0.00    -0.003 A 
HETATM   12  C   UNL     1      29.482  44.429  55.303  1.00  0.00     0.053 A 
HETATM   13  C   UNL     1      30.484  44.156  56.212  1.00  0.00     0.106 A 
HETATM   14  C   UNL     1      30.618  44.862  57.383  1.00  0.00     0.105 A 
HETATM   15  O   UNL     1      31.433  43.192  56.076  1.00  0.00    -0.323 OA
HETATM   16  O   UNL     1      31.668  44.433  58.132  1.00  0.00    -0.323 OA
HETATM   17  C   UNL     1      29.754  45.881  57.715  1.00  0.00     0.040 A 
HETATM   18  C   UNL     1      32.178  43.371  57.299  1.00  0.00     0.352 A 
HETATM   19  C   UNL     1      28.726  46.179  56.812  1.00  0.00     0.017 A 
ENDBRANCH   9  11
ENDBRANCH   2   5
BRANCH   1  20
HETATM   20  C   UNL     1      24.556  46.070  49.600  1.00  0.00     0.217 C 
BRANCH  20  21
HETATM   21  C   UNL     1      23.810  47.298  49.323  1.00  0.00    -0.085 C 
BRANCH  21  22
HETATM   22  C   UNL     1      23.144  48.396  49.098  1.00  0.00    -0.078 C 
BRANCH  22  23
HETATM   23  C   UNL     1      22.369  49.677  48.836  1.00  0.00     0.269 C 
BRANCH  23  24
HETATM   24  O   UNL     1      21.239  49.715  49.703  1.00  0.00    -0.338 OA
BRANCH  24  25
HETATM   25  C   UNL     1      20.069  49.226  49.198  1.00  0.00     0.087 A 
HETATM   26  C   UNL     1      19.695  49.153  47.862  1.00  0.00     0.153 A 
HETATM   27  N   UNL     1      18.514  48.648  47.426  1.00  0.00    -0.263 NA
HETATM   28  C   UNL     1      17.651  48.189  48.362  1.00  0.00     0.030 A 
HETATM   29  C   UNL     1      16.346  47.627  47.880  1.00  0.00     0.070 C 
HETATM   30  C   UNL     1      17.937  48.226  49.722  1.00  0.00     0.029 A 
HETATM   31  C   UNL     1      19.160  48.751  50.138  1.00  0.00     0.040 A 
ENDBRANCH  24  25
ENDBRANCH  23  24
ENDBRANCH  22  23
ENDBRANCH  21  22
ENDBRANCH  20  21
ENDBRANCH   1  20
TORSDOF 8
ENDMDL
MODEL 7
REMARK VINA RESULT:      -8.0      2.067      2.740
REMARK  8 active torsions:
REMARK  status: ('A' for Active; 'I' for Inactive)
REMARK    1  A    between atoms: C_5  and  O_6 
REMARK    2  A    between atoms: O_6  and  C_7 
REMARK    3  A    between atoms: C_7  and  C_8 
REMARK    4  A    between atoms: C_8  and  C_9 
REMARK    5  A    between atoms: C_9  and  C_10 
REMARK    6  A    between atoms: C_10  and  N_11 
REMARK       I    between atoms: N_11  and  C_12 
REMARK    7  A    between atoms: C_12  and  C_13 
REMARK    8  A    between atoms: C_17  and  C_18 
ROOT
HETATM    1  N   UNL     1      26.161  42.897  49.946  1.00  0.00    -0.345 N 
HETATM    2  C   UNL     1      27.273  42.117  50.142  1.00  0.00     0.270 C 
HETATM    3  O   UNL     1      27.617  41.246  49.350  1.00  0.00    -0.266 OA
HETATM    4  H   UNL     1      25.961  43.659  50.574  1.00  0.00     0.163 HD
ENDROOT
BRANCH   2   5
HETATM    5  C   UNL     1      28.011  42.395  51.343  1.00  0.00     0.120 A 
HETATM    6  N   UNL     1      28.962  41.535  51.817  1.00  0.00    -0.272 N 
HETATM    7  H   UNL     1      29.247  40.655  51.400  1.00  0.00     0.189 HD
HETATM    8  N   UNL     1      29.545  41.933  52.958  1.00  0.00    -0.174 NA
HETATM    9  C   UNL     1      28.966  43.110  53.244  1.00  0.00     0.089 A 
HETATM   10  C   UNL     1      27.995  43.433  52.254  1.00  0.00     0.071 A 
BRANCH   9  11
HETATM   11  C   UNL     1      29.333  43.883  54.435  1.00  0.00    -0.003 A 
HETATM   12  C   UNL     1      30.321  43.416  55.317  1.00  0.00     0.053 A 
HETATM   13  C   UNL     1      30.635  44.190  56.416  1.00  0.00     0.106 A 
HETATM   14  C   UNL     1      30.012  45.390  56.663  1.00  0.00     0.105 A 
HETATM   15  O   UNL     1      31.563  43.882  57.360  1.00  0.00    -0.323 OA
HETATM   16  O   UNL     1      30.471  45.990  57.794  1.00  0.00    -0.323 OA
HETATM   17  C   UNL     1      29.036  45.883  55.828  1.00  0.00     0.040 A 
HETATM   18  C   UNL     1      31.451  45.026  58.233  1.00  0.00     0.352 A 
HETATM   19  C   UNL     1      28.696  45.118  54.706  1.00  0.00     0.017 A 
ENDBRANCH   9  11
ENDBRANCH   2   5
BRANCH   1  20
HETATM   20  C   UNL     1      25.360  42.757  48.760  1.00  0.00     0.217 C 
BRANCH  20  21
HETATM   21  C   UNL     1      24.372  43.835  48.701  1.00  0.00    -0.085 C 
BRANCH  21  22
HETATM   22  C   UNL     1      23.490  44.793  48.628  1.00  0.00    -0.078 C 
BRANCH  22  23
HETATM   23  C   UNL     1      22.461  45.908  48.543  1.00  0.00     0.269 C 
BRANCH  23  24
HETATM   24  O   UNL     1      23.112  47.152  48.789  1.00  0.00    -0.338 OA
BRANCH  24  25
HETATM   25  C   UNL     1      22.328  48.268  48.740  1.00  0.00     0.087 A 
HETATM   26  C   UNL     1      20.985  48.368  49.077  1.00  0.00     0.153 A 
HETATM   27  N   UNL     1      20.264  49.514  49.011  1.00  0.00    -0.263 NA
HETATM   28  C   UNL     1      20.905  50.628  48.587  1.00  0.00     0.030 A 
HETATM   29  C   UNL     1      20.108  51.897  48.517  1.00  0.00     0.070 C 
HETATM   30  C   UNL     1      22.247  50.623  48.223  1.00  0.00     0.029 A 
HETATM   31  C   UNL     1      22.960  49.428  48.302  1.00  0.00     0.040 A 
ENDBRANCH  24  25
ENDBRANCH  23  24
ENDBRANCH  22  23
ENDBRANCH  21  22
ENDBRANCH  20  21
ENDBRANCH   1  20
TORSDOF 8
ENDMDL
MODEL 8
REMARK VINA RESULT:      -7.9      3.203     12.532
REMARK  8 active torsions:
REMARK  status: ('A' for Active; 'I' for Inactive)
REMARK    1  A    between atoms: C_5  and  O_6 
REMARK    2  A    between atoms: O_6  and  C_7 
REMARK    3  A    between atoms: C_7  and  C_8 
REMARK    4  A    between atoms: C_8  and  C_9 
REMARK    5  A    between atoms: C_9  and  C_10 
REMARK    6  A    between atoms: C_10  and  N_11 
REMARK       I    between atoms: N_11  and  C_12 
REMARK    7  A    between atoms: C_12  and  C_13 
REMARK    8  A    between atoms: C_17  and  C_18 
ROOT
HETATM    1  N   UNL     1      23.246  48.070  49.919  1.00  0.00    -0.345 N 
HETATM    2  C   UNL     1      22.978  48.986  48.934  1.00  0.00     0.270 C 
HETATM    3  O   UNL     1      23.681  49.108  47.935  1.00  0.00    -0.266 OA
HETATM    4  H   UNL     1      22.599  47.941  50.680  1.00  0.00     0.163 HD
ENDROOT
BRANCH   2   5
HETATM    5  C   UNL     1      21.810  49.795  49.152  1.00  0.00     0.120 A 
HETATM    6  N   UNL     1      21.648  50.530  50.292  1.00  0.00    -0.272 N 
HETATM    7  H   UNL     1      22.296  50.593  51.072  1.00  0.00     0.189 HD
HETATM    8  N   UNL     1      20.495  51.214  50.348  1.00  0.00    -0.174 NA
HETATM    9  C   UNL     1      19.875  50.930  49.192  1.00  0.00     0.089 A 
HETATM   10  C   UNL     1      20.669  50.040  48.415  1.00  0.00     0.071 A 
BRANCH   9  11
HETATM   11  C   UNL     1      18.562  51.492  48.861  1.00  0.00    -0.003 A 
HETATM   12  C   UNL     1      17.824  52.204  49.821  1.00  0.00     0.053 A 
HETATM   13  C   UNL     1      16.599  52.722  49.451  1.00  0.00     0.106 A 
HETATM   14  C   UNL     1      16.091  52.559  48.184  1.00  0.00     0.105 A 
HETATM   15  O   UNL     1      15.765  53.432  50.257  1.00  0.00    -0.323 OA
HETATM   16  O   UNL     1      14.875  53.147  48.032  1.00  0.00    -0.323 OA
HETATM   17  C   UNL     1      16.778  51.865  47.215  1.00  0.00     0.040 A 
HETATM   18  C   UNL     1      14.672  53.695  49.351  1.00  0.00     0.352 A 
HETATM   19  C   UNL     1      18.024  51.327  47.562  1.00  0.00     0.017 A 
ENDBRANCH   9  11
ENDBRANCH   2   5
BRANCH   1  20
HETATM   20  C   UNL     1      24.357  47.163  49.803  1.00  0.00     0.217 C 
BRANCH  20  21
HETATM   21  C   UNL     1      25.089  47.114  51.069  1.00  0.00    -0.085 C 
BRANCH  21  22
HETATM   22  C   UNL     1      25.755  47.055  52.189  1.00  0.00    -0.078 C 
BRANCH  22  23
HETATM   23  C   UNL     1      26.532  46.987  53.493  1.00  0.00     0.269 C 
BRANCH  23  24
HETATM   24  O   UNL     1      26.175  45.789  54.177  1.00  0.00    -0.338 OA
BRANCH  24  25
HETATM   25  C   UNL     1      26.831  44.654  53.798  1.00  0.00     0.087 A 
HETATM   26  C   UNL     1      26.398  43.696  52.890  1.00  0.00     0.153 A 
HETATM   27  N   UNL     1      27.105  42.589  52.553  1.00  0.00    -0.263 NA
HETATM   28  C   UNL     1      28.309  42.416  53.146  1.00  0.00     0.030 A 
HETATM   29  C   UNL     1      29.092  41.193  52.771  1.00  0.00     0.070 C 
HETATM   30  C   UNL     1      28.821  43.319  54.071  1.00  0.00     0.029 A 
HETATM   31  C   UNL     1      28.070  44.447  54.396  1.00  0.00     0.040 A 
ENDBRANCH  24  25
ENDBRANCH  23  24
ENDBRANCH  22  23
ENDBRANCH  21  22
ENDBRANCH  20  21
ENDBRANCH   1  20
TORSDOF 8
ENDMDL
MODEL 9
REMARK VINA RESULT:      -7.8      3.960      5.191
REMARK  8 active torsions:
REMARK  status: ('A' for Active; 'I' for Inactive)
REMARK    1  A    between atoms: C_5  and  O_6 
REMARK    2  A    between atoms: O_6  and  C_7 
REMARK    3  A    between atoms: C_7  and  C_8 
REMARK    4  A    between atoms: C_8  and  C_9 
REMARK    5  A    between atoms: C_9  and  C_10 
REMARK    6  A    between atoms: C_10  and  N_11 
REMARK       I    between atoms: N_11  and  C_12 
REMARK    7  A    between atoms: C_12  and  C_13 
REMARK    8  A    between atoms: C_17  and  C_18 
ROOT
HETATM    1  N   UNL     1      27.403  40.957  49.498  1.00  0.00    -0.345 N 
HETATM    2  C   UNL     1      27.500  42.258  49.922  1.00  0.00     0.270 C 
HETATM    3  O   UNL     1      27.106  43.204  49.247  1.00  0.00    -0.266 OA
HETATM    4  H   UNL     1      27.657  40.203  50.116  1.00  0.00     0.163 HD
ENDROOT
BRANCH   2   5
HETATM    5  C   UNL     1      28.094  42.436  51.218  1.00  0.00     0.120 A 
HETATM    6  N   UNL     1      28.692  41.403  51.883  1.00  0.00    -0.272 N 
HETATM    7  H   UNL     1      28.786  40.445  51.558  1.00  0.00     0.189 HD
HETATM    8  N   UNL     1      29.180  41.731  53.088  1.00  0.00    -0.174 NA
HETATM    9  C   UNL     1      28.907  43.039  53.221  1.00  0.00     0.089 A 
HETATM   10  C   UNL     1      28.223  43.517  52.068  1.00  0.00     0.071 A 
BRANCH   9  11
HETATM   11  C   UNL     1      29.285  43.789  54.423  1.00  0.00    -0.003 A 
HETATM   12  C   UNL     1      30.306  43.324  55.267  1.00  0.00     0.053 A 
HETATM   13  C   UNL     1      30.628  44.077  56.379  1.00  0.00     0.106 A 
HETATM   14  C   UNL     1      29.983  45.254  56.674  1.00  0.00     0.105 A 
HETATM   15  O   UNL     1      31.588  43.768  57.291  1.00  0.00    -0.323 OA
HETATM   16  O   UNL     1      30.455  45.835  57.809  1.00  0.00    -0.323 OA
HETATM   17  C   UNL     1      28.974  45.743  55.877  1.00  0.00     0.040 A 
HETATM   18  C   UNL     1      31.469  44.885  58.198  1.00  0.00     0.352 A 
HETATM   19  C   UNL     1      28.624  45.000  54.743  1.00  0.00     0.017 A 
ENDBRANCH   9  11
ENDBRANCH   2   5
BRANCH   1  20
HETATM   20  C   UNL     1      26.783  40.634  48.241  1.00  0.00     0.217 C 
BRANCH  20  21
HETATM   21  C   UNL     1      25.348  40.916  48.310  1.00  0.00    -0.085 C 
BRANCH  21  22
HETATM   22  C   UNL     1      24.075  41.189  48.374  1.00  0.00    -0.078 C 
BRANCH  22  23
HETATM   23  C   UNL     1      22.591  41.509  48.450  1.00  0.00     0.269 C 
BRANCH  23  24
HETATM   24  O   UNL     1      22.425  42.924  48.425  1.00  0.00    -0.338 OA
BRANCH  24  25
HETATM   25  C   UNL     1      23.169  43.639  49.318  1.00  0.00     0.087 A 
HETATM   26  C   UNL     1      23.434  43.315  50.642  1.00  0.00     0.153 A 
HETATM   27  N   UNL     1      24.189  44.071  51.477  1.00  0.00    -0.263 NA
HETATM   28  C   UNL     1      24.713  45.214  50.978  1.00  0.00     0.030 A 
HETATM   29  C   UNL     1      25.551  46.048  51.900  1.00  0.00     0.070 C 
HETATM   30  C   UNL     1      24.498  45.622  49.666  1.00  0.00     0.029 A 
HETATM   31  C   UNL     1      23.717  44.822  48.833  1.00  0.00     0.040 A 
ENDBRANCH  24  25
ENDBRANCH  23  24
ENDBRANCH  22  23
ENDBRANCH  21  22
ENDBRANCH  20  21
ENDBRANCH   1  20
TORSDOF 8
ENDMDL
MODEL 10
REMARK VINA RESULT:      -7.8      2.984      5.251
REMARK  8 active torsions:
REMARK  status: ('A' for Active; 'I' for Inactive)
REMARK    1  A    between atoms: C_5  and  O_6 
REMARK    2  A    between atoms: O_6  and  C_7 
REMARK    3  A    between atoms: C_7  and  C_8 
REMARK    4  A    between atoms: C_8  and  C_9 
REMARK    5  A    between atoms: C_9  and  C_10 
REMARK    6  A    between atoms: C_10  and  N_11 
REMARK       I    between atoms: N_11  and  C_12 
REMARK    7  A    between atoms: C_12  and  C_13 
REMARK    8  A    between atoms: C_17  and  C_18 
ROOT
HETATM    1  N   UNL     1      23.232  50.151  48.528  1.00  0.00    -0.345 N 
HETATM    2  C   UNL     1      23.403  48.791  48.465  1.00  0.00     0.270 C 
HETATM    3  O   UNL     1      22.763  48.080  47.697  1.00  0.00    -0.266 OA
HETATM    4  H   UNL     1      23.836  50.711  49.108  1.00  0.00     0.163 HD
ENDROOT
BRANCH   2   5
HETATM    5  C   UNL     1      24.391  48.257  49.361  1.00  0.00     0.120 A 
HETATM    6  N   UNL     1      25.690  48.680  49.333  1.00  0.00    -0.272 N 
HETATM    7  H   UNL     1      26.087  49.383  48.717  1.00  0.00     0.189 HD
HETATM    8  N   UNL     1      26.488  48.069  50.222  1.00  0.00    -0.174 NA
HETATM    9  C   UNL     1      25.681  47.216  50.873  1.00  0.00     0.089 A 
HETATM   10  C   UNL     1      24.357  47.303  50.359  1.00  0.00     0.071 A 
BRANCH   9  11
HETATM   11  C   UNL     1      26.179  46.345  51.942  1.00  0.00    -0.003 A 
HETATM   12  C   UNL     1      26.537  45.013  51.675  1.00  0.00     0.053 A 
HETATM   13  C   UNL     1      27.011  44.242  52.716  1.00  0.00     0.106 A 
HETATM   14  C   UNL     1      27.139  44.739  53.992  1.00  0.00     0.105 A 
HETATM   15  O   UNL     1      27.399  42.941  52.625  1.00  0.00    -0.323 OA
HETATM   16  O   UNL     1      27.624  43.815  54.863  1.00  0.00    -0.323 OA
HETATM   17  C   UNL     1      26.795  46.035  54.299  1.00  0.00     0.040 A 
HETATM   18  C   UNL     1      27.782  42.677  53.991  1.00  0.00     0.352 A 
HETATM   19  C   UNL     1      26.310  46.841  53.262  1.00  0.00     0.017 A 
ENDBRANCH   9  11
ENDBRANCH   2   5
BRANCH   1  20
HETATM   20  C   UNL     1      22.310  50.822  47.650  1.00  0.00     0.217 C 
BRANCH  20  21
HETATM   21  C   UNL     1      21.115  51.218  48.397  1.00  0.00    -0.085 C 
BRANCH  21  22
HETATM   22  C   UNL     1      20.046  51.549  49.065  1.00  0.00    -0.078 C 
BRANCH  22  23
HETATM   23  C   UNL     1      18.798  51.935  49.843  1.00  0.00     0.269 C 
BRANCH  23  24
HETATM   24  O   UNL     1      18.127  50.746  50.250  1.00  0.00    -0.338 OA
BRANCH  24  25
HETATM   25  C   UNL     1      17.361  50.126  49.305  1.00  0.00     0.087 A 
HETATM   26  C   UNL     1      17.457  48.808  48.879  1.00  0.00     0.153 A 
HETATM   27  N   UNL     1      16.658  48.250  47.936  1.00  0.00    -0.263 NA
HETATM   28  C   UNL     1      15.709  49.038  47.381  1.00  0.00     0.030 A 
HETATM   29  C   UNL     1      14.823  48.421  46.340  1.00  0.00     0.070 C 
HETATM   30  C   UNL     1      15.542  50.371  47.741  1.00  0.00     0.029 A 
HETATM   31  C   UNL     1      16.380  50.914  48.714  1.00  0.00     0.040 A 
ENDBRANCH  24  25
ENDBRANCH  23  24
ENDBRANCH  22  23
ENDBRANCH  21  22
ENDBRANCH  20  21
ENDBRANCH   1  20
TORSDOF 8
ENDMDL
