MODEL 1
REMARK VINA RESULT:      -8.2      0.000      0.000
REMARK  6 active torsions:
REMARK  status: ('A' for Active; 'I' for Inactive)
REMARK    1  A    between atoms: C_2  and  C_3 
REMARK    2  A    between atoms: C_5  and  C_6 
REMARK       I    between atoms: C_6  and  N_7 
REMARK    3  A    between atoms: N_7  and  C_8 
REMARK    4  A    between atoms: C_8  and  C_9 
REMARK    5  A    between atoms: C_9  and  C_10 
REMARK    6  A    between atoms: C_19  and  O_20 
ROOT
HETATM    1  C   UNL     1      26.820  45.524  53.551  1.00  0.00     0.254 C 
HETATM    2  N   UNL     1      26.631  45.731  52.204  1.00  0.00    -0.356 N 
HETATM    3  O   UNL     1      26.187  46.138  54.405  1.00  0.00    -0.268 OA
HETATM    4  H   UNL     1      27.154  45.133  51.570  1.00  0.00     0.162 HD
ENDROOT
BRANCH   1   5
HETATM    5  C   UNL     1      27.839  44.499  53.949  1.00  0.00     0.065 A 
HETATM    6  C   UNL     1      28.871  44.930  54.802  1.00  0.00     0.027 A 
HETATM    7  C   UNL     1      29.874  44.052  55.237  1.00  0.00    -0.057 A 
HETATM    8  C   UNL     1      29.837  42.720  54.816  1.00  0.00     0.010 A 
HETATM    9  C   UNL     1      28.820  42.274  53.969  1.00  0.00     0.038 A 
HETATM   10  C   UNL     1      27.826  43.159  53.537  1.00  0.00     0.081 A 
BRANCH   7  11
HETATM   11  C   UNL     1      30.956  44.534  56.170  1.00  0.00     0.034 C 
HETATM   12  C   UNL     1      31.546  43.394  56.987  1.00  0.00     0.010 C 
ENDBRANCH   7  11
BRANCH  10  13
HETATM   13  O   UNL     1      26.840  42.679  52.710  1.00  0.00    -0.360 OA
HETATM   14  H   UNL     1      27.084  42.880  51.789  1.00  0.00     0.217 HD
ENDBRANCH  10  13
ENDBRANCH   1   5
BRANCH   2  15
HETATM   15  C   UNL     1      25.609  46.632  51.709  1.00  0.00     0.136 C 
BRANCH  15  16
HETATM   16  C   UNL     1      25.353  46.558  50.175  1.00  0.00    -0.004 C 
HETATM   17  C   UNL     1      26.096  45.348  49.561  1.00  0.00     0.021 C 
HETATM   18  C   UNL     1      23.842  46.334  49.923  1.00  0.00     0.021 C 
BRANCH  16  19
HETATM   19  C   UNL     1      25.876  47.862  49.535  1.00  0.00    -0.046 A 
HETATM   20  C   UNL     1      24.989  48.749  48.900  1.00  0.00     0.027 A 
HETATM   21  C   UNL     1      25.476  49.912  48.319  1.00  0.00     0.116 A 
HETATM   22  N   UNL     1      26.776  50.262  48.318  1.00  0.00    -0.273 NA
HETATM   23  C   UNL     1      27.624  49.405  48.919  1.00  0.00     0.116 A 
HETATM   24  C   UNL     1      27.231  48.217  49.526  1.00  0.00     0.027 A 
ENDBRANCH  16  19
ENDBRANCH  15  16
ENDBRANCH   2  15
TORSDOF 6
ENDMDL
MODEL 2
REMARK VINA RESULT:      -8.2      1.287      2.192
REMARK  6 active torsions:
REMARK  status: ('A' for Active; 'I' for Inactive)
REMARK    1  A    between atoms: C_2  and  C_3 
REMARK    2  A    between atoms: C_5  and  C_6 
REMARK       I    between atoms: C_6  and  N_7 
REMARK    3  A    between atoms: N_7  and  C_8 
REMARK    4  A    between atoms: C_8  and  C_9 
REMARK    5  A    between atoms: C_9  and  C_10 
REMARK    6  A    between atoms: C_19  and  O_20 
ROOT
HETATM    1  C   UNL     1      26.633  46.194  53.801  1.00  0.00     0.254 C 
HETATM    2  N   UNL     1      26.531  46.211  52.429  1.00  0.00    -0.356 N 
HETATM    3  O   UNL     1      25.788  46.707  54.529  1.00  0.00    -0.268 OA
HETATM    4  H   UNL     1      27.245  45.707  51.910  1.00  0.00     0.162 HD
ENDROOT
BRANCH   1   5
HETATM    5  C   UNL     1      27.829  45.509  54.390  1.00  0.00     0.065 A 
HETATM    6  C   UNL     1      28.355  44.422  53.669  1.00  0.00     0.027 A 
HETATM    7  C   UNL     1      29.473  43.712  54.130  1.00  0.00    -0.057 A 
HETATM    8  C   UNL     1      30.079  44.105  55.327  1.00  0.00     0.010 A 
HETATM    9  C   UNL     1      29.570  45.182  56.057  1.00  0.00     0.038 A 
HETATM   10  C   UNL     1      28.452  45.880  55.591  1.00  0.00     0.081 A 
BRANCH   7  11
HETATM   11  C   UNL     1      30.032  42.566  53.325  1.00  0.00     0.034 C 
HETATM   12  C   UNL     1      28.948  41.575  52.925  1.00  0.00     0.010 C 
ENDBRANCH   7  11
BRANCH  10  13
HETATM   13  O   UNL     1      27.987  46.937  56.335  1.00  0.00    -0.360 OA
HETATM   14  H   UNL     1      28.751  47.420  56.698  1.00  0.00     0.217 HD
ENDBRANCH  10  13
ENDBRANCH   1   5
BRANCH   2  15
HETATM   15  C   UNL     1      25.372  46.766  51.759  1.00  0.00     0.136 C 
BRANCH  15  16
HETATM   16  C   UNL     1      25.341  46.559  50.217  1.00  0.00    -0.004 C 
HETATM   17  C   UNL     1      26.270  45.392  49.809  1.00  0.00     0.021 C 
HETATM   18  C   UNL     1      23.907  46.166  49.786  1.00  0.00     0.021 C 
BRANCH  16  19
HETATM   19  C   UNL     1      25.827  47.862  49.545  1.00  0.00    -0.046 A 
HETATM   20  C   UNL     1      24.907  48.742  48.950  1.00  0.00     0.027 A 
HETATM   21  C   UNL     1      25.361  49.904  48.340  1.00  0.00     0.116 A 
HETATM   22  N   UNL     1      26.658  50.259  48.274  1.00  0.00    -0.273 NA
HETATM   23  C   UNL     1      27.537  49.408  48.837  1.00  0.00     0.116 A 
HETATM   24  C   UNL     1      27.179  48.222  49.469  1.00  0.00     0.027 A 
ENDBRANCH  16  19
ENDBRANCH  15  16
ENDBRANCH   2  15
TORSDOF 6
ENDMDL
MODEL 3
REMARK VINA RESULT:      -8.0      2.429      7.951
REMARK  6 active torsions:
REMARK  status: ('A' for Active; 'I' for Inactive)
REMARK    1  A    between atoms: C_2  and  C_3 
REMARK    2  A    between atoms: C_5  and  C_6 
REMARK       I    between atoms: C_6  and  N_7 
REMARK    3  A    between atoms: N_7  and  C_8 
REMARK    4  A    between atoms: C_8  and  C_9 
REMARK    5  A    between atoms: C_9  and  C_10 
REMARK    6  A    between atoms: C_19  and  O_20 
ROOT
HETATM    1  C   UNL     1      26.370  46.621  50.217  1.00  0.00     0.254 C 
HETATM    2  N   UNL     1      26.121  46.525  51.567  1.00  0.00    -0.356 N 
HETATM    3  O   UNL     1      26.969  45.749  49.596  1.00  0.00    -0.268 OA
HETATM    4  H   UNL     1      25.564  47.265  51.985  1.00  0.00     0.162 HD
ENDROOT
BRANCH   1   5
HETATM    5  C   UNL     1      25.871  47.848  49.515  1.00  0.00     0.065 A 
HETATM    6  C   UNL     1      24.497  48.128  49.630  1.00  0.00     0.027 A 
HETATM    7  C   UNL     1      23.926  49.251  49.013  1.00  0.00    -0.057 A 
HETATM    8  C   UNL     1      24.748  50.111  48.280  1.00  0.00     0.010 A 
HETATM    9  C   UNL     1      26.114  49.849  48.155  1.00  0.00     0.038 A 
HETATM   10  C   UNL     1      26.673  48.724  48.769  1.00  0.00     0.081 A 
BRANCH   7  11
HETATM   11  C   UNL     1      22.455  49.541  49.172  1.00  0.00     0.034 C 
HETATM   12  C   UNL     1      22.070  50.871  48.539  1.00  0.00     0.010 C 
ENDBRANCH   7  11
BRANCH  10  13
HETATM   13  O   UNL     1      28.021  48.506  48.628  1.00  0.00    -0.360 OA
HETATM   14  H   UNL     1      28.332  48.986  47.840  1.00  0.00     0.217 HD
ENDBRANCH  10  13
ENDBRANCH   1   5
BRANCH   2  15
HETATM   15  C   UNL     1      26.480  45.342  52.324  1.00  0.00     0.136 C 
BRANCH  15  16
HETATM   16  C   UNL     1      26.370  45.491  53.870  1.00  0.00    -0.004 C 
HETATM   17  C   UNL     1      26.011  46.947  54.248  1.00  0.00     0.021 C 
HETATM   18  C   UNL     1      25.219  44.593  54.387  1.00  0.00     0.021 C 
BRANCH  16  19
HETATM   19  C   UNL     1      27.736  45.122  54.489  1.00  0.00    -0.046 A 
HETATM   20  C   UNL     1      28.372  45.999  55.383  1.00  0.00     0.027 A 
HETATM   21  C   UNL     1      29.606  45.658  55.922  1.00  0.00     0.116 A 
HETATM   22  N   UNL     1      30.257  44.513  55.641  1.00  0.00    -0.273 NA
HETATM   23  C   UNL     1      29.647  43.680  54.776  1.00  0.00     0.116 A 
HETATM   24  C   UNL     1      28.415  43.934  54.184  1.00  0.00     0.027 A 
ENDBRANCH  16  19
ENDBRANCH  15  16
ENDBRANCH   2  15
TORSDOF 6
ENDMDL
MODEL 4
REMARK VINA RESULT:      -8.0      1.416      2.308
REMARK  6 active torsions:
REMARK  status: ('A' for Active; 'I' for Inactive)
REMARK    1  A    between atoms: C_2  and  C_3 
REMARK    2  A    between atoms: C_5  and  C_6 
REMARK       I    between atoms: C_6  and  N_7 
REMARK    3  A    between atoms: N_7  and  C_8 
REMARK    4  A    between atoms: C_8  and  C_9 
REMARK    5  A    between atoms: C_9  and  C_10 
REMARK    6  A    between atoms: C_19  and  O_20 
ROOT
HETATM    1  C   UNL     1      27.608  43.929  51.661  1.00  0.00     0.254 C 
HETATM    2  N   UNL     1      27.190  45.208  51.374  1.00  0.00    -0.356 N 
HETATM    3  O   UNL     1      27.281  42.962  50.978  1.00  0.00    -0.268 OA
HETATM    4  H   UNL     1      27.561  45.954  51.956  1.00  0.00     0.162 HD
ENDROOT
BRANCH   1   5
HETATM    5  C   UNL     1      28.498  43.752  52.853  1.00  0.00     0.065 A 
HETATM    6  C   UNL     1      28.415  44.733  53.858  1.00  0.00     0.027 A 
HETATM    7  C   UNL     1      29.203  44.662  55.016  1.00  0.00    -0.057 A 
HETATM    8  C   UNL     1      30.080  43.585  55.173  1.00  0.00     0.010 A 
HETATM    9  C   UNL     1      30.177  42.602  54.186  1.00  0.00     0.038 A 
HETATM   10  C   UNL     1      29.391  42.684  53.032  1.00  0.00     0.081 A 
BRANCH   7  11
HETATM   11  C   UNL     1      29.076  45.714  56.088  1.00  0.00     0.034 C 
HETATM   12  C   UNL     1      28.097  46.810  55.692  1.00  0.00     0.010 C 
ENDBRANCH   7  11
BRANCH  10  13
HETATM   13  O   UNL     1      29.510  41.693  52.090  1.00  0.00    -0.360 OA
HETATM   14  H   UNL     1      29.661  40.847  52.547  1.00  0.00     0.217 HD
ENDBRANCH  10  13
ENDBRANCH   1   5
BRANCH   2  15
HETATM   15  C   UNL     1      26.402  45.504  50.194  1.00  0.00     0.136 C 
BRANCH  15  16
HETATM   16  C   UNL     1      25.321  46.608  50.384  1.00  0.00    -0.004 C 
HETATM   17  C   UNL     1      23.954  46.124  49.845  1.00  0.00     0.021 C 
HETATM   18  C   UNL     1      25.137  46.885  51.896  1.00  0.00     0.021 C 
BRANCH  16  19
HETATM   19  C   UNL     1      25.768  47.861  49.600  1.00  0.00    -0.046 A 
HETATM   20  C   UNL     1      27.130  48.192  49.503  1.00  0.00     0.027 A 
HETATM   21  C   UNL     1      27.515  49.329  48.805  1.00  0.00     0.116 A 
HETATM   22  N   UNL     1      26.652  50.163  48.195  1.00  0.00    -0.273 NA
HETATM   23  C   UNL     1      25.346  49.847  48.298  1.00  0.00     0.116 A 
HETATM   24  C   UNL     1      24.865  48.733  48.976  1.00  0.00     0.027 A 
ENDBRANCH  16  19
ENDBRANCH  15  16
ENDBRANCH   2  15
TORSDOF 6
ENDMDL
MODEL 5
REMARK VINA RESULT:      -7.7      1.676      2.710
REMARK  6 active torsions:
REMARK  status: ('A' for Active; 'I' for Inactive)
REMARK    1  A    between atoms: C_2  and  C_3 
REMARK    2  A    between atoms: C_5  and  C_6 
REMARK       I    between atoms: C_6  and  N_7 
REMARK    3  A    between atoms: N_7  and  C_8 
REMARK    4  A    between atoms: C_8  and  C_9 
REMARK    5  A    between atoms: C_9  and  C_10 
REMARK    6  A    between atoms: C_19  and  O_20 
ROOT
HETATM    1  C   UNL     1      26.164  46.288  53.169  1.00  0.00     0.254 C 
HETATM    2  N   UNL     1      25.770  45.221  52.395  1.00  0.00    -0.356 N 
HETATM    3  O   UNL     1      25.663  47.403  53.055  1.00  0.00    -0.268 OA
HETATM    4  H   UNL     1      26.195  44.321  52.602  1.00  0.00     0.162 HD
ENDROOT
BRANCH   1   5
HETATM    5  C   UNL     1      27.240  46.038  54.182  1.00  0.00     0.065 A 
HETATM    6  C   UNL     1      28.045  44.901  53.983  1.00  0.00     0.027 A 
HETATM    7  C   UNL     1      29.081  44.575  54.870  1.00  0.00    -0.057 A 
HETATM    8  C   UNL     1      29.320  45.408  55.967  1.00  0.00     0.010 A 
HETATM    9  C   UNL     1      28.531  46.541  56.181  1.00  0.00     0.038 A 
HETATM   10  C   UNL     1      27.497  46.854  55.293  1.00  0.00     0.081 A 
BRANCH   7  11
HETATM   11  C   UNL     1      29.944  43.365  54.621  1.00  0.00     0.034 C 
HETATM   12  C   UNL     1      29.229  42.327  53.768  1.00  0.00     0.010 C 
ENDBRANCH   7  11
BRANCH  10  13
HETATM   13  O   UNL     1      26.749  47.980  55.535  1.00  0.00    -0.360 OA
HETATM   14  H   UNL     1      27.095  48.416  56.334  1.00  0.00     0.217 HD
ENDBRANCH  10  13
ENDBRANCH   1   5
BRANCH   2  15
HETATM   15  C   UNL     1      24.676  45.330  51.449  1.00  0.00     0.136 C 
BRANCH  15  16
HETATM   16  C   UNL     1      25.105  45.474  49.960  1.00  0.00    -0.004 C 
HETATM   17  C   UNL     1      26.542  44.939  49.756  1.00  0.00     0.021 C 
HETATM   18  C   UNL     1      24.173  44.610  49.076  1.00  0.00     0.021 C 
BRANCH  16  19
HETATM   19  C   UNL     1      25.058  46.972  49.587  1.00  0.00    -0.046 A 
HETATM   20  C   UNL     1      26.242  47.726  49.518  1.00  0.00     0.027 A 
HETATM   21  C   UNL     1      26.182  49.075  49.193  1.00  0.00     0.116 A 
HETATM   22  N   UNL     1      25.037  49.733  48.932  1.00  0.00    -0.273 NA
HETATM   23  C   UNL     1      23.903  49.008  49.009  1.00  0.00     0.116 A 
HETATM   24  C   UNL     1      23.863  47.656  49.328  1.00  0.00     0.027 A 
ENDBRANCH  16  19
ENDBRANCH  15  16
ENDBRANCH   2  15
TORSDOF 6
ENDMDL
MODEL 6
REMARK VINA RESULT:      -7.7      2.070      2.930
REMARK  6 active torsions:
REMARK  status: ('A' for Active; 'I' for Inactive)
REMARK    1  A    between atoms: C_2  and  C_3 
REMARK    2  A    between atoms: C_5  and  C_6 
REMARK       I    between atoms: C_6  and  N_7 
REMARK    3  A    between atoms: N_7  and  C_8 
REMARK    4  A    between atoms: C_8  and  C_9 
REMARK    5  A    between atoms: C_9  and  C_10 
REMARK    6  A    between atoms: C_19  and  O_20 
ROOT
HETATM    1  C   UNL     1      27.341  43.937  52.881  1.00  0.00     0.254 C 
HETATM    2  N   UNL     1      26.624  45.102  52.732  1.00  0.00    -0.356 N 
HETATM    3  O   UNL     1      27.064  42.911  52.267  1.00  0.00    -0.268 OA
HETATM    4  H   UNL     1      26.964  45.918  53.232  1.00  0.00     0.162 HD
ENDROOT
BRANCH   1   5
HETATM    5  C   UNL     1      28.499  43.965  53.832  1.00  0.00     0.065 A 
HETATM    6  C   UNL     1      28.432  44.894  54.886  1.00  0.00     0.027 A 
HETATM    7  C   UNL     1      29.461  45.002  55.832  1.00  0.00    -0.057 A 
HETATM    8  C   UNL     1      30.570  44.157  55.725  1.00  0.00     0.010 A 
HETATM    9  C   UNL     1      30.655  43.229  54.686  1.00  0.00     0.038 A 
HETATM   10  C   UNL     1      29.625  43.133  53.744  1.00  0.00     0.081 A 
BRANCH   7  11
HETATM   11  C   UNL     1      29.353  45.990  56.966  1.00  0.00     0.034 C 
HETATM   12  C   UNL     1      30.207  45.579  58.157  1.00  0.00     0.010 C 
ENDBRANCH   7  11
BRANCH  10  13
HETATM   13  O   UNL     1      29.743  42.201  52.742  1.00  0.00    -0.360 OA
HETATM   14  H   UNL     1      30.601  41.751  52.837  1.00  0.00     0.217 HD
ENDBRANCH  10  13
ENDBRANCH   1   5
BRANCH   2  15
HETATM   15  C   UNL     1      25.543  45.211  51.772  1.00  0.00     0.136 C 
BRANCH  15  16
HETATM   16  C   UNL     1      25.814  46.176  50.581  1.00  0.00    -0.004 C 
HETATM   17  C   UNL     1      26.348  47.534  51.096  1.00  0.00     0.021 C 
HETATM   18  C   UNL     1      26.916  45.571  49.678  1.00  0.00     0.021 C 
BRANCH  16  19
HETATM   19  C   UNL     1      24.484  46.400  49.829  1.00  0.00    -0.046 A 
HETATM   20  C   UNL     1      23.958  47.695  49.684  1.00  0.00     0.027 A 
HETATM   21  C   UNL     1      22.755  47.879  49.015  1.00  0.00     0.116 A 
HETATM   22  N   UNL     1      22.035  46.876  48.478  1.00  0.00    -0.273 NA
HETATM   23  C   UNL     1      22.539  45.635  48.627  1.00  0.00     0.116 A 
HETATM   24  C   UNL     1      23.732  45.352  49.281  1.00  0.00     0.027 A 
ENDBRANCH  16  19
ENDBRANCH  15  16
ENDBRANCH   2  15
TORSDOF 6
ENDMDL
MODEL 7
REMARK VINA RESULT:      -7.5      1.678      3.018
REMARK  6 active torsions:
REMARK  status: ('A' for Active; 'I' for Inactive)
REMARK    1  A    between atoms: C_2  and  C_3 
REMARK    2  A    between atoms: C_5  and  C_6 
REMARK       I    between atoms: C_6  and  N_7 
REMARK    3  A    between atoms: N_7  and  C_8 
REMARK    4  A    between atoms: C_8  and  C_9 
REMARK    5  A    between atoms: C_9  and  C_10 
REMARK    6  A    between atoms: C_19  and  O_20 
ROOT
HETATM    1  C   UNL     1      28.080  43.297  53.420  1.00  0.00     0.254 C 
HETATM    2  N   UNL     1      27.688  43.807  52.204  1.00  0.00    -0.356 N 
HETATM    3  O   UNL     1      27.963  42.108  53.703  1.00  0.00    -0.268 OA
HETATM    4  H   UNL     1      27.882  44.790  52.034  1.00  0.00     0.162 HD
ENDROOT
BRANCH   1   5
HETATM    5  C   UNL     1      28.673  44.258  54.405  1.00  0.00     0.065 A 
HETATM    6  C   UNL     1      29.815  43.825  55.104  1.00  0.00     0.027 A 
HETATM    7  C   UNL     1      30.449  44.647  56.047  1.00  0.00    -0.057 A 
HETATM    8  C   UNL     1      29.936  45.925  56.286  1.00  0.00     0.010 A 
HETATM    9  C   UNL     1      28.803  46.371  55.603  1.00  0.00     0.038 A 
HETATM   10  C   UNL     1      28.175  45.543  54.667  1.00  0.00     0.081 A 
BRANCH   7  11
HETATM   11  C   UNL     1      31.685  44.168  56.765  1.00  0.00     0.034 C 
HETATM   12  C   UNL     1      31.557  42.717  57.205  1.00  0.00     0.010 C 
ENDBRANCH   7  11
BRANCH  10  13
HETATM   13  O   UNL     1      27.068  46.023  54.011  1.00  0.00    -0.360 OA
HETATM   14  H   UNL     1      26.593  45.271  53.615  1.00  0.00     0.217 HD
ENDBRANCH  10  13
ENDBRANCH   1   5
BRANCH   2  15
HETATM   15  C   UNL     1      27.187  42.951  51.146  1.00  0.00     0.136 C 
BRANCH  15  16
HETATM   16  C   UNL     1      25.883  43.450  50.458  1.00  0.00    -0.004 C 
HETATM   17  C   UNL     1      25.807  42.932  49.002  1.00  0.00     0.021 C 
HETATM   18  C   UNL     1      24.659  42.870  51.208  1.00  0.00     0.021 C 
BRANCH  16  19
HETATM   19  C   UNL     1      25.900  44.995  50.453  1.00  0.00    -0.046 A 
HETATM   20  C   UNL     1      24.973  45.719  51.222  1.00  0.00     0.027 A 
HETATM   21  C   UNL     1      24.994  47.107  51.198  1.00  0.00     0.116 A 
HETATM   22  N   UNL     1      25.864  47.832  50.469  1.00  0.00    -0.273 NA
HETATM   23  C   UNL     1      26.745  47.133  49.726  1.00  0.00     0.116 A 
HETATM   24  C   UNL     1      26.800  45.745  49.684  1.00  0.00     0.027 A 
ENDBRANCH  16  19
ENDBRANCH  15  16
ENDBRANCH   2  15
TORSDOF 6
ENDMDL
MODEL 8
REMARK VINA RESULT:      -7.4      5.140      7.702
REMARK  6 active torsions:
REMARK  status: ('A' for Active; 'I' for Inactive)
REMARK    1  A    between atoms: C_2  and  C_3 
REMARK    2  A    between atoms: C_5  and  C_6 
REMARK       I    between atoms: C_6  and  N_7 
REMARK    3  A    between atoms: N_7  and  C_8 
REMARK    4  A    between atoms: C_8  and  C_9 
REMARK    5  A    between atoms: C_9  and  C_10 
REMARK    6  A    between atoms: C_19  and  O_20 
ROOT
HETATM    1  C   UNL     1      23.743  49.954  48.276  1.00  0.00     0.254 C 
HETATM    2  N   UNL     1      22.712  50.382  49.080  1.00  0.00    -0.356 N 
HETATM    3  O   UNL     1      23.811  50.243  47.085  1.00  0.00    -0.268 OA
HETATM    4  H   UNL     1      22.771  50.147  50.067  1.00  0.00     0.162 HD
ENDROOT
BRANCH   1   5
HETATM    5  C   UNL     1      24.805  49.111  48.916  1.00  0.00     0.065 A 
HETATM    6  C   UNL     1      24.367  48.061  49.744  1.00  0.00     0.027 A 
HETATM    7  C   UNL     1      25.277  47.213  50.390  1.00  0.00    -0.057 A 
HETATM    8  C   UNL     1      26.647  47.414  50.195  1.00  0.00     0.010 A 
HETATM    9  C   UNL     1      27.100  48.451  49.377  1.00  0.00     0.038 A 
HETATM   10  C   UNL     1      26.184  49.296  48.741  1.00  0.00     0.081 A 
BRANCH   7  11
HETATM   11  C   UNL     1      24.781  46.080  51.252  1.00  0.00     0.034 C 
HETATM   12  C   UNL     1      24.141  44.976  50.423  1.00  0.00     0.010 C 
ENDBRANCH   7  11
BRANCH  10  13
HETATM   13  O   UNL     1      26.670  50.299  47.939  1.00  0.00    -0.360 OA
HETATM   14  H   UNL     1      27.631  50.372  48.083  1.00  0.00     0.217 HD
ENDBRANCH  10  13
ENDBRANCH   1   5
BRANCH   2  15
HETATM   15  C   UNL     1      21.682  51.275  48.585  1.00  0.00     0.136 C 
BRANCH  15  16
HETATM   16  C   UNL     1      20.241  50.958  49.084  1.00  0.00    -0.004 C 
HETATM   17  C   UNL     1      20.188  50.973  50.629  1.00  0.00     0.021 C 
HETATM   18  C   UNL     1      19.278  52.065  48.588  1.00  0.00     0.021 C 
BRANCH  16  19
HETATM   19  C   UNL     1      19.850  49.555  48.570  1.00  0.00    -0.046 A 
HETATM   20  C   UNL     1      19.631  49.336  47.199  1.00  0.00     0.027 A 
HETATM   21  C   UNL     1      19.268  48.071  46.754  1.00  0.00     0.116 A 
HETATM   22  N   UNL     1      19.106  47.008  47.565  1.00  0.00    -0.273 NA
HETATM   23  C   UNL     1      19.308  47.226  48.879  1.00  0.00     0.116 A 
HETATM   24  C   UNL     1      19.671  48.455  49.418  1.00  0.00     0.027 A 
ENDBRANCH  16  19
ENDBRANCH  15  16
ENDBRANCH   2  15
TORSDOF 6
ENDMDL
MODEL 9
REMARK VINA RESULT:      -7.4      2.299      7.757
REMARK  6 active torsions:
REMARK  status: ('A' for Active; 'I' for Inactive)
REMARK    1  A    between atoms: C_2  and  C_3 
REMARK    2  A    between atoms: C_5  and  C_6 
REMARK       I    between atoms: C_6  and  N_7 
REMARK    3  A    between atoms: N_7  and  C_8 
REMARK    4  A    between atoms: C_8  and  C_9 
REMARK    5  A    between atoms: C_9  and  C_10 
REMARK    6  A    between atoms: C_19  and  O_20 
ROOT
HETATM    1  C   UNL     1      26.620  44.930  50.389  1.00  0.00     0.254 C 
HETATM    2  N   UNL     1      26.898  44.843  51.733  1.00  0.00    -0.356 N 
HETATM    3  O   UNL     1      27.296  44.356  49.540  1.00  0.00    -0.268 OA
HETATM    4  H   UNL     1      26.247  45.300  52.367  1.00  0.00     0.162 HD
ENDROOT
BRANCH   1   5
HETATM    5  C   UNL     1      25.439  45.760  49.986  1.00  0.00     0.065 A 
HETATM    6  C   UNL     1      24.458  45.128  49.201  1.00  0.00     0.027 A 
HETATM    7  C   UNL     1      23.312  45.813  48.772  1.00  0.00    -0.057 A 
HETATM    8  C   UNL     1      23.143  47.150  49.144  1.00  0.00     0.010 A 
HETATM    9  C   UNL     1      24.107  47.794  49.922  1.00  0.00     0.038 A 
HETATM   10  C   UNL     1      25.249  47.104  50.342  1.00  0.00     0.081 A 
BRANCH   7  11
HETATM   11  C   UNL     1      22.264  45.104  47.951  1.00  0.00     0.034 C 
HETATM   12  C   UNL     1      20.928  45.038  48.677  1.00  0.00     0.010 C 
ENDBRANCH   7  11
BRANCH  10  13
HETATM   13  O   UNL     1      26.168  47.772  51.112  1.00  0.00    -0.360 OA
HETATM   14  H   UNL     1      26.107  47.439  52.025  1.00  0.00     0.217 HD
ENDBRANCH  10  13
ENDBRANCH   1   5
BRANCH   2  15
HETATM   15  C   UNL     1      27.960  43.996  52.238  1.00  0.00     0.136 C 
BRANCH  15  16
HETATM   16  C   UNL     1      27.728  43.431  53.670  1.00  0.00    -0.004 C 
HETATM   17  C   UNL     1      26.306  43.782  54.166  1.00  0.00     0.021 C 
HETATM   18  C   UNL     1      27.822  41.886  53.628  1.00  0.00     0.021 C 
BRANCH  16  19
HETATM   19  C   UNL     1      28.773  44.064  54.614  1.00  0.00    -0.046 A 
HETATM   20  C   UNL     1      28.552  45.337  55.168  1.00  0.00     0.027 A 
HETATM   21  C   UNL     1      29.506  45.898  56.007  1.00  0.00     0.116 A 
HETATM   22  N   UNL     1      30.664  45.294  56.336  1.00  0.00    -0.273 NA
HETATM   23  C   UNL     1      30.876  44.079  55.795  1.00  0.00     0.116 A 
HETATM   24  C   UNL     1      29.982  43.437  54.945  1.00  0.00     0.027 A 
ENDBRANCH  16  19
ENDBRANCH  15  16
ENDBRANCH   2  15
TORSDOF 6
ENDMDL
MODEL 10
REMARK VINA RESULT:      -7.3      5.376      7.832
REMARK  6 active torsions:
REMARK  status: ('A' for Active; 'I' for Inactive)
REMARK    1  A    between atoms: C_2  and  C_3 
REMARK    2  A    between atoms: C_5  and  C_6 
REMARK       I    between atoms: C_6  and  N_7 
REMARK    3  A    between atoms: N_7  and  C_8 
REMARK    4  A    between atoms: C_8  and  C_9 
REMARK    5  A    between atoms: C_9  and  C_10 
REMARK    6  A    between atoms: C_19  and  O_20 
ROOT
HETATM    1  C   UNL     1      22.617  48.359  48.566  1.00  0.00     0.254 C 
HETATM    2  N   UNL     1      21.663  48.616  49.523  1.00  0.00    -0.356 N 
HETATM    3  O   UNL     1      22.327  48.127  47.395  1.00  0.00    -0.268 OA
HETATM    4  H   UNL     1      21.998  48.859  50.452  1.00  0.00     0.162 HD
ENDROOT
BRANCH   1   5
HETATM    5  C   UNL     1      24.049  48.377  49.005  1.00  0.00     0.065 A 
HETATM    6  C   UNL     1      24.407  47.491  50.038  1.00  0.00     0.027 A 
HETATM    7  C   UNL     1      25.721  47.427  50.523  1.00  0.00    -0.057 A 
HETATM    8  C   UNL     1      26.693  48.257  49.957  1.00  0.00     0.010 A 
HETATM    9  C   UNL     1      26.357  49.143  48.932  1.00  0.00     0.038 A 
HETATM   10  C   UNL     1      25.042  49.203  48.458  1.00  0.00     0.081 A 
BRANCH   7  11
HETATM   11  C   UNL     1      26.082  46.452  51.615  1.00  0.00     0.034 C 
HETATM   12  C   UNL     1      26.057  47.105  52.989  1.00  0.00     0.010 C 
ENDBRANCH   7  11
BRANCH  10  13
HETATM   13  O   UNL     1      24.755  50.082  47.443  1.00  0.00    -0.360 OA
HETATM   14  H   UNL     1      25.367  50.837  47.505  1.00  0.00     0.217 HD
ENDBRANCH  10  13
ENDBRANCH   1   5
BRANCH   2  15
HETATM   15  C   UNL     1      20.255  48.712  49.189  1.00  0.00     0.136 C 
BRANCH  15  16
HETATM   16  C   UNL     1      19.638  50.133  49.339  1.00  0.00    -0.004 C 
HETATM   17  C   UNL     1      18.506  50.123  50.392  1.00  0.00     0.021 C 
HETATM   18  C   UNL     1      20.726  51.107  49.855  1.00  0.00     0.021 C 
BRANCH  16  19
HETATM   19  C   UNL     1      19.063  50.556  47.969  1.00  0.00    -0.046 A 
HETATM   20  C   UNL     1      18.262  51.706  47.859  1.00  0.00     0.027 A 
HETATM   21  C   UNL     1      17.742  52.067  46.623  1.00  0.00     0.116 A 
HETATM   22  N   UNL     1      17.955  51.374  45.488  1.00  0.00    -0.273 NA
HETATM   23  C   UNL     1      18.715  50.267  45.601  1.00  0.00     0.116 A 
HETATM   24  C   UNL     1      19.277  49.826  46.793  1.00  0.00     0.027 A 
ENDBRANCH  16  19
ENDBRANCH  15  16
ENDBRANCH   2  15
TORSDOF 6
ENDMDL
