MODEL 1
REMARK VINA RESULT:      -9.5      0.000      0.000
REMARK  5 active torsions:
REMARK  status: ('A' for Active; 'I' for Inactive)
REMARK    1  A    between atoms: O_2  and  C_3 
REMARK    2  A    between atoms: C_5  and  O_6 
REMARK    3  A    between atoms: C_8  and  C_9 
REMARK    4  A    between atoms: C_21  and  N_22 
REMARK       I    between atoms: N_22  and  C_23 
REMARK    5  A    between atoms: C_23  and  C_24 
ROOT
HETATM    1  C   UNL     1      25.789  44.628  52.166  1.00  0.00    -0.022 A 
HETATM    2  C   UNL     1      25.070  45.552  51.393  1.00  0.00     0.031 A 
HETATM    3  C   UNL     1      24.231  45.148  50.336  1.00  0.00     0.059 A 
HETATM    4  C   UNL     1      24.097  43.779  50.044  1.00  0.00     0.050 A 
HETATM    5  N   UNL     1      23.311  43.229  49.012  1.00  0.00    -0.324 N 
HETATM    6  C   UNL     1      22.168  43.739  48.452  1.00  0.00     0.245 C 
HETATM    7  O   UNL     1      21.618  43.132  47.534  1.00  0.00    -0.271 OA
HETATM    8  C   UNL     1      21.598  45.011  49.082  1.00  0.00     0.181 C 
HETATM    9  N   UNL     1      22.523  46.101  48.782  1.00  0.00    -0.334 N 
HETATM   10  C   UNL     1      23.727  46.244  49.462  1.00  0.00     0.256 C 
HETATM   11  O   UNL     1      24.412  47.258  49.335  1.00  0.00    -0.267 OA
HETATM   12  C   UNL     1      20.137  45.296  48.693  1.00  0.00     0.060 C 
HETATM   13  C   UNL     1      19.931  46.635  47.984  1.00  0.00     0.088 C 
HETATM   14  C   UNL     1      21.003  46.814  46.918  1.00  0.00     0.045 C 
HETATM   15  C   UNL     1      22.398  46.831  47.523  1.00  0.00     0.129 C 
HETATM   16  C   UNL     1      24.829  42.854  50.800  1.00  0.00     0.031 A 
HETATM   17  C   UNL     1      25.653  43.271  51.851  1.00  0.00     0.014 A 
HETATM   18  H   UNL     1      23.515  42.284  48.704  1.00  0.00     0.169 HD
ENDROOT
BRANCH  13  19
HETATM   19  N   UNL     1      19.919  47.755  48.929  1.00  0.00    -0.356 N 
HETATM   20  C   UNL     1      18.956  48.733  48.871  1.00  0.00     0.222 C 
HETATM   21  O   UNL     1      18.141  48.837  47.961  1.00  0.00    -0.273 OA
HETATM   22  H   UNL     1      20.383  47.593  49.819  1.00  0.00     0.162 HD
BRANCH  20  23
HETATM   23  C   UNL     1      19.051  49.777  49.975  1.00  0.00     0.081 C 
HETATM   24  C   UNL     1      17.916  50.808  49.866  1.00  0.00     0.041 C 
HETATM   25  C   UNL     1      18.075  51.771  48.695  1.00  0.00     0.233 C 
HETATM   26  N   UNL     1      19.441  52.372  48.721  1.00  0.00    -0.075 N 
HETATM   27  H   UNL     1      19.536  52.987  49.539  1.00  0.00     0.277 HD
HETATM   28  H   UNL     1      19.537  52.984  47.899  1.00  0.00     0.277 HD
HETATM   29  C   UNL     1      20.548  51.371  48.699  1.00  0.00     0.233 C 
HETATM   30  C   UNL     1      20.422  50.459  49.912  1.00  0.00     0.041 C 
ENDBRANCH  20  23
ENDBRANCH  13  19
BRANCH   1  31
HETATM   31  C   UNL     1      26.716  45.080  53.224  1.00  0.00     0.008 A 
HETATM   32  C   UNL     1      27.888  44.374  53.572  1.00  0.00     0.082 A 
HETATM   33  C   UNL     1      28.723  44.868  54.584  1.00  0.00     0.074 A 
HETATM   34  C   UNL     1      28.429  46.064  55.249  1.00  0.00     0.070 A 
HETATM   35  C   UNL     1      27.281  46.769  54.906  1.00  0.00     0.038 A 
HETATM   36  C   UNL     1      26.436  46.281  53.906  1.00  0.00     0.018 A 
BRANCH  32  37
HETATM   37  O   UNL     1      28.119  43.198  52.898  1.00  0.00    -0.355 OA
HETATM   38  C   UNL     1      29.474  42.881  52.595  1.00  0.00     0.210 C 
ENDBRANCH  32  37
BRANCH  34  39
HETATM   39  O   UNL     1      29.336  46.423  56.208  1.00  0.00    -0.356 OA
HETATM   40  C   UNL     1      30.308  45.450  56.572  1.00  0.00     0.210 C 
ENDBRANCH  34  39
ENDBRANCH   1  31
TORSDOF 5
ENDMDL
MODEL 2
REMARK VINA RESULT:      -9.5      5.192      7.993
REMARK  5 active torsions:
REMARK  status: ('A' for Active; 'I' for Inactive)
REMARK    1  A    between atoms: O_2  and  C_3 
REMARK    2  A    between atoms: C_5  and  O_6 
REMARK    3  A    between atoms: C_8  and  C_9 
REMARK    4  A    between atoms: C_21  and  N_22 
REMARK       I    between atoms: N_22  and  C_23 
REMARK    5  A    between atoms: C_23  and  C_24 
ROOT
HETATM    1  C   UNL     1      27.572  43.017  52.821  1.00  0.00    -0.022 A 
HETATM    2  C   UNL     1      27.274  42.637  51.503  1.00  0.00     0.031 A 
HETATM    3  C   UNL     1      27.775  41.447  50.938  1.00  0.00     0.059 A 
HETATM    4  C   UNL     1      28.593  40.605  51.711  1.00  0.00     0.050 A 
HETATM    5  N   UNL     1      29.177  39.398  51.277  1.00  0.00    -0.324 N 
HETATM    6  C   UNL     1      28.718  38.529  50.322  1.00  0.00     0.245 C 
HETATM    7  O   UNL     1      29.374  37.524  50.049  1.00  0.00    -0.271 OA
HETATM    8  C   UNL     1      27.349  38.834  49.710  1.00  0.00     0.181 C 
HETATM    9  N   UNL     1      27.492  40.037  48.896  1.00  0.00    -0.334 N 
HETATM   10  C   UNL     1      27.572  41.301  49.470  1.00  0.00     0.256 C 
HETATM   11  O   UNL     1      27.508  42.318  48.779  1.00  0.00    -0.267 OA
HETATM   12  C   UNL     1      26.720  37.640  48.970  1.00  0.00     0.060 C 
HETATM   13  C   UNL     1      26.436  37.903  47.491  1.00  0.00     0.088 C 
HETATM   14  C   UNL     1      27.641  38.583  46.857  1.00  0.00     0.045 C 
HETATM   15  C   UNL     1      27.936  39.925  47.508  1.00  0.00     0.129 C 
HETATM   16  C   UNL     1      28.910  40.990  53.020  1.00  0.00     0.031 A 
HETATM   17  C   UNL     1      28.399  42.171  53.570  1.00  0.00     0.014 A 
HETATM   18  H   UNL     1      29.969  39.034  51.796  1.00  0.00     0.169 HD
ENDROOT
BRANCH  13  19
HETATM   19  N   UNL     1      25.214  38.689  47.304  1.00  0.00    -0.356 N 
HETATM   20  C   UNL     1      24.589  38.765  46.084  1.00  0.00     0.222 C 
HETATM   21  O   UNL     1      25.064  38.324  45.043  1.00  0.00    -0.273 OA
HETATM   22  H   UNL     1      24.655  38.852  48.138  1.00  0.00     0.162 HD
BRANCH  20  23
HETATM   23  C   UNL     1      23.292  39.563  46.088  1.00  0.00     0.081 C 
HETATM   24  C   UNL     1      23.115  40.346  44.777  1.00  0.00     0.041 C 
HETATM   25  C   UNL     1      24.057  41.538  44.645  1.00  0.00     0.233 C 
HETATM   26  N   UNL     1      23.974  42.382  45.872  1.00  0.00    -0.075 N 
HETATM   27  H   UNL     1      23.049  42.826  45.930  1.00  0.00     0.277 HD
HETATM   28  H   UNL     1      24.648  43.154  45.776  1.00  0.00     0.277 HD
HETATM   29  C   UNL     1      24.271  41.648  47.138  1.00  0.00     0.233 C 
HETATM   30  C   UNL     1      23.279  40.504  47.298  1.00  0.00     0.041 C 
ENDBRANCH  20  23
ENDBRANCH  13  19
BRANCH   1  31
HETATM   31  C   UNL     1      27.092  44.302  53.369  1.00  0.00     0.008 A 
HETATM   32  C   UNL     1      25.779  44.779  53.171  1.00  0.00     0.082 A 
HETATM   33  C   UNL     1      25.394  46.007  53.727  1.00  0.00     0.074 A 
HETATM   34  C   UNL     1      26.284  46.768  54.493  1.00  0.00     0.070 A 
HETATM   35  C   UNL     1      27.577  46.302  54.699  1.00  0.00     0.038 A 
HETATM   36  C   UNL     1      27.975  45.083  54.141  1.00  0.00     0.018 A 
BRANCH  32  37
HETATM   37  O   UNL     1      24.953  43.999  52.397  1.00  0.00    -0.355 OA
HETATM   38  C   UNL     1      24.309  44.632  51.296  1.00  0.00     0.210 C 
ENDBRANCH  32  37
BRANCH  34  39
HETATM   39  O   UNL     1      25.767  47.940  54.974  1.00  0.00    -0.356 OA
HETATM   40  C   UNL     1      26.499  48.592  56.005  1.00  0.00     0.210 C 
ENDBRANCH  34  39
ENDBRANCH   1  31
TORSDOF 5
ENDMDL
MODEL 3
REMARK VINA RESULT:      -9.1     10.819     13.592
REMARK  5 active torsions:
REMARK  status: ('A' for Active; 'I' for Inactive)
REMARK    1  A    between atoms: O_2  and  C_3 
REMARK    2  A    between atoms: C_5  and  O_6 
REMARK    3  A    between atoms: C_8  and  C_9 
REMARK    4  A    between atoms: C_21  and  N_22 
REMARK       I    between atoms: N_22  and  C_23 
REMARK    5  A    between atoms: C_23  and  C_24 
ROOT
HETATM    1  C   UNL     1      27.287  44.904  40.129  1.00  0.00    -0.022 A 
HETATM    2  C   UNL     1      28.327  45.845  40.111  1.00  0.00     0.031 A 
HETATM    3  C   UNL     1      28.178  47.111  39.510  1.00  0.00     0.059 A 
HETATM    4  C   UNL     1      26.952  47.454  38.914  1.00  0.00     0.050 A 
HETATM    5  N   UNL     1      26.662  48.670  38.264  1.00  0.00    -0.324 N 
HETATM    6  C   UNL     1      27.206  49.907  38.496  1.00  0.00     0.245 C 
HETATM    7  O   UNL     1      26.851  50.865  37.811  1.00  0.00    -0.271 OA
HETATM    8  C   UNL     1      28.174  50.026  39.675  1.00  0.00     0.181 C 
HETATM    9  N   UNL     1      29.385  49.290  39.322  1.00  0.00    -0.334 N 
HETATM   10  C   UNL     1      29.432  47.901  39.360  1.00  0.00     0.256 C 
HETATM   11  O   UNL     1      30.498  47.298  39.241  1.00  0.00    -0.267 OA
HETATM   12  C   UNL     1      28.424  51.475  40.129  1.00  0.00     0.060 C 
HETATM   13  C   UNL     1      29.888  51.910  40.049  1.00  0.00     0.088 C 
HETATM   14  C   UNL     1      30.475  51.467  38.716  1.00  0.00     0.045 C 
HETATM   15  C   UNL     1      30.442  49.955  38.562  1.00  0.00     0.129 C 
HETATM   16  C   UNL     1      25.917  46.509  38.911  1.00  0.00     0.031 A 
HETATM   17  C   UNL     1      26.078  45.259  39.519  1.00  0.00     0.014 A 
HETATM   18  H   UNL     1      25.875  48.697  37.624  1.00  0.00     0.169 HD
ENDROOT
BRANCH  13  19
HETATM   19  N   UNL     1      30.669  51.399  41.178  1.00  0.00    -0.356 N 
HETATM   20  C   UNL     1      31.779  52.062  41.641  1.00  0.00     0.222 C 
HETATM   21  O   UNL     1      32.286  53.024  41.075  1.00  0.00    -0.273 OA
HETATM   22  H   UNL     1      30.176  50.785  41.821  1.00  0.00     0.162 HD
BRANCH  20  23
HETATM   23  C   UNL     1      32.425  51.431  42.867  1.00  0.00     0.081 C 
HETATM   24  C   UNL     1      33.958  51.501  42.787  1.00  0.00     0.041 C 
HETATM   25  C   UNL     1      34.562  50.552  41.758  1.00  0.00     0.233 C 
HETATM   26  N   UNL     1      34.028  49.175  41.972  1.00  0.00    -0.075 N 
HETATM   27  H   UNL     1      34.376  48.799  42.863  1.00  0.00     0.277 HD
HETATM   28  H   UNL     1      34.417  48.564  41.241  1.00  0.00     0.277 HD
HETATM   29  C   UNL     1      32.539  49.084  41.923  1.00  0.00     0.233 C 
HETATM   30  C   UNL     1      31.947  49.980  43.003  1.00  0.00     0.041 C 
ENDBRANCH  20  23
ENDBRANCH  13  19
BRANCH   1  31
HETATM   31  C   UNL     1      27.489  43.559  40.704  1.00  0.00     0.008 A 
HETATM   32  C   UNL     1      27.043  43.199  41.993  1.00  0.00     0.082 A 
HETATM   33  C   UNL     1      27.267  41.899  42.470  1.00  0.00     0.074 A 
HETATM   34  C   UNL     1      27.912  40.939  41.683  1.00  0.00     0.070 A 
HETATM   35  C   UNL     1      28.348  41.283  40.409  1.00  0.00     0.038 A 
HETATM   36  C   UNL     1      28.139  42.578  39.927  1.00  0.00     0.018 A 
BRANCH  32  37
HETATM   37  O   UNL     1      26.430  44.186  42.728  1.00  0.00    -0.355 OA
HETATM   38  C   UNL     1      25.034  44.042  42.969  1.00  0.00     0.210 C 
ENDBRANCH  32  37
BRANCH  34  39
HETATM   39  O   UNL     1      28.056  39.715  42.277  1.00  0.00    -0.356 OA
HETATM   40  C   UNL     1      29.253  39.494  43.015  1.00  0.00     0.210 C 
ENDBRANCH  34  39
ENDBRANCH   1  31
TORSDOF 5
ENDMDL
MODEL 4
REMARK VINA RESULT:      -8.9      4.267      7.582
REMARK  5 active torsions:
REMARK  status: ('A' for Active; 'I' for Inactive)
REMARK    1  A    between atoms: O_2  and  C_3 
REMARK    2  A    between atoms: C_5  and  O_6 
REMARK    3  A    between atoms: C_8  and  C_9 
REMARK    4  A    between atoms: C_21  and  N_22 
REMARK       I    between atoms: N_22  and  C_23 
REMARK    5  A    between atoms: C_23  and  C_24 
ROOT
HETATM    1  C   UNL     1      26.791  44.227  52.811  1.00  0.00    -0.022 A 
HETATM    2  C   UNL     1      26.636  43.279  51.789  1.00  0.00     0.031 A 
HETATM    3  C   UNL     1      25.473  43.221  50.994  1.00  0.00     0.059 A 
HETATM    4  C   UNL     1      24.434  44.141  51.220  1.00  0.00     0.050 A 
HETATM    5  N   UNL     1      23.213  44.194  50.521  1.00  0.00    -0.324 N 
HETATM    6  C   UNL     1      22.956  43.807  49.231  1.00  0.00     0.245 C 
HETATM    7  O   UNL     1      21.814  43.900  48.784  1.00  0.00    -0.271 OA
HETATM    8  C   UNL     1      24.155  43.355  48.394  1.00  0.00     0.181 C 
HETATM    9  N   UNL     1      24.618  42.084  48.942  1.00  0.00    -0.334 N 
HETATM   10  C   UNL     1      25.354  42.022  50.119  1.00  0.00     0.256 C 
HETATM   11  O   UNL     1      25.895  40.975  50.477  1.00  0.00    -0.267 OA
HETATM   12  C   UNL     1      23.880  43.330  46.880  1.00  0.00     0.060 C 
HETATM   13  C   UNL     1      24.060  41.953  46.237  1.00  0.00     0.088 C 
HETATM   14  C   UNL     1      23.389  40.898  47.104  1.00  0.00     0.045 C 
HETATM   15  C   UNL     1      24.007  40.835  48.492  1.00  0.00     0.129 C 
HETATM   16  C   UNL     1      24.576  45.077  52.255  1.00  0.00     0.031 A 
HETATM   17  C   UNL     1      25.740  45.125  53.030  1.00  0.00     0.014 A 
HETATM   18  H   UNL     1      22.434  44.683  50.950  1.00  0.00     0.169 HD
ENDROOT
BRANCH  13  19
HETATM   19  N   UNL     1      25.473  41.642  46.007  1.00  0.00    -0.356 N 
HETATM   20  C   UNL     1      25.879  40.917  44.914  1.00  0.00     0.222 C 
HETATM   21  O   UNL     1      25.110  40.354  44.143  1.00  0.00    -0.273 OA
HETATM   22  H   UNL     1      26.145  42.269  46.441  1.00  0.00     0.162 HD
BRANCH  20  23
HETATM   23  C   UNL     1      27.388  40.752  44.792  1.00  0.00     0.081 C 
HETATM   24  C   UNL     1      27.751  39.392  44.173  1.00  0.00     0.041 C 
HETATM   25  C   UNL     1      27.517  38.212  45.109  1.00  0.00     0.233 C 
HETATM   26  N   UNL     1      28.173  38.476  46.423  1.00  0.00    -0.075 N 
HETATM   27  H   UNL     1      29.195  38.480  46.310  1.00  0.00     0.277 HD
HETATM   28  H   UNL     1      27.966  37.686  47.049  1.00  0.00     0.277 HD
HETATM   29  C   UNL     1      27.726  39.736  47.086  1.00  0.00     0.233 C 
HETATM   30  C   UNL     1      28.030  40.917  46.174  1.00  0.00     0.041 C 
ENDBRANCH  20  23
ENDBRANCH  13  19
BRANCH   1  31
HETATM   31  C   UNL     1      27.989  44.224  53.676  1.00  0.00     0.008 A 
HETATM   32  C   UNL     1      28.257  45.238  54.621  1.00  0.00     0.082 A 
HETATM   33  C   UNL     1      29.413  45.164  55.410  1.00  0.00     0.074 A 
HETATM   34  C   UNL     1      30.304  44.092  55.294  1.00  0.00     0.070 A 
HETATM   35  C   UNL     1      30.044  43.086  54.372  1.00  0.00     0.038 A 
HETATM   36  C   UNL     1      28.899  43.153  53.572  1.00  0.00     0.018 A 
BRANCH  32  37
HETATM   37  O   UNL     1      27.357  46.275  54.681  1.00  0.00    -0.355 OA
HETATM   38  C   UNL     1      27.887  47.582  54.871  1.00  0.00     0.210 C 
ENDBRANCH  32  37
BRANCH  34  39
HETATM   39  O   UNL     1      31.385  44.153  56.132  1.00  0.00    -0.356 OA
HETATM   40  C   UNL     1      31.472  43.156  57.143  1.00  0.00     0.210 C 
ENDBRANCH  34  39
ENDBRANCH   1  31
TORSDOF 5
ENDMDL
MODEL 5
REMARK VINA RESULT:      -8.9      5.299      9.385
REMARK  5 active torsions:
REMARK  status: ('A' for Active; 'I' for Inactive)
REMARK    1  A    between atoms: O_2  and  C_3 
REMARK    2  A    between atoms: C_5  and  O_6 
REMARK    3  A    between atoms: C_8  and  C_9 
REMARK    4  A    between atoms: C_21  and  N_22 
REMARK       I    between atoms: N_22  and  C_23 
REMARK    5  A    between atoms: C_23  and  C_24 
ROOT
HETATM    1  C   UNL     1      20.596  50.808  48.135  1.00  0.00    -0.022 A 
HETATM    2  C   UNL     1      19.949  50.557  46.916  1.00  0.00     0.031 A 
HETATM    3  C   UNL     1      18.670  51.074  46.628  1.00  0.00     0.059 A 
HETATM    4  C   UNL     1      18.017  51.873  47.583  1.00  0.00     0.050 A 
HETATM    5  N   UNL     1      16.736  52.443  47.444  1.00  0.00    -0.324 N 
HETATM    6  C   UNL     1      16.095  52.818  46.293  1.00  0.00     0.245 C 
HETATM    7  O   UNL     1      14.957  53.281  46.354  1.00  0.00    -0.271 OA
HETATM    8  C   UNL     1      16.892  52.710  44.991  1.00  0.00     0.181 C 
HETATM    9  N   UNL     1      17.084  51.290  44.712  1.00  0.00    -0.334 N 
HETATM   10  C   UNL     1      18.019  50.530  45.405  1.00  0.00     0.256 C 
HETATM   11  O   UNL     1      18.304  49.388  45.043  1.00  0.00    -0.267 OA
HETATM   12  C   UNL     1      16.286  53.509  43.824  1.00  0.00     0.060 C 
HETATM   13  C   UNL     1      15.915  52.655  42.610  1.00  0.00     0.088 C 
HETATM   14  C   UNL     1      15.184  51.404  43.077  1.00  0.00     0.045 C 
HETATM   15  C   UNL     1      16.056  50.549  43.983  1.00  0.00     0.129 C 
HETATM   16  C   UNL     1      18.651  52.109  48.811  1.00  0.00     0.031 A 
HETATM   17  C   UNL     1      19.924  51.593  49.078  1.00  0.00     0.014 A 
HETATM   18  H   UNL     1      16.248  52.738  48.283  1.00  0.00     0.169 HD
ENDROOT
BRANCH  13  19
HETATM   19  N   UNL     1      17.090  52.323  41.800  1.00  0.00    -0.356 N 
HETATM   20  C   UNL     1      16.988  52.095  40.450  1.00  0.00     0.222 C 
HETATM   21  O   UNL     1      15.924  52.002  39.850  1.00  0.00    -0.273 OA
HETATM   22  H   UNL     1      17.987  52.628  42.168  1.00  0.00     0.162 HD
BRANCH  20  23
HETATM   23  C   UNL     1      18.318  51.838  39.753  1.00  0.00     0.081 C 
HETATM   24  C   UNL     1      18.188  50.726  38.699  1.00  0.00     0.041 C 
HETATM   25  C   UNL     1      18.026  49.333  39.296  1.00  0.00     0.233 C 
HETATM   26  N   UNL     1      19.099  49.091  40.305  1.00  0.00    -0.075 N 
HETATM   27  H   UNL     1      20.013  49.035  39.837  1.00  0.00     0.277 HD
HETATM   28  H   UNL     1      18.943  48.163  40.722  1.00  0.00     0.277 HD
HETATM   29  C   UNL     1      19.144  50.103  41.401  1.00  0.00     0.233 C 
HETATM   30  C   UNL     1      19.380  51.482  40.800  1.00  0.00     0.041 C 
ENDBRANCH  20  23
ENDBRANCH  13  19
BRANCH   1  31
HETATM   31  C   UNL     1      21.906  50.197  48.440  1.00  0.00     0.008 A 
HETATM   32  C   UNL     1      22.042  48.904  48.988  1.00  0.00     0.082 A 
HETATM   33  C   UNL     1      23.320  48.389  49.247  1.00  0.00     0.074 A 
HETATM   34  C   UNL     1      24.473  49.126  48.955  1.00  0.00     0.070 A 
HETATM   35  C   UNL     1      24.348  50.398  48.407  1.00  0.00     0.038 A 
HETATM   36  C   UNL     1      23.079  50.925  48.155  1.00  0.00     0.018 A 
BRANCH  32  37
HETATM   37  O   UNL     1      20.877  48.231  49.271  1.00  0.00    -0.355 OA
HETATM   38  C   UNL     1      20.613  47.051  48.519  1.00  0.00     0.210 C 
ENDBRANCH  32  37
BRANCH  34  39
HETATM   39  O   UNL     1      25.648  48.494  49.256  1.00  0.00    -0.356 OA
HETATM   40  C   UNL     1      26.849  49.131  48.833  1.00  0.00     0.210 C 
ENDBRANCH  34  39
ENDBRANCH   1  31
TORSDOF 5
ENDMDL
MODEL 6
REMARK VINA RESULT:      -8.5      2.925      5.746
REMARK  5 active torsions:
REMARK  status: ('A' for Active; 'I' for Inactive)
REMARK    1  A    between atoms: O_2  and  C_3 
REMARK    2  A    between atoms: C_5  and  O_6 
REMARK    3  A    between atoms: C_8  and  C_9 
REMARK    4  A    between atoms: C_21  and  N_22 
REMARK       I    between atoms: N_22  and  C_23 
REMARK    5  A    between atoms: C_23  and  C_24 
ROOT
HETATM    1  C   UNL     1      26.048  45.438  51.367  1.00  0.00    -0.022 A 
HETATM    2  C   UNL     1      24.937  44.781  50.818  1.00  0.00     0.031 A 
HETATM    3  C   UNL     1      23.990  45.455  50.021  1.00  0.00     0.059 A 
HETATM    4  C   UNL     1      24.158  46.825  49.757  1.00  0.00     0.050 A 
HETATM    5  N   UNL     1      23.289  47.631  48.996  1.00  0.00    -0.324 N 
HETATM    6  C   UNL     1      22.469  47.255  47.963  1.00  0.00     0.245 C 
HETATM    7  O   UNL     1      21.751  48.093  47.420  1.00  0.00    -0.271 OA
HETATM    8  C   UNL     1      22.573  45.802  47.493  1.00  0.00     0.181 C 
HETATM    9  N   UNL     1      22.030  44.959  48.555  1.00  0.00    -0.334 N 
HETATM   10  C   UNL     1      22.752  44.688  49.711  1.00  0.00     0.256 C 
HETATM   11  O   UNL     1      22.370  43.836  50.513  1.00  0.00    -0.267 OA
HETATM   12  C   UNL     1      21.953  45.553  46.107  1.00  0.00     0.060 C 
HETATM   13  C   UNL     1      20.819  44.526  46.107  1.00  0.00     0.088 C 
HETATM   14  C   UNL     1      19.880  44.808  47.270  1.00  0.00     0.045 C 
HETATM   15  C   UNL     1      20.593  44.697  48.608  1.00  0.00     0.129 C 
HETATM   16  C   UNL     1      25.255  47.490  50.321  1.00  0.00     0.031 A 
HETATM   17  C   UNL     1      26.191  46.805  51.105  1.00  0.00     0.014 A 
HETATM   18  H   UNL     1      23.338  48.637  49.116  1.00  0.00     0.169 HD
ENDROOT
BRANCH  13  19
HETATM   19  N   UNL     1      21.330  43.153  46.148  1.00  0.00    -0.356 N 
HETATM   20  C   UNL     1      21.791  42.525  45.017  1.00  0.00     0.222 C 
HETATM   21  O   UNL     1      21.678  42.984  43.886  1.00  0.00    -0.273 OA
HETATM   22  H   UNL     1      21.677  42.833  47.048  1.00  0.00     0.162 HD
BRANCH  20  23
HETATM   23  C   UNL     1      22.355  41.131  45.256  1.00  0.00     0.081 C 
HETATM   24  C   UNL     1      22.885  40.983  46.691  1.00  0.00     0.041 C 
HETATM   25  C   UNL     1      24.180  41.746  46.947  1.00  0.00     0.233 C 
HETATM   26  N   UNL     1      25.179  41.406  45.893  1.00  0.00    -0.075 N 
HETATM   27  H   UNL     1      25.469  40.424  45.989  1.00  0.00     0.277 HD
HETATM   28  H   UNL     1      26.027  41.964  46.063  1.00  0.00     0.277 HD
HETATM   29  C   UNL     1      24.711  41.669  44.500  1.00  0.00     0.233 C 
HETATM   30  C   UNL     1      23.458  40.846  44.230  1.00  0.00     0.041 C 
ENDBRANCH  20  23
ENDBRANCH  13  19
BRANCH   1  31
HETATM   31  C   UNL     1      26.990  44.726  52.256  1.00  0.00     0.008 A 
HETATM   32  C   UNL     1      27.799  43.655  51.818  1.00  0.00     0.082 A 
HETATM   33  C   UNL     1      28.673  43.031  52.719  1.00  0.00     0.074 A 
HETATM   34  C   UNL     1      28.775  43.460  54.047  1.00  0.00     0.070 A 
HETATM   35  C   UNL     1      27.988  44.519  54.484  1.00  0.00     0.038 A 
HETATM   36  C   UNL     1      27.106  45.143  53.597  1.00  0.00     0.018 A 
BRANCH  32  37
HETATM   37  O   UNL     1      27.645  43.265  50.509  1.00  0.00    -0.355 OA
HETATM   38  C   UNL     1      27.289  41.906  50.277  1.00  0.00     0.210 C 
ENDBRANCH  32  37
BRANCH  34  39
HETATM   39  O   UNL     1      29.672  42.760  54.807  1.00  0.00    -0.356 OA
HETATM   40  C   UNL     1      30.649  43.518  55.511  1.00  0.00     0.210 C 
ENDBRANCH  34  39
ENDBRANCH   1  31
TORSDOF 5
ENDMDL
MODEL 7
REMARK VINA RESULT:      -8.5      3.694      6.529
REMARK  5 active torsions:
REMARK  status: ('A' for Active; 'I' for Inactive)
REMARK    1  A    between atoms: O_2  and  C_3 
REMARK    2  A    between atoms: C_5  and  O_6 
REMARK    3  A    between atoms: C_8  and  C_9 
REMARK    4  A    between atoms: C_21  and  N_22 
REMARK       I    between atoms: N_22  and  C_23 
REMARK    5  A    between atoms: C_23  and  C_24 
ROOT
HETATM    1  C   UNL     1      23.454  48.378  49.113  1.00  0.00    -0.022 A 
HETATM    2  C   UNL     1      22.088  48.107  48.943  1.00  0.00     0.031 A 
HETATM    3  C   UNL     1      21.130  49.135  48.840  1.00  0.00     0.059 A 
HETATM    4  C   UNL     1      21.546  50.477  48.902  1.00  0.00     0.050 A 
HETATM    5  N   UNL     1      20.705  51.605  48.830  1.00  0.00    -0.324 N 
HETATM    6  C   UNL     1      19.498  51.725  48.193  1.00  0.00     0.245 C 
HETATM    7  O   UNL     1      18.880  52.787  48.254  1.00  0.00    -0.271 OA
HETATM    8  C   UNL     1      19.035  50.528  47.359  1.00  0.00     0.181 C 
HETATM    9  N   UNL     1      18.715  49.447  48.286  1.00  0.00    -0.334 N 
HETATM   10  C   UNL     1      19.708  48.696  48.903  1.00  0.00     0.256 C 
HETATM   11  O   UNL     1      19.434  47.676  49.536  1.00  0.00    -0.267 OA
HETATM   12  C   UNL     1      17.911  50.863  46.363  1.00  0.00     0.060 C 
HETATM   13  C   UNL     1      16.627  50.060  46.580  1.00  0.00     0.088 C 
HETATM   14  C   UNL     1      16.287  50.039  48.063  1.00  0.00     0.045 C 
HETATM   15  C   UNL     1      17.382  49.374  48.882  1.00  0.00     0.129 C 
HETATM   16  C   UNL     1      22.907  50.752  49.092  1.00  0.00     0.031 A 
HETATM   17  C   UNL     1      23.846  49.719  49.186  1.00  0.00     0.014 A 
HETATM   18  H   UNL     1      21.058  52.490  49.179  1.00  0.00     0.169 HD
ENDROOT
BRANCH  13  19
HETATM   19  N   UNL     1      16.736  48.704  46.033  1.00  0.00    -0.356 N 
HETATM   20  C   UNL     1      16.510  48.447  44.703  1.00  0.00     0.222 C 
HETATM   21  O   UNL     1      16.064  49.271  43.913  1.00  0.00    -0.273 OA
HETATM   22  H   UNL     1      17.326  48.060  46.552  1.00  0.00     0.162 HD
BRANCH  20  23
HETATM   23  C   UNL     1      16.741  46.998  44.294  1.00  0.00     0.081 C 
HETATM   24  C   UNL     1      17.723  46.299  45.249  1.00  0.00     0.041 C 
HETATM   25  C   UNL     1      19.167  46.763  45.088  1.00  0.00     0.233 C 
HETATM   26  N   UNL     1      19.561  46.689  43.651  1.00  0.00    -0.075 N 
HETATM   27  H   UNL     1      19.600  45.707  43.349  1.00  0.00     0.277 HD
HETATM   28  H   UNL     1      20.522  47.046  43.563  1.00  0.00     0.277 HD
HETATM   29  C   UNL     1      18.679  47.473  42.736  1.00  0.00     0.233 C 
HETATM   30  C   UNL     1      17.252  46.954  42.849  1.00  0.00     0.041 C 
ENDBRANCH  20  23
ENDBRANCH  13  19
BRANCH   1  31
HETATM   31  C   UNL     1      24.430  47.283  49.288  1.00  0.00     0.008 A 
HETATM   32  C   UNL     1      25.795  47.508  49.567  1.00  0.00     0.082 A 
HETATM   33  C   UNL     1      26.662  46.417  49.725  1.00  0.00     0.074 A 
HETATM   34  C   UNL     1      26.196  45.101  49.629  1.00  0.00     0.070 A 
HETATM   35  C   UNL     1      24.852  44.871  49.362  1.00  0.00     0.038 A 
HETATM   36  C   UNL     1      23.981  45.950  49.193  1.00  0.00     0.018 A 
BRANCH  32  37
HETATM   37  O   UNL     1      26.200  48.820  49.634  1.00  0.00    -0.355 OA
HETATM   38  C   UNL     1      27.481  49.130  49.096  1.00  0.00     0.210 C 
ENDBRANCH  32  37
BRANCH  34  39
HETATM   39  O   UNL     1      27.155  44.141  49.810  1.00  0.00    -0.356 OA
HETATM   40  C   UNL     1      26.758  42.789  49.610  1.00  0.00     0.210 C 
ENDBRANCH  34  39
ENDBRANCH   1  31
TORSDOF 5
ENDMDL
MODEL 8
REMARK VINA RESULT:      -8.4     11.766     14.020
REMARK  5 active torsions:
REMARK  status: ('A' for Active; 'I' for Inactive)
REMARK    1  A    between atoms: O_2  and  C_3 
REMARK    2  A    between atoms: C_5  and  O_6 
REMARK    3  A    between atoms: C_8  and  C_9 
REMARK    4  A    between atoms: C_21  and  N_22 
REMARK       I    between atoms: N_22  and  C_23 
REMARK    5  A    between atoms: C_23  and  C_24 
ROOT
HETATM    1  C   UNL     1      30.767  51.299  41.764  1.00  0.00    -0.022 A 
HETATM    2  C   UNL     1      30.235  50.023  41.528  1.00  0.00     0.031 A 
HETATM    3  C   UNL     1      28.937  49.839  41.009  1.00  0.00     0.059 A 
HETATM    4  C   UNL     1      28.147  50.961  40.709  1.00  0.00     0.050 A 
HETATM    5  N   UNL     1      26.832  50.933  40.204  1.00  0.00    -0.324 N 
HETATM    6  C   UNL     1      26.243  49.971  39.425  1.00  0.00     0.245 C 
HETATM    7  O   UNL     1      25.066  50.096  39.091  1.00  0.00    -0.271 OA
HETATM    8  C   UNL     1      27.138  48.826  38.946  1.00  0.00     0.181 C 
HETATM    9  N   UNL     1      27.480  48.019  40.114  1.00  0.00    -0.334 N 
HETATM   10  C   UNL     1      28.428  48.439  41.039  1.00  0.00     0.256 C 
HETATM   11  O   UNL     1      28.842  47.680  41.914  1.00  0.00    -0.267 OA
HETATM   12  C   UNL     1      26.546  48.025  37.773  1.00  0.00     0.060 C 
HETATM   13  C   UNL     1      26.343  46.539  38.074  1.00  0.00     0.088 C 
HETATM   14  C   UNL     1      25.699  46.383  39.444  1.00  0.00     0.045 C 
HETATM   15  C   UNL     1      26.579  46.953  40.546  1.00  0.00     0.129 C 
HETATM   16  C   UNL     1      28.666  52.238  40.963  1.00  0.00     0.031 A 
HETATM   17  C   UNL     1      29.959  52.404  41.472  1.00  0.00     0.014 A 
HETATM   18  H   UNL     1      26.260  51.765  40.306  1.00  0.00     0.169 HD
ENDROOT
BRANCH  13  19
HETATM   19  N   UNL     1      27.598  45.789  37.980  1.00  0.00    -0.356 N 
HETATM   20  C   UNL     1      28.019  45.240  36.793  1.00  0.00     0.222 C 
HETATM   21  O   UNL     1      27.333  45.198  35.778  1.00  0.00    -0.273 OA
HETATM   22  H   UNL     1      28.300  46.003  38.683  1.00  0.00     0.162 HD
BRANCH  20  23
HETATM   23  C   UNL     1      29.381  44.562  36.860  1.00  0.00     0.081 C 
HETATM   24  C   UNL     1      29.558  43.554  35.713  1.00  0.00     0.041 C 
HETATM   25  C   UNL     1      28.720  42.291  35.873  1.00  0.00     0.233 C 
HETATM   26  N   UNL     1      28.941  41.710  37.229  1.00  0.00    -0.075 N 
HETATM   27  H   UNL     1      29.904  41.358  37.307  1.00  0.00     0.277 HD
HETATM   28  H   UNL     1      28.334  40.885  37.327  1.00  0.00     0.277 HD
HETATM   29  C   UNL     1      28.646  42.651  38.350  1.00  0.00     0.233 C 
HETATM   30  C   UNL     1      29.540  43.877  38.223  1.00  0.00     0.041 C 
ENDBRANCH  20  23
ENDBRANCH  13  19
BRANCH   1  31
HETATM   31  C   UNL     1      32.102  51.466  42.373  1.00  0.00     0.008 A 
HETATM   32  C   UNL     1      33.301  51.355  41.637  1.00  0.00     0.082 A 
HETATM   33  C   UNL     1      34.533  51.530  42.283  1.00  0.00     0.074 A 
HETATM   34  C   UNL     1      34.600  51.834  43.647  1.00  0.00     0.070 A 
HETATM   35  C   UNL     1      33.424  51.953  44.378  1.00  0.00     0.038 A 
HETATM   36  C   UNL     1      32.190  51.770  43.746  1.00  0.00     0.018 A 
BRANCH  32  37
HETATM   37  O   UNL     1      33.177  51.039  40.305  1.00  0.00    -0.355 OA
HETATM   38  C   UNL     1      33.946  51.805  39.384  1.00  0.00     0.210 C 
ENDBRANCH  32  37
BRANCH  34  39
HETATM   39  O   UNL     1      35.868  51.982  44.139  1.00  0.00    -0.356 OA
HETATM   40  C   UNL     1      36.557  53.178  43.794  1.00  0.00     0.210 C 
ENDBRANCH  34  39
ENDBRANCH   1  31
TORSDOF 5
ENDMDL
MODEL 9
REMARK VINA RESULT:      -8.2      5.016      6.933
REMARK  5 active torsions:
REMARK  status: ('A' for Active; 'I' for Inactive)
REMARK    1  A    between atoms: O_2  and  C_3 
REMARK    2  A    between atoms: C_5  and  O_6 
REMARK    3  A    between atoms: C_8  and  C_9 
REMARK    4  A    between atoms: C_21  and  N_22 
REMARK       I    between atoms: N_22  and  C_23 
REMARK    5  A    between atoms: C_23  and  C_24 
ROOT
HETATM    1  C   UNL     1      28.330  42.036  52.507  1.00  0.00    -0.022 A 
HETATM    2  C   UNL     1      27.715  42.109  51.248  1.00  0.00     0.031 A 
HETATM    3  C   UNL     1      27.808  41.061  50.310  1.00  0.00     0.059 A 
HETATM    4  C   UNL     1      28.532  39.901  50.638  1.00  0.00     0.050 A 
HETATM    5  N   UNL     1      28.725  38.786  49.800  1.00  0.00    -0.324 N 
HETATM    6  C   UNL     1      27.908  38.322  48.802  1.00  0.00     0.245 C 
HETATM    7  O   UNL     1      28.247  37.338  48.146  1.00  0.00    -0.271 OA
HETATM    8  C   UNL     1      26.561  39.028  48.628  1.00  0.00     0.181 C 
HETATM    9  N   UNL     1      26.832  40.369  48.118  1.00  0.00    -0.334 N 
HETATM   10  C   UNL     1      27.312  41.380  48.942  1.00  0.00     0.256 C 
HETATM   11  O   UNL     1      27.364  42.546  48.553  1.00  0.00    -0.267 OA
HETATM   12  C   UNL     1      25.544  38.227  47.796  1.00  0.00     0.060 C 
HETATM   13  C   UNL     1      25.064  38.949  46.536  1.00  0.00     0.088 C 
HETATM   14  C   UNL     1      26.258  39.556  45.814  1.00  0.00     0.045 C 
HETATM   15  C   UNL     1      26.975  40.581  46.679  1.00  0.00     0.129 C 
HETATM   16  C   UNL     1      29.165  39.833  51.886  1.00  0.00     0.031 A 
HETATM   17  C   UNL     1      29.056  40.879  52.810  1.00  0.00     0.014 A 
HETATM   18  H   UNL     1      29.490  38.153  50.010  1.00  0.00     0.169 HD
ENDROOT
BRANCH  13  19
HETATM   19  N   UNL     1      24.049  39.960  46.842  1.00  0.00    -0.356 N 
HETATM   20  C   UNL     1      23.310  40.558  45.852  1.00  0.00     0.222 C 
HETATM   21  O   UNL     1      23.531  40.418  44.654  1.00  0.00    -0.273 OA
HETATM   22  H   UNL     1      23.655  39.928  47.779  1.00  0.00     0.162 HD
BRANCH  20  23
HETATM   23  C   UNL     1      22.249  41.528  46.355  1.00  0.00     0.081 C 
HETATM   24  C   UNL     1      22.056  42.699  45.377  1.00  0.00     0.041 C 
HETATM   25  C   UNL     1      23.216  43.689  45.371  1.00  0.00     0.233 C 
HETATM   26  N   UNL     1      23.523  44.110  46.769  1.00  0.00    -0.075 N 
HETATM   27  H   UNL     1      22.746  44.669  47.145  1.00  0.00     0.277 HD
HETATM   28  H   UNL     1      24.334  44.743  46.742  1.00  0.00     0.277 HD
HETATM   29  C   UNL     1      23.836  42.979  47.692  1.00  0.00     0.233 C 
HETATM   30  C   UNL     1      22.643  42.034  47.748  1.00  0.00     0.041 C 
ENDBRANCH  20  23
ENDBRANCH  13  19
BRANCH   1  31
HETATM   31  C   UNL     1      28.275  43.175  53.446  1.00  0.00     0.008 A 
HETATM   32  C   UNL     1      27.140  44.002  53.586  1.00  0.00     0.082 A 
HETATM   33  C   UNL     1      27.160  45.062  54.503  1.00  0.00     0.074 A 
HETATM   34  C   UNL     1      28.282  45.309  55.302  1.00  0.00     0.070 A 
HETATM   35  C   UNL     1      29.401  44.494  55.176  1.00  0.00     0.038 A 
HETATM   36  C   UNL     1      29.396  43.441  54.258  1.00  0.00     0.018 A 
BRANCH  32  37
HETATM   37  O   UNL     1      26.073  43.724  52.765  1.00  0.00    -0.355 OA
HETATM   38  C   UNL     1      25.056  44.715  52.667  1.00  0.00     0.210 C 
ENDBRANCH  32  37
BRANCH  34  39
HETATM   39  O   UNL     1      28.155  46.373  56.153  1.00  0.00    -0.356 OA
HETATM   40  C   UNL     1      28.739  46.239  57.443  1.00  0.00     0.210 C 
ENDBRANCH  34  39
ENDBRANCH   1  31
TORSDOF 5
ENDMDL
MODEL 10
REMARK VINA RESULT:      -8.1     11.874     14.338
REMARK  5 active torsions:
REMARK  status: ('A' for Active; 'I' for Inactive)
REMARK    1  A    between atoms: O_2  and  C_3 
REMARK    2  A    between atoms: C_5  and  O_6 
REMARK    3  A    between atoms: C_8  and  C_9 
REMARK    4  A    between atoms: C_21  and  N_22 
REMARK       I    between atoms: N_22  and  C_23 
REMARK    5  A    between atoms: C_23  and  C_24 
ROOT
HETATM    1  C   UNL     1      30.616  51.099  39.529  1.00  0.00    -0.022 A 
HETATM    2  C   UNL     1      29.928  49.938  39.912  1.00  0.00     0.031 A 
HETATM    3  C   UNL     1      28.561  49.752  39.624  1.00  0.00     0.059 A 
HETATM    4  C   UNL     1      27.858  50.750  38.927  1.00  0.00     0.050 A 
HETATM    5  N   UNL     1      26.492  50.712  38.585  1.00  0.00    -0.324 N 
HETATM    6  C   UNL     1      25.707  49.613  38.349  1.00  0.00     0.245 C 
HETATM    7  O   UNL     1      24.515  49.763  38.083  1.00  0.00    -0.271 OA
HETATM    8  C   UNL     1      26.407  48.252  38.348  1.00  0.00     0.181 C 
HETATM    9  N   UNL     1      26.815  47.969  39.721  1.00  0.00    -0.334 N 
HETATM   10  C   UNL     1      27.917  48.589  40.297  1.00  0.00     0.256 C 
HETATM   11  O   UNL     1      28.363  48.215  41.381  1.00  0.00    -0.267 OA
HETATM   12  C   UNL     1      25.583  47.132  37.688  1.00  0.00     0.060 C 
HETATM   13  C   UNL     1      25.268  45.959  38.618  1.00  0.00     0.088 C 
HETATM   14  C   UNL     1      24.801  46.493  39.965  1.00  0.00     0.045 C 
HETATM   15  C   UNL     1      25.874  47.332  40.640  1.00  0.00     0.129 C 
HETATM   16  C   UNL     1      28.537  51.921  38.561  1.00  0.00     0.031 A 
HETATM   17  C   UNL     1      29.897  52.087  38.848  1.00  0.00     0.014 A 
HETATM   18  H   UNL     1      26.028  51.586  38.359  1.00  0.00     0.169 HD
ENDROOT
BRANCH  13  19
HETATM   19  N   UNL     1      26.415  45.059  38.764  1.00  0.00    -0.356 N 
HETATM   20  C   UNL     1      26.593  43.983  37.929  1.00  0.00     0.222 C 
HETATM   21  O   UNL     1      25.759  43.603  37.116  1.00  0.00    -0.273 OA
HETATM   22  H   UNL     1      27.234  45.449  39.222  1.00  0.00     0.162 HD
BRANCH  20  23
HETATM   23  C   UNL     1      27.876  43.200  38.176  1.00  0.00     0.081 C 
HETATM   24  C   UNL     1      28.977  44.103  38.755  1.00  0.00     0.041 C 
HETATM   25  C   UNL     1      29.558  45.085  37.745  1.00  0.00     0.233 C 
HETATM   26  N   UNL     1      29.961  44.354  36.508  1.00  0.00    -0.075 N 
HETATM   27  H   UNL     1      30.757  43.736  36.711  1.00  0.00     0.277 HD
HETATM   28  H   UNL     1      30.310  45.043  35.828  1.00  0.00     0.277 HD
HETATM   29  C   UNL     1      28.857  43.577  35.872  1.00  0.00     0.233 C 
HETATM   30  C   UNL     1      28.332  42.548  36.865  1.00  0.00     0.041 C 
ENDBRANCH  20  23
ENDBRANCH  13  19
BRANCH   1  31
HETATM   31  C   UNL     1      32.031  51.301  39.902  1.00  0.00     0.008 A 
HETATM   32  C   UNL     1      32.493  51.228  41.234  1.00  0.00     0.082 A 
HETATM   33  C   UNL     1      33.853  51.427  41.511  1.00  0.00     0.074 A 
HETATM   34  C   UNL     1      34.772  51.680  40.488  1.00  0.00     0.070 A 
HETATM   35  C   UNL     1      34.328  51.746  39.173  1.00  0.00     0.038 A 
HETATM   36  C   UNL     1      32.973  51.559  38.885  1.00  0.00     0.018 A 
BRANCH  32  37
HETATM   37  O   UNL     1      31.543  50.994  42.201  1.00  0.00    -0.355 OA
HETATM   38  C   UNL     1      31.815  49.955  43.135  1.00  0.00     0.210 C 
ENDBRANCH  32  37
BRANCH  34  39
HETATM   39  O   UNL     1      36.064  51.848  40.908  1.00  0.00    -0.356 OA
HETATM   40  C   UNL     1      36.439  51.192  42.113  1.00  0.00     0.210 C 
ENDBRANCH  34  39
ENDBRANCH   1  31
TORSDOF 5
ENDMDL
