MODEL 1
REMARK VINA RESULT:      -9.6      0.000      0.000
REMARK  7 active torsions:
REMARK  status: ('A' for Active; 'I' for Inactive)
REMARK    1  A    between atoms: C_10  and  C_11 
REMARK    2  A    between atoms: C_11  and  C_12 
REMARK       I    between atoms: C_12  and  N_13 
REMARK    3  A    between atoms: N_13  and  N_14 
REMARK       I    between atoms: N_14  and  C_15 
REMARK    4  A    between atoms: C_15  and  C_16 
REMARK    5  A    between atoms: C_16  and  C_17 
REMARK    6  A    between atoms: C_17  and  C_18 
REMARK       I    between atoms: C_18  and  N_19 
REMARK    7  A    between atoms: N_19  and  C_20 
ROOT
HETATM    1  C   UNL     1      20.482  50.601  49.281  1.00  0.00     0.034 A 
HETATM    2  C   UNL     1      19.528  50.094  50.165  1.00  0.00     0.031 A 
HETATM    3  C   UNL     1      18.289  50.729  50.316  1.00  0.00     0.025 A 
HETATM    4  C   UNL     1      17.991  51.878  49.579  1.00  0.00     0.044 A 
HETATM    5  C   UNL     1      16.722  52.525  49.731  1.00  0.00     0.099 C 
HETATM    6  N   UNL     1      15.695  53.053  49.851  1.00  0.00    -0.191 NA
HETATM    7  C   UNL     1      18.942  52.391  48.694  1.00  0.00     0.025 A 
HETATM    8  C   UNL     1      20.181  51.757  48.549  1.00  0.00     0.031 A 
ENDROOT
BRANCH   1   9
HETATM    9  N   UNL     1      21.752  50.026  49.078  1.00  0.00    -0.327 N 
HETATM   10  C   UNL     1      22.038  48.735  48.681  1.00  0.00     0.222 C 
HETATM   11  O   UNL     1      21.227  47.857  48.403  1.00  0.00    -0.273 OA
HETATM   12  H   UNL     1      22.552  50.649  49.209  1.00  0.00     0.169 HD
BRANCH  10  13
HETATM   13  C   UNL     1      23.526  48.459  48.578  1.00  0.00     0.112 C 
BRANCH  13  14
HETATM   14  C   UNL     1      24.107  47.991  49.908  1.00  0.00     0.114 C 
BRANCH  14  15
HETATM   15  C   UNL     1      24.459  46.518  49.882  1.00  0.00     0.236 C 
HETATM   16  N   UNL     1      25.420  46.171  50.803  1.00  0.00    -0.268 N 
HETATM   17  H   UNL     1      25.912  46.846  51.390  1.00  0.00     0.190 HD
HETATM   18  O   UNL     1      23.909  45.706  49.138  1.00  0.00    -0.272 OA
BRANCH  16  19
HETATM   19  N   UNL     1      25.971  44.886  50.754  1.00  0.00    -0.267 N 
HETATM   20  C   UNL     1      25.511  43.958  51.669  1.00  0.00     0.240 C 
HETATM   21  O   UNL     1      24.693  44.251  52.542  1.00  0.00    -0.272 OA
HETATM   22  H   UNL     1      26.468  44.620  49.904  1.00  0.00     0.190 HD
BRANCH  20  23
HETATM   23  C   UNL     1      26.145  42.594  51.545  1.00  0.00     0.146 C 
BRANCH  23  24
HETATM   24  C   UNL     1      27.513  42.425  52.139  1.00  0.00    -0.015 A 
HETATM   25  C   UNL     1      28.182  43.164  53.179  1.00  0.00    -0.000 A 
HETATM   26  C   UNL     1      27.864  44.282  53.986  1.00  0.00     0.021 A 
HETATM   27  C   UNL     1      29.428  42.568  53.376  1.00  0.00     0.043 A 
HETATM   28  C   UNL     1      28.774  44.755  54.950  1.00  0.00    -0.061 A 
HETATM   29  C   UNL     1      28.404  45.914  55.829  1.00  0.00     0.048 C 
HETATM   30  C   UNL     1      29.997  44.106  55.123  1.00  0.00     0.009 A 
HETATM   31  C   UNL     1      30.350  43.011  54.332  1.00  0.00     0.031 A 
HETATM   32  N   UNL     1      29.533  41.531  52.485  1.00  0.00    -0.359 N 
HETATM   33  H   UNL     1      30.345  40.934  52.403  1.00  0.00     0.166 HD
HETATM   34  C   UNL     1      28.393  41.424  51.736  1.00  0.00     0.013 A 
HETATM   35  C   UNL     1      28.250  40.370  50.696  1.00  0.00     0.068 C 
ENDBRANCH  23  24
ENDBRANCH  20  23
ENDBRANCH  16  19
ENDBRANCH  14  15
ENDBRANCH  13  14
ENDBRANCH  10  13
ENDBRANCH   1   9
TORSDOF 7
ENDMDL
MODEL 2
REMARK VINA RESULT:      -9.5      2.606     11.286
REMARK  7 active torsions:
REMARK  status: ('A' for Active; 'I' for Inactive)
REMARK    1  A    between atoms: C_10  and  C_11 
REMARK    2  A    between atoms: C_11  and  C_12 
REMARK       I    between atoms: C_12  and  N_13 
REMARK    3  A    between atoms: N_13  and  N_14 
REMARK       I    between atoms: N_14  and  C_15 
REMARK    4  A    between atoms: C_15  and  C_16 
REMARK    5  A    between atoms: C_16  and  C_17 
REMARK    6  A    between atoms: C_17  and  C_18 
REMARK       I    between atoms: C_18  and  N_19 
REMARK    7  A    between atoms: N_19  and  C_20 
ROOT
HETATM    1  C   UNL     1      28.723  43.925  53.499  1.00  0.00     0.034 A 
HETATM    2  C   UNL     1      28.650  44.911  54.485  1.00  0.00     0.031 A 
HETATM    3  C   UNL     1      29.511  44.878  55.590  1.00  0.00     0.025 A 
HETATM    4  C   UNL     1      30.458  43.858  55.716  1.00  0.00     0.044 A 
HETATM    5  C   UNL     1      31.340  43.827  56.844  1.00  0.00     0.099 C 
HETATM    6  N   UNL     1      32.058  43.798  57.756  1.00  0.00    -0.191 NA
HETATM    7  C   UNL     1      30.535  42.868  54.733  1.00  0.00     0.025 A 
HETATM    8  C   UNL     1      29.670  42.900  53.634  1.00  0.00     0.031 A 
ENDROOT
BRANCH   1   9
HETATM    9  N   UNL     1      27.891  43.882  52.364  1.00  0.00    -0.327 N 
HETATM   10  C   UNL     1      26.510  43.907  52.331  1.00  0.00     0.222 C 
HETATM   11  O   UNL     1      25.756  44.002  53.294  1.00  0.00    -0.273 OA
HETATM   12  H   UNL     1      28.367  43.862  51.460  1.00  0.00     0.169 HD
BRANCH  10  13
HETATM   13  C   UNL     1      25.947  43.830  50.924  1.00  0.00     0.112 C 
BRANCH  13  14
HETATM   14  C   UNL     1      24.425  43.752  50.928  1.00  0.00     0.114 C 
BRANCH  14  15
HETATM   15  C   UNL     1      23.798  44.919  50.193  1.00  0.00     0.236 C 
HETATM   16  N   UNL     1      22.497  44.688  49.812  1.00  0.00    -0.268 N 
HETATM   17  H   UNL     1      22.022  43.793  49.934  1.00  0.00     0.190 HD
HETATM   18  O   UNL     1      24.384  45.983  49.994  1.00  0.00    -0.272 OA
BRANCH  16  19
HETATM   19  N   UNL     1      21.868  45.604  48.963  1.00  0.00    -0.267 N 
HETATM   20  C   UNL     1      21.047  45.099  47.972  1.00  0.00     0.240 C 
HETATM   21  O   UNL     1      20.914  43.888  47.789  1.00  0.00    -0.272 OA
HETATM   22  H   UNL     1      21.822  46.576  49.270  1.00  0.00     0.190 HD
BRANCH  20  23
HETATM   23  C   UNL     1      20.396  46.149  47.106  1.00  0.00     0.146 C 
BRANCH  23  24
HETATM   24  C   UNL     1      19.767  47.315  47.811  1.00  0.00    -0.015 A 
HETATM   25  C   UNL     1      20.305  48.609  48.146  1.00  0.00    -0.000 A 
HETATM   26  C   UNL     1      21.554  49.254  47.987  1.00  0.00     0.021 A 
HETATM   27  C   UNL     1      19.286  49.334  48.765  1.00  0.00     0.043 A 
HETATM   28  C   UNL     1      21.742  50.576  48.432  1.00  0.00    -0.061 A 
HETATM   29  C   UNL     1      23.060  51.261  48.217  1.00  0.00     0.048 C 
HETATM   30  C   UNL     1      20.682  51.264  49.023  1.00  0.00     0.009 A 
HETATM   31  C   UNL     1      19.441  50.652  49.211  1.00  0.00     0.031 A 
HETATM   32  N   UNL     1      18.185  48.519  48.833  1.00  0.00    -0.359 N 
HETATM   33  H   UNL     1      17.304  48.790  49.249  1.00  0.00     0.166 HD
HETATM   34  C   UNL     1      18.450  47.305  48.262  1.00  0.00     0.013 A 
HETATM   35  C   UNL     1      17.414  46.239  48.201  1.00  0.00     0.068 C 
ENDBRANCH  23  24
ENDBRANCH  20  23
ENDBRANCH  16  19
ENDBRANCH  14  15
ENDBRANCH  13  14
ENDBRANCH  10  13
ENDBRANCH   1   9
TORSDOF 7
ENDMDL
MODEL 3
REMARK VINA RESULT:      -9.5      1.357      1.806
REMARK  7 active torsions:
REMARK  status: ('A' for Active; 'I' for Inactive)
REMARK    1  A    between atoms: C_10  and  C_11 
REMARK    2  A    between atoms: C_11  and  C_12 
REMARK       I    between atoms: C_12  and  N_13 
REMARK    3  A    between atoms: N_13  and  N_14 
REMARK       I    between atoms: N_14  and  C_15 
REMARK    4  A    between atoms: C_15  and  C_16 
REMARK    5  A    between atoms: C_16  and  C_17 
REMARK    6  A    between atoms: C_17  and  C_18 
REMARK       I    between atoms: C_18  and  N_19 
REMARK    7  A    between atoms: N_19  and  C_20 
ROOT
HETATM    1  C   UNL     1      20.137  49.545  49.637  1.00  0.00     0.034 A 
HETATM    2  C   UNL     1      18.831  49.120  49.387  1.00  0.00     0.031 A 
HETATM    3  C   UNL     1      17.762  50.022  49.460  1.00  0.00     0.025 A 
HETATM    4  C   UNL     1      17.992  51.362  49.782  1.00  0.00     0.044 A 
HETATM    5  C   UNL     1      16.899  52.286  49.853  1.00  0.00     0.099 C 
HETATM    6  N   UNL     1      16.017  53.038  49.913  1.00  0.00    -0.191 NA
HETATM    7  C   UNL     1      19.296  51.794  50.034  1.00  0.00     0.025 A 
HETATM    8  C   UNL     1      20.361  50.888  49.965  1.00  0.00     0.031 A 
ENDROOT
BRANCH   1   9
HETATM    9  N   UNL     1      21.264  48.700  49.590  1.00  0.00    -0.327 N 
HETATM   10  C   UNL     1      21.933  48.251  48.468  1.00  0.00     0.222 C 
HETATM   11  O   UNL     1      21.681  48.535  47.302  1.00  0.00    -0.273 OA
HETATM   12  H   UNL     1      21.646  48.413  50.493  1.00  0.00     0.169 HD
BRANCH  10  13
HETATM   13  C   UNL     1      23.099  47.338  48.797  1.00  0.00     0.112 C 
BRANCH  13  14
HETATM   14  C   UNL     1      24.116  48.024  49.702  1.00  0.00     0.114 C 
BRANCH  14  15
HETATM   15  C   UNL     1      25.293  47.123  50.012  1.00  0.00     0.236 C 
HETATM   16  N   UNL     1      24.973  45.785  50.002  1.00  0.00    -0.268 N 
HETATM   17  H   UNL     1      24.023  45.431  49.882  1.00  0.00     0.190 HD
HETATM   18  O   UNL     1      26.431  47.546  50.213  1.00  0.00    -0.272 OA
BRANCH  16  19
HETATM   19  N   UNL     1      25.918  44.860  50.458  1.00  0.00    -0.267 N 
HETATM   20  C   UNL     1      25.547  44.027  51.498  1.00  0.00     0.240 C 
HETATM   21  O   UNL     1      24.453  44.126  52.055  1.00  0.00    -0.272 OA
HETATM   22  H   UNL     1      26.710  44.657  49.848  1.00  0.00     0.190 HD
BRANCH  20  23
HETATM   23  C   UNL     1      26.615  43.049  51.924  1.00  0.00     0.146 C 
BRANCH  23  24
HETATM   24  C   UNL     1      27.625  43.539  52.921  1.00  0.00    -0.015 A 
HETATM   25  C   UNL     1      27.666  44.755  53.694  1.00  0.00    -0.000 A 
HETATM   26  C   UNL     1      26.854  45.908  53.803  1.00  0.00     0.021 A 
HETATM   27  C   UNL     1      28.804  44.695  54.499  1.00  0.00     0.043 A 
HETATM   28  C   UNL     1      27.189  46.941  54.700  1.00  0.00    -0.061 A 
HETATM   29  C   UNL     1      26.294  48.137  54.837  1.00  0.00     0.048 C 
HETATM   30  C   UNL     1      28.326  46.819  55.500  1.00  0.00     0.009 A 
HETATM   31  C   UNL     1      29.158  45.702  55.405  1.00  0.00     0.031 A 
HETATM   32  N   UNL     1      29.446  43.517  54.217  1.00  0.00    -0.359 N 
HETATM   33  H   UNL     1      30.310  43.224  54.652  1.00  0.00     0.166 HD
HETATM   34  C   UNL     1      28.752  42.805  53.277  1.00  0.00     0.013 A 
HETATM   35  C   UNL     1      29.236  41.481  52.800  1.00  0.00     0.068 C 
ENDBRANCH  23  24
ENDBRANCH  20  23
ENDBRANCH  16  19
ENDBRANCH  14  15
ENDBRANCH  13  14
ENDBRANCH  10  13
ENDBRANCH   1   9
TORSDOF 7
ENDMDL
MODEL 4
REMARK VINA RESULT:      -9.1      2.948     11.450
REMARK  7 active torsions:
REMARK  status: ('A' for Active; 'I' for Inactive)
REMARK    1  A    between atoms: C_10  and  C_11 
REMARK    2  A    between atoms: C_11  and  C_12 
REMARK       I    between atoms: C_12  and  N_13 
REMARK    3  A    between atoms: N_13  and  N_14 
REMARK       I    between atoms: N_14  and  C_15 
REMARK    4  A    between atoms: C_15  and  C_16 
REMARK    5  A    between atoms: C_16  and  C_17 
REMARK    6  A    between atoms: C_17  and  C_18 
REMARK       I    between atoms: C_18  and  N_19 
REMARK    7  A    between atoms: N_19  and  C_20 
ROOT
HETATM    1  C   UNL     1      27.796  44.111  53.760  1.00  0.00     0.034 A 
HETATM    2  C   UNL     1      28.530  42.924  53.729  1.00  0.00     0.031 A 
HETATM    3  C   UNL     1      29.654  42.760  54.550  1.00  0.00     0.025 A 
HETATM    4  C   UNL     1      30.051  43.784  55.413  1.00  0.00     0.044 A 
HETATM    5  C   UNL     1      31.198  43.615  56.255  1.00  0.00     0.099 C 
HETATM    6  N   UNL     1      32.127  43.483  56.939  1.00  0.00    -0.191 NA
HETATM    7  C   UNL     1      29.320  44.974  55.449  1.00  0.00     0.025 A 
HETATM    8  C   UNL     1      28.201  45.136  54.624  1.00  0.00     0.031 A 
ENDROOT
BRANCH   1   9
HETATM    9  N   UNL     1      26.660  44.356  52.964  1.00  0.00    -0.327 N 
HETATM   10  C   UNL     1      26.615  44.537  51.595  1.00  0.00     0.222 C 
HETATM   11  O   UNL     1      27.563  44.487  50.818  1.00  0.00    -0.273 OA
HETATM   12  H   UNL     1      25.763  44.369  53.454  1.00  0.00     0.169 HD
BRANCH  10  13
HETATM   13  C   UNL     1      25.213  44.796  51.075  1.00  0.00     0.112 C 
BRANCH  13  14
HETATM   14  C   UNL     1      25.233  45.400  49.676  1.00  0.00     0.114 C 
BRANCH  14  15
HETATM   15  C   UNL     1      23.894  46.001  49.303  1.00  0.00     0.236 C 
HETATM   16  N   UNL     1      23.772  47.325  49.659  1.00  0.00    -0.268 N 
HETATM   17  H   UNL     1      24.475  47.834  50.195  1.00  0.00     0.190 HD
HETATM   18  O   UNL     1      23.018  45.378  48.704  1.00  0.00    -0.272 OA
BRANCH  16  19
HETATM   19  N   UNL     1      22.523  47.944  49.546  1.00  0.00    -0.267 N 
HETATM   20  C   UNL     1      22.324  48.793  48.472  1.00  0.00     0.240 C 
HETATM   21  O   UNL     1      23.223  49.054  47.672  1.00  0.00    -0.272 OA
HETATM   22  H   UNL     1      21.751  47.547  50.081  1.00  0.00     0.190 HD
BRANCH  20  23
HETATM   23  C   UNL     1      20.950  49.412  48.413  1.00  0.00     0.146 C 
BRANCH  23  24
HETATM   24  C   UNL     1      19.780  48.485  48.579  1.00  0.00    -0.015 A 
HETATM   25  C   UNL     1      19.317  47.403  47.750  1.00  0.00    -0.000 A 
HETATM   26  C   UNL     1      19.721  46.829  46.521  1.00  0.00     0.021 A 
HETATM   27  C   UNL     1      18.208  46.840  48.384  1.00  0.00     0.043 A 
HETATM   28  C   UNL     1      19.028  45.730  45.979  1.00  0.00    -0.061 A 
HETATM   29  C   UNL     1      19.496  45.104  44.697  1.00  0.00     0.048 C 
HETATM   30  C   UNL     1      17.940  45.191  46.666  1.00  0.00     0.009 A 
HETATM   31  C   UNL     1      17.504  45.743  47.872  1.00  0.00     0.031 A 
HETATM   32  N   UNL     1      17.982  47.558  49.530  1.00  0.00    -0.359 N 
HETATM   33  H   UNL     1      17.228  47.371  50.177  1.00  0.00     0.166 HD
HETATM   34  C   UNL     1      18.918  48.546  49.670  1.00  0.00     0.013 A 
HETATM   35  C   UNL     1      18.900  49.465  50.840  1.00  0.00     0.068 C 
ENDBRANCH  23  24
ENDBRANCH  20  23
ENDBRANCH  16  19
ENDBRANCH  14  15
ENDBRANCH  13  14
ENDBRANCH  10  13
ENDBRANCH   1   9
TORSDOF 7
ENDMDL
MODEL 5
REMARK VINA RESULT:      -8.8      2.636     11.780
REMARK  7 active torsions:
REMARK  status: ('A' for Active; 'I' for Inactive)
REMARK    1  A    between atoms: C_10  and  C_11 
REMARK    2  A    between atoms: C_11  and  C_12 
REMARK       I    between atoms: C_12  and  N_13 
REMARK    3  A    between atoms: N_13  and  N_14 
REMARK       I    between atoms: N_14  and  C_15 
REMARK    4  A    between atoms: C_15  and  C_16 
REMARK    5  A    between atoms: C_16  and  C_17 
REMARK    6  A    between atoms: C_17  and  C_18 
REMARK       I    between atoms: C_18  and  N_19 
REMARK    7  A    between atoms: N_19  and  C_20 
ROOT
HETATM    1  C   UNL     1      27.408  43.921  52.154  1.00  0.00     0.034 A 
HETATM    2  C   UNL     1      28.451  43.004  52.010  1.00  0.00     0.031 A 
HETATM    3  C   UNL     1      29.421  42.867  53.012  1.00  0.00     0.025 A 
HETATM    4  C   UNL     1      29.354  43.646  54.170  1.00  0.00     0.044 A 
HETATM    5  C   UNL     1      30.345  43.502  55.195  1.00  0.00     0.099 C 
HETATM    6  N   UNL     1      31.145  43.391  56.028  1.00  0.00    -0.191 NA
HETATM    7  C   UNL     1      28.313  44.565  54.319  1.00  0.00     0.025 A 
HETATM    8  C   UNL     1      27.348  44.704  53.315  1.00  0.00     0.031 A 
ENDROOT
BRANCH   1   9
HETATM    9  N   UNL     1      26.399  44.124  51.192  1.00  0.00    -0.327 N 
HETATM   10  C   UNL     1      26.495  44.825  50.006  1.00  0.00     0.222 C 
HETATM   11  O   UNL     1      27.496  45.377  49.560  1.00  0.00    -0.273 OA
HETATM   12  H   UNL     1      25.502  43.672  51.382  1.00  0.00     0.169 HD
BRANCH  10  13
HETATM   13  C   UNL     1      25.196  44.849  49.222  1.00  0.00     0.112 C 
BRANCH  13  14
HETATM   14  C   UNL     1      24.240  43.753  49.679  1.00  0.00     0.114 C 
BRANCH  14  15
HETATM   15  C   UNL     1      22.829  43.994  49.183  1.00  0.00     0.236 C 
HETATM   16  N   UNL     1      22.402  45.289  49.360  1.00  0.00    -0.268 N 
HETATM   17  H   UNL     1      22.944  46.002  49.850  1.00  0.00     0.190 HD
HETATM   18  O   UNL     1      22.148  43.125  48.640  1.00  0.00    -0.272 OA
BRANCH  16  19
HETATM   19  N   UNL     1      21.059  45.598  49.122  1.00  0.00    -0.267 N 
HETATM   20  C   UNL     1      20.756  46.895  48.752  1.00  0.00     0.240 C 
HETATM   21  O   UNL     1      21.617  47.774  48.692  1.00  0.00    -0.272 OA
HETATM   22  H   UNL     1      20.418  44.820  48.968  1.00  0.00     0.190 HD
BRANCH  20  23
HETATM   23  C   UNL     1      19.289  47.146  48.502  1.00  0.00     0.146 C 
BRANCH  23  24
HETATM   24  C   UNL     1      18.812  48.564  48.629  1.00  0.00    -0.015 A 
HETATM   25  C   UNL     1      18.567  49.564  47.621  1.00  0.00    -0.000 A 
HETATM   26  C   UNL     1      18.691  49.628  46.212  1.00  0.00     0.021 A 
HETATM   27  C   UNL     1      18.094  50.703  48.274  1.00  0.00     0.043 A 
HETATM   28  C   UNL     1      18.338  50.798  45.513  1.00  0.00    -0.061 A 
HETATM   29  C   UNL     1      18.433  50.836  44.016  1.00  0.00     0.048 C 
HETATM   30  C   UNL     1      17.848  51.901  46.213  1.00  0.00     0.009 A 
HETATM   31  C   UNL     1      17.728  51.877  47.604  1.00  0.00     0.031 A 
HETATM   32  N   UNL     1      18.076  50.429  49.617  1.00  0.00    -0.359 N 
HETATM   33  H   UNL     1      17.786  51.088  50.326  1.00  0.00     0.166 HD
HETATM   34  C   UNL     1      18.497  49.149  49.852  1.00  0.00     0.013 A 
HETATM   35  C   UNL     1      18.563  48.600  51.233  1.00  0.00     0.068 C 
ENDBRANCH  23  24
ENDBRANCH  20  23
ENDBRANCH  16  19
ENDBRANCH  14  15
ENDBRANCH  13  14
ENDBRANCH  10  13
ENDBRANCH   1   9
TORSDOF 7
ENDMDL
MODEL 6
REMARK VINA RESULT:      -8.7      2.449      2.914
REMARK  7 active torsions:
REMARK  status: ('A' for Active; 'I' for Inactive)
REMARK    1  A    between atoms: C_10  and  C_11 
REMARK    2  A    between atoms: C_11  and  C_12 
REMARK       I    between atoms: C_12  and  N_13 
REMARK    3  A    between atoms: N_13  and  N_14 
REMARK       I    between atoms: N_14  and  C_15 
REMARK    4  A    between atoms: C_15  and  C_16 
REMARK    5  A    between atoms: C_16  and  C_17 
REMARK    6  A    between atoms: C_17  and  C_18 
REMARK       I    between atoms: C_18  and  N_19 
REMARK    7  A    between atoms: N_19  and  C_20 
ROOT
HETATM    1  C   UNL     1      19.777  48.091  48.707  1.00  0.00     0.034 A 
HETATM    2  C   UNL     1      18.732  48.241  49.621  1.00  0.00     0.031 A 
HETATM    3  C   UNL     1      17.403  48.288  49.181  1.00  0.00     0.025 A 
HETATM    4  C   UNL     1      17.107  48.181  47.820  1.00  0.00     0.044 A 
HETATM    5  C   UNL     1      15.747  48.226  47.371  1.00  0.00     0.099 C 
HETATM    6  N   UNL     1      14.647  48.262  47.002  1.00  0.00    -0.191 NA
HETATM    7  C   UNL     1      18.148  48.031  46.901  1.00  0.00     0.025 A 
HETATM    8  C   UNL     1      19.475  47.990  47.343  1.00  0.00     0.031 A 
ENDROOT
BRANCH   1   9
HETATM    9  N   UNL     1      21.138  48.041  49.068  1.00  0.00    -0.327 N 
HETATM   10  C   UNL     1      22.037  49.089  49.109  1.00  0.00     0.222 C 
HETATM   11  O   UNL     1      21.799  50.268  48.866  1.00  0.00    -0.273 OA
HETATM   12  H   UNL     1      21.491  47.128  49.362  1.00  0.00     0.169 HD
BRANCH  10  13
HETATM   13  C   UNL     1      23.431  48.662  49.530  1.00  0.00     0.112 C 
BRANCH  13  14
HETATM   14  C   UNL     1      23.760  47.255  49.047  1.00  0.00     0.114 C 
BRANCH  14  15
HETATM   15  C   UNL     1      24.477  46.448  50.109  1.00  0.00     0.236 C 
HETATM   16  N   UNL     1      24.930  45.230  49.656  1.00  0.00    -0.268 N 
HETATM   17  H   UNL     1      24.734  44.865  48.723  1.00  0.00     0.190 HD
HETATM   18  O   UNL     1      24.670  46.859  51.253  1.00  0.00    -0.272 OA
BRANCH  16  19
HETATM   19  N   UNL     1      25.438  44.310  50.579  1.00  0.00    -0.267 N 
HETATM   20  C   UNL     1      26.812  44.208  50.690  1.00  0.00     0.240 C 
HETATM   21  O   UNL     1      27.575  44.848  49.966  1.00  0.00    -0.272 OA
HETATM   22  H   UNL     1      24.802  43.967  51.299  1.00  0.00     0.190 HD
BRANCH  20  23
HETATM   23  C   UNL     1      27.281  43.204  51.714  1.00  0.00     0.146 C 
BRANCH  23  24
HETATM   24  C   UNL     1      28.061  43.738  52.881  1.00  0.00    -0.015 A 
HETATM   25  C   UNL     1      27.855  44.915  53.686  1.00  0.00    -0.000 A 
HETATM   26  C   UNL     1      26.926  45.983  53.693  1.00  0.00     0.021 A 
HETATM   27  C   UNL     1      28.846  44.924  54.668  1.00  0.00     0.043 A 
HETATM   28  C   UNL     1      27.006  46.999  54.664  1.00  0.00    -0.061 A 
HETATM   29  C   UNL     1      25.987  48.101  54.685  1.00  0.00     0.048 C 
HETATM   30  C   UNL     1      28.003  46.947  55.638  1.00  0.00     0.009 A 
HETATM   31  C   UNL     1      28.946  45.917  55.651  1.00  0.00     0.031 A 
HETATM   32  N   UNL     1      29.639  43.824  54.462  1.00  0.00    -0.359 N 
HETATM   33  H   UNL     1      30.445  43.593  55.027  1.00  0.00     0.166 HD
HETATM   34  C   UNL     1      29.182  43.096  53.398  1.00  0.00     0.013 A 
HETATM   35  C   UNL     1      29.866  41.846  52.969  1.00  0.00     0.068 C 
ENDBRANCH  23  24
ENDBRANCH  20  23
ENDBRANCH  16  19
ENDBRANCH  14  15
ENDBRANCH  13  14
ENDBRANCH  10  13
ENDBRANCH   1   9
TORSDOF 7
ENDMDL
MODEL 7
REMARK VINA RESULT:      -8.5      1.695      3.077
REMARK  7 active torsions:
REMARK  status: ('A' for Active; 'I' for Inactive)
REMARK    1  A    between atoms: C_10  and  C_11 
REMARK    2  A    between atoms: C_11  and  C_12 
REMARK       I    between atoms: C_12  and  N_13 
REMARK    3  A    between atoms: N_13  and  N_14 
REMARK       I    between atoms: N_14  and  C_15 
REMARK    4  A    between atoms: C_15  and  C_16 
REMARK    5  A    between atoms: C_16  and  C_17 
REMARK    6  A    between atoms: C_17  and  C_18 
REMARK       I    between atoms: C_18  and  N_19 
REMARK    7  A    between atoms: N_19  and  C_20 
ROOT
HETATM    1  C   UNL     1      19.425  48.648  49.241  1.00  0.00     0.034 A 
HETATM    2  C   UNL     1      18.370  48.424  48.353  1.00  0.00     0.031 A 
HETATM    3  C   UNL     1      17.300  49.325  48.276  1.00  0.00     0.025 A 
HETATM    4  C   UNL     1      17.278  50.463  49.085  1.00  0.00     0.044 A 
HETATM    5  C   UNL     1      16.185  51.386  49.003  1.00  0.00     0.099 C 
HETATM    6  N   UNL     1      15.302  52.137  48.940  1.00  0.00    -0.191 NA
HETATM    7  C   UNL     1      18.330  50.694  49.975  1.00  0.00     0.025 A 
HETATM    8  C   UNL     1      19.394  49.789  50.054  1.00  0.00     0.031 A 
ENDROOT
BRANCH   1   9
HETATM    9  N   UNL     1      20.532  47.789  49.383  1.00  0.00    -0.327 N 
HETATM   10  C   UNL     1      21.765  47.897  48.772  1.00  0.00     0.222 C 
HETATM   11  O   UNL     1      22.131  48.787  48.011  1.00  0.00    -0.273 OA
HETATM   12  H   UNL     1      20.416  47.014  50.040  1.00  0.00     0.169 HD
BRANCH  10  13
HETATM   13  C   UNL     1      22.717  46.777  49.150  1.00  0.00     0.112 C 
BRANCH  13  14
HETATM   14  C   UNL     1      24.172  47.175  48.937  1.00  0.00     0.114 C 
BRANCH  14  15
HETATM   15  C   UNL     1      24.958  47.152  50.231  1.00  0.00     0.236 C 
HETATM   16  N   UNL     1      24.520  46.196  51.118  1.00  0.00    -0.268 N 
HETATM   17  H   UNL     1      23.696  45.614  50.962  1.00  0.00     0.190 HD
HETATM   18  O   UNL     1      25.920  47.888  50.449  1.00  0.00    -0.272 OA
BRANCH  16  19
HETATM   19  N   UNL     1      25.032  46.195  52.420  1.00  0.00    -0.267 N 
HETATM   20  C   UNL     1      25.196  44.971  53.041  1.00  0.00     0.240 C 
HETATM   21  O   UNL     1      24.850  43.916  52.508  1.00  0.00    -0.272 OA
HETATM   22  H   UNL     1      25.503  47.040  52.740  1.00  0.00     0.190 HD
BRANCH  20  23
HETATM   23  C   UNL     1      25.763  45.052  54.437  1.00  0.00     0.146 C 
BRANCH  23  24
HETATM   24  C   UNL     1      27.225  44.747  54.594  1.00  0.00    -0.015 A 
HETATM   25  C   UNL     1      28.029  43.696  54.026  1.00  0.00    -0.000 A 
HETATM   26  C   UNL     1      27.791  42.589  53.176  1.00  0.00     0.021 A 
HETATM   27  C   UNL     1      29.340  43.894  54.464  1.00  0.00     0.043 A 
HETATM   28  C   UNL     1      28.844  41.739  52.791  1.00  0.00    -0.061 A 
HETATM   29  C   UNL     1      28.583  40.596  51.854  1.00  0.00     0.048 C 
HETATM   30  C   UNL     1      30.140  41.997  53.239  1.00  0.00     0.009 A 
HETATM   31  C   UNL     1      30.409  43.070  54.091  1.00  0.00     0.031 A 
HETATM   32  N   UNL     1      29.337  44.994  55.283  1.00  0.00    -0.359 N 
HETATM   33  H   UNL     1      30.158  45.355  55.749  1.00  0.00     0.166 HD
HETATM   34  C   UNL     1      28.080  45.524  55.370  1.00  0.00     0.013 A 
HETATM   35  C   UNL     1      27.808  46.732  56.195  1.00  0.00     0.068 C 
ENDBRANCH  23  24
ENDBRANCH  20  23
ENDBRANCH  16  19
ENDBRANCH  14  15
ENDBRANCH  13  14
ENDBRANCH  10  13
ENDBRANCH   1   9
TORSDOF 7
ENDMDL
MODEL 8
REMARK VINA RESULT:      -8.3      5.887     10.464
REMARK  7 active torsions:
REMARK  status: ('A' for Active; 'I' for Inactive)
REMARK    1  A    between atoms: C_10  and  C_11 
REMARK    2  A    between atoms: C_11  and  C_12 
REMARK       I    between atoms: C_12  and  N_13 
REMARK    3  A    between atoms: N_13  and  N_14 
REMARK       I    between atoms: N_14  and  C_15 
REMARK    4  A    between atoms: C_15  and  C_16 
REMARK    5  A    between atoms: C_16  and  C_17 
REMARK    6  A    between atoms: C_17  and  C_18 
REMARK       I    between atoms: C_18  and  N_19 
REMARK    7  A    between atoms: N_19  and  C_20 
ROOT
HETATM    1  C   UNL     1      28.278  44.536  53.878  1.00  0.00     0.034 A 
HETATM    2  C   UNL     1      28.613  45.445  54.883  1.00  0.00     0.031 A 
HETATM    3  C   UNL     1      29.609  45.136  55.818  1.00  0.00     0.025 A 
HETATM    4  C   UNL     1      30.284  43.915  55.752  1.00  0.00     0.044 A 
HETATM    5  C   UNL     1      31.305  43.601  56.707  1.00  0.00     0.099 C 
HETATM    6  N   UNL     1      32.134  43.342  57.477  1.00  0.00    -0.191 NA
HETATM    7  C   UNL     1      29.953  43.001  54.748  1.00  0.00     0.025 A 
HETATM    8  C   UNL     1      28.953  43.310  53.820  1.00  0.00     0.031 A 
ENDROOT
BRANCH   1   9
HETATM    9  N   UNL     1      27.285  44.767  52.905  1.00  0.00    -0.327 N 
HETATM   10  C   UNL     1      25.915  44.682  53.064  1.00  0.00     0.222 C 
HETATM   11  O   UNL     1      25.313  44.417  54.099  1.00  0.00    -0.273 OA
HETATM   12  H   UNL     1      27.618  45.062  51.985  1.00  0.00     0.169 HD
BRANCH  10  13
HETATM   13  C   UNL     1      25.148  44.986  51.790  1.00  0.00     0.112 C 
BRANCH  13  14
HETATM   14  C   UNL     1      26.079  45.134  50.593  1.00  0.00     0.114 C 
BRANCH  14  15
HETATM   15  C   UNL     1      25.692  44.207  49.460  1.00  0.00     0.236 C 
HETATM   16  N   UNL     1      26.525  43.120  49.335  1.00  0.00    -0.268 N 
HETATM   17  H   UNL     1      27.370  42.988  49.892  1.00  0.00     0.190 HD
HETATM   18  O   UNL     1      24.705  44.388  48.747  1.00  0.00    -0.272 OA
BRANCH  16  19
HETATM   19  N   UNL     1      26.395  42.291  48.216  1.00  0.00    -0.267 N 
HETATM   20  C   UNL     1      26.013  40.980  48.432  1.00  0.00     0.240 C 
HETATM   21  O   UNL     1      25.850  40.526  49.566  1.00  0.00    -0.272 OA
HETATM   22  H   UNL     1      26.321  42.741  47.304  1.00  0.00     0.190 HD
BRANCH  20  23
HETATM   23  C   UNL     1      25.882  40.153  47.176  1.00  0.00     0.146 C 
BRANCH  23  24
HETATM   24  C   UNL     1      25.731  40.902  45.884  1.00  0.00    -0.015 A 
HETATM   25  C   UNL     1      26.643  41.059  44.779  1.00  0.00    -0.000 A 
HETATM   26  C   UNL     1      27.960  40.631  44.490  1.00  0.00     0.021 A 
HETATM   27  C   UNL     1      25.990  41.821  43.809  1.00  0.00     0.043 A 
HETATM   28  C   UNL     1      28.570  40.961  43.264  1.00  0.00    -0.061 A 
HETATM   29  C   UNL     1      29.951  40.462  42.954  1.00  0.00     0.048 C 
HETATM   30  C   UNL     1      27.864  41.705  42.320  1.00  0.00     0.009 A 
HETATM   31  C   UNL     1      26.568  42.158  42.579  1.00  0.00     0.031 A 
HETATM   32  N   UNL     1      24.752  42.141  44.302  1.00  0.00    -0.359 N 
HETATM   33  H   UNL     1      24.072  42.702  43.806  1.00  0.00     0.166 HD
HETATM   34  C   UNL     1      24.573  41.595  45.544  1.00  0.00     0.013 A 
HETATM   35  C   UNL     1      23.305  41.790  46.297  1.00  0.00     0.068 C 
ENDBRANCH  23  24
ENDBRANCH  20  23
ENDBRANCH  16  19
ENDBRANCH  14  15
ENDBRANCH  13  14
ENDBRANCH  10  13
ENDBRANCH   1   9
TORSDOF 7
ENDMDL
MODEL 9
REMARK VINA RESULT:      -8.3      2.313      3.572
REMARK  7 active torsions:
REMARK  status: ('A' for Active; 'I' for Inactive)
REMARK    1  A    between atoms: C_10  and  C_11 
REMARK    2  A    between atoms: C_11  and  C_12 
REMARK       I    between atoms: C_12  and  N_13 
REMARK    3  A    between atoms: N_13  and  N_14 
REMARK       I    between atoms: N_14  and  C_15 
REMARK    4  A    between atoms: C_15  and  C_16 
REMARK    5  A    between atoms: C_16  and  C_17 
REMARK    6  A    between atoms: C_17  and  C_18 
REMARK       I    between atoms: C_18  and  N_19 
REMARK    7  A    between atoms: N_19  and  C_20 
ROOT
HETATM    1  C   UNL     1      19.810  47.866  48.834  1.00  0.00     0.034 A 
HETATM    2  C   UNL     1      18.752  48.065  49.723  1.00  0.00     0.031 A 
HETATM    3  C   UNL     1      17.432  48.126  49.256  1.00  0.00     0.025 A 
HETATM    4  C   UNL     1      17.159  47.985  47.894  1.00  0.00     0.044 A 
HETATM    5  C   UNL     1      15.809  48.044  47.417  1.00  0.00     0.099 C 
HETATM    6  N   UNL     1      14.718  48.092  47.026  1.00  0.00    -0.191 NA
HETATM    7  C   UNL     1      18.214  47.787  46.999  1.00  0.00     0.025 A 
HETATM    8  C   UNL     1      19.532  47.732  47.468  1.00  0.00     0.031 A 
ENDROOT
BRANCH   1   9
HETATM    9  N   UNL     1      21.163  47.799  49.222  1.00  0.00    -0.327 N 
HETATM   10  C   UNL     1      22.142  48.754  49.028  1.00  0.00     0.222 C 
HETATM   11  O   UNL     1      22.000  49.854  48.504  1.00  0.00    -0.273 OA
HETATM   12  H   UNL     1      21.442  46.960  49.733  1.00  0.00     0.169 HD
BRANCH  10  13
HETATM   13  C   UNL     1      23.498  48.334  49.566  1.00  0.00     0.112 C 
BRANCH  13  14
HETATM   14  C   UNL     1      23.665  46.819  49.554  1.00  0.00     0.114 C 
BRANCH  14  15
HETATM   15  C   UNL     1      24.921  46.385  50.281  1.00  0.00     0.236 C 
HETATM   16  N   UNL     1      25.053  46.953  51.527  1.00  0.00    -0.268 N 
HETATM   17  H   UNL     1      24.417  47.661  51.897  1.00  0.00     0.190 HD
HETATM   18  O   UNL     1      25.722  45.574  49.819  1.00  0.00    -0.272 OA
BRANCH  16  19
HETATM   19  N   UNL     1      26.255  46.788  52.223  1.00  0.00    -0.267 N 
HETATM   20  C   UNL     1      26.262  45.906  53.287  1.00  0.00     0.240 C 
HETATM   21  O   UNL     1      25.242  45.327  53.662  1.00  0.00    -0.272 OA
HETATM   22  H   UNL     1      27.110  47.101  51.764  1.00  0.00     0.190 HD
BRANCH  20  23
HETATM   23  C   UNL     1      27.597  45.773  53.978  1.00  0.00     0.146 C 
BRANCH  23  24
HETATM   24  C   UNL     1      28.267  44.431  53.908  1.00  0.00    -0.015 A 
HETATM   25  C   UNL     1      28.079  43.336  52.992  1.00  0.00    -0.000 A 
HETATM   26  C   UNL     1      27.234  43.080  51.886  1.00  0.00     0.021 A 
HETATM   27  C   UNL     1      28.986  42.337  53.348  1.00  0.00     0.043 A 
HETATM   28  C   UNL     1      27.324  41.865  51.179  1.00  0.00    -0.061 A 
HETATM   29  C   UNL     1      26.452  41.627  49.981  1.00  0.00     0.048 C 
HETATM   30  C   UNL     1      28.265  40.910  51.563  1.00  0.00     0.009 A 
HETATM   31  C   UNL     1      29.103  41.123  52.660  1.00  0.00     0.031 A 
HETATM   32  N   UNL     1      29.678  42.782  54.445  1.00  0.00    -0.359 N 
HETATM   33  H   UNL     1      30.393  42.248  54.920  1.00  0.00     0.166 HD
HETATM   34  C   UNL     1      29.266  44.039  54.795  1.00  0.00     0.013 A 
HETATM   35  C   UNL     1      29.868  44.753  55.953  1.00  0.00     0.068 C 
ENDBRANCH  23  24
ENDBRANCH  20  23
ENDBRANCH  16  19
ENDBRANCH  14  15
ENDBRANCH  13  14
ENDBRANCH  10  13
ENDBRANCH   1   9
TORSDOF 7
ENDMDL
MODEL 10
REMARK VINA RESULT:      -8.2     18.958     20.844
REMARK  7 active torsions:
REMARK  status: ('A' for Active; 'I' for Inactive)
REMARK    1  A    between atoms: C_10  and  C_11 
REMARK    2  A    between atoms: C_11  and  C_12 
REMARK       I    between atoms: C_12  and  N_13 
REMARK    3  A    between atoms: N_13  and  N_14 
REMARK       I    between atoms: N_14  and  C_15 
REMARK    4  A    between atoms: C_15  and  C_16 
REMARK    5  A    between atoms: C_16  and  C_17 
REMARK    6  A    between atoms: C_17  and  C_18 
REMARK       I    between atoms: C_18  and  N_19 
REMARK    7  A    between atoms: N_19  and  C_20 
ROOT
HETATM    1  C   UNL     1      37.128  49.571  68.097  1.00  0.00     0.034 A 
HETATM    2  C   UNL     1      37.574  49.692  66.780  1.00  0.00     0.031 A 
HETATM    3  C   UNL     1      37.812  50.955  66.222  1.00  0.00     0.025 A 
HETATM    4  C   UNL     1      37.610  52.110  66.981  1.00  0.00     0.044 A 
HETATM    5  C   UNL     1      37.857  53.401  66.411  1.00  0.00     0.099 C 
HETATM    6  N   UNL     1      38.055  54.450  65.954  1.00  0.00    -0.191 NA
HETATM    7  C   UNL     1      37.163  51.996  68.300  1.00  0.00     0.025 A 
HETATM    8  C   UNL     1      36.921  50.733  68.852  1.00  0.00     0.031 A 
ENDROOT
BRANCH   1   9
HETATM    9  N   UNL     1      36.860  48.340  68.728  1.00  0.00    -0.327 N 
HETATM   10  C   UNL     1      35.647  47.686  68.815  1.00  0.00     0.222 C 
HETATM   11  O   UNL     1      34.582  48.049  68.327  1.00  0.00    -0.273 OA
HETATM   12  H   UNL     1      37.664  47.864  69.142  1.00  0.00     0.169 HD
BRANCH  10  13
HETATM   13  C   UNL     1      35.728  46.382  69.587  1.00  0.00     0.112 C 
BRANCH  13  14
HETATM   14  C   UNL     1      35.066  45.236  68.831  1.00  0.00     0.114 C 
BRANCH  14  15
HETATM   15  C   UNL     1      35.978  44.663  67.766  1.00  0.00     0.236 C 
HETATM   16  N   UNL     1      35.383  44.574  66.529  1.00  0.00    -0.268 N 
HETATM   17  H   UNL     1      34.400  44.791  66.357  1.00  0.00     0.190 HD
HETATM   18  O   UNL     1      37.148  44.347  67.979  1.00  0.00    -0.272 OA
BRANCH  16  19
HETATM   19  N   UNL     1      36.046  43.889  65.506  1.00  0.00    -0.267 N 
HETATM   20  C   UNL     1      36.387  44.604  64.373  1.00  0.00     0.240 C 
HETATM   21  O   UNL     1      36.070  45.785  64.227  1.00  0.00    -0.272 OA
HETATM   22  H   UNL     1      36.479  42.996  65.742  1.00  0.00     0.190 HD
BRANCH  20  23
HETATM   23  C   UNL     1      37.110  43.799  63.321  1.00  0.00     0.146 C 
BRANCH  23  24
HETATM   24  C   UNL     1      38.605  43.728  63.430  1.00  0.00    -0.015 A 
HETATM   25  C   UNL     1      39.562  44.718  63.853  1.00  0.00    -0.000 A 
HETATM   26  C   UNL     1      39.498  46.066  64.280  1.00  0.00     0.021 A 
HETATM   27  C   UNL     1      40.824  44.123  63.805  1.00  0.00     0.043 A 
HETATM   28  C   UNL     1      40.666  46.760  64.647  1.00  0.00    -0.061 A 
HETATM   29  C   UNL     1      40.576  48.175  65.140  1.00  0.00     0.048 C 
HETATM   30  C   UNL     1      41.899  46.110  64.603  1.00  0.00     0.009 A 
HETATM   31  C   UNL     1      42.002  44.786  64.171  1.00  0.00     0.031 A 
HETATM   32  N   UNL     1      40.656  42.841  63.349  1.00  0.00    -0.359 N 
HETATM   33  H   UNL     1      41.413  42.186  63.206  1.00  0.00     0.166 HD
HETATM   34  C   UNL     1      39.332  42.581  63.123  1.00  0.00     0.013 A 
HETATM   35  C   UNL     1      38.880  41.253  62.628  1.00  0.00     0.068 C 
ENDBRANCH  23  24
ENDBRANCH  20  23
ENDBRANCH  16  19
ENDBRANCH  14  15
ENDBRANCH  13  14
ENDBRANCH  10  13
ENDBRANCH   1   9
TORSDOF 7
ENDMDL
