MODEL 1
REMARK VINA RESULT:      -8.6      0.000      0.000
REMARK  4 active torsions:
REMARK  status: ('A' for Active; 'I' for Inactive)
REMARK    1  A    between atoms: C_4  and  C_5 
REMARK    2  A    between atoms: C_8  and  C_9 
REMARK       I    between atoms: C_9  and  N_10 
REMARK    3  A    between atoms: N_10  and  C_11 
REMARK    4  A    between atoms: C_14  and  N_15 
ROOT
HETATM    1  C   UNL     1      25.506  46.480  52.286  1.00  0.00     0.252 C 
HETATM    2  N   UNL     1      24.926  45.338  51.761  1.00  0.00    -0.352 N 
HETATM    3  O   UNL     1      25.243  47.612  51.895  1.00  0.00    -0.268 OA
HETATM    4  H   UNL     1      25.396  44.477  52.012  1.00  0.00     0.163 HD
ENDROOT
BRANCH   1   5
HETATM    5  C   UNL     1      26.512  46.301  53.378  1.00  0.00     0.032 A 
HETATM    6  C   UNL     1      26.873  47.317  54.271  1.00  0.00     0.018 A 
HETATM    7  C   UNL     1      27.800  47.060  55.292  1.00  0.00     0.015 A 
HETATM    8  C   UNL     1      28.397  45.798  55.435  1.00  0.00    -0.002 A 
HETATM    9  C   UNL     1      28.052  44.798  54.516  1.00  0.00     0.015 A 
HETATM   10  C   UNL     1      27.121  45.046  53.501  1.00  0.00     0.018 A 
BRANCH   8  11
HETATM   11  C   UNL     1      29.349  45.522  56.507  1.00  0.00     0.086 A 
HETATM   12  O   UNL     1      30.238  44.506  56.284  1.00  0.00    -0.315 OA
HETATM   13  C   UNL     1      31.049  44.423  57.376  1.00  0.00     0.050 A 
HETATM   14  C   UNL     1      32.103  43.390  57.345  1.00  0.00     0.076 C 
HETATM   15  C   UNL     1      30.687  45.369  58.307  1.00  0.00     0.035 A 
HETATM   16  C   UNL     1      29.595  46.078  57.749  1.00  0.00     0.040 A 
ENDBRANCH   8  11
ENDBRANCH   1   5
BRANCH   2  17
HETATM   17  C   UNL     1      24.197  45.260  50.491  1.00  0.00     0.084 C 
HETATM   18  C   UNL     1      25.214  45.280  49.335  1.00  0.00     0.027 C 
HETATM   19  C   UNL     1      25.988  43.959  49.226  1.00  0.00     0.035 C 
HETATM   20  C   UNL     1      25.089  42.723  49.156  1.00  0.00     0.183 C 
HETATM   21  C   UNL     1      23.984  42.729  50.208  1.00  0.00     0.035 C 
HETATM   22  C   UNL     1      23.247  44.067  50.285  1.00  0.00     0.027 C 
BRANCH  20  23
HETATM   23  N   UNL     1      24.463  42.647  47.801  1.00  0.00    -0.075 N 
HETATM   24  H   UNL     1      23.787  43.399  47.625  1.00  0.00     0.274 HD
HETATM   25  H   UNL     1      25.175  42.687  47.059  1.00  0.00     0.274 HD
HETATM   26  H   UNL     1      23.963  41.755  47.682  1.00  0.00     0.274 HD
ENDBRANCH  20  23
ENDBRANCH   2  17
TORSDOF 4
ENDMDL
MODEL 2
REMARK VINA RESULT:      -8.3      3.632      4.544
REMARK  4 active torsions:
REMARK  status: ('A' for Active; 'I' for Inactive)
REMARK    1  A    between atoms: C_4  and  C_5 
REMARK    2  A    between atoms: C_8  and  C_9 
REMARK       I    between atoms: C_9  and  N_10 
REMARK    3  A    between atoms: N_10  and  C_11 
REMARK    4  A    between atoms: C_14  and  N_15 
ROOT
HETATM    1  C   UNL     1      27.515  42.212  50.966  1.00  0.00     0.252 C 
HETATM    2  N   UNL     1      27.901  40.991  50.440  1.00  0.00    -0.352 N 
HETATM    3  O   UNL     1      26.657  42.925  50.459  1.00  0.00    -0.268 OA
HETATM    4  H   UNL     1      28.764  40.626  50.823  1.00  0.00     0.163 HD
ENDROOT
BRANCH   1   5
HETATM    5  C   UNL     1      28.202  42.673  52.213  1.00  0.00     0.032 A 
HETATM    6  C   UNL     1      27.610  43.526  53.152  1.00  0.00     0.018 A 
HETATM    7  C   UNL     1      28.308  43.884  54.315  1.00  0.00     0.015 A 
HETATM    8  C   UNL     1      29.609  43.417  54.558  1.00  0.00    -0.002 A 
HETATM    9  C   UNL     1      30.203  42.589  53.598  1.00  0.00     0.015 A 
HETATM   10  C   UNL     1      29.508  42.221  52.440  1.00  0.00     0.018 A 
BRANCH   8  11
HETATM   11  C   UNL     1      30.331  43.774  55.776  1.00  0.00     0.086 A 
HETATM   12  O   UNL     1      29.964  44.946  56.379  1.00  0.00    -0.315 OA
HETATM   13  C   UNL     1      30.725  45.088  57.500  1.00  0.00     0.050 A 
HETATM   14  C   UNL     1      30.483  46.292  58.320  1.00  0.00     0.076 C 
HETATM   15  C   UNL     1      31.589  44.025  57.622  1.00  0.00     0.035 A 
HETATM   16  C   UNL     1      31.336  43.178  56.516  1.00  0.00     0.040 A 
ENDBRANCH   8  11
ENDBRANCH   1   5
BRANCH   2  17
HETATM   17  C   UNL     1      27.616  40.522  49.081  1.00  0.00     0.084 C 
HETATM   18  C   UNL     1      28.925  40.012  48.449  1.00  0.00     0.027 C 
HETATM   19  C   UNL     1      29.372  38.675  49.055  1.00  0.00     0.035 C 
HETATM   20  C   UNL     1      28.287  37.596  49.035  1.00  0.00     0.183 C 
HETATM   21  C   UNL     1      26.936  38.101  49.535  1.00  0.00     0.035 C 
HETATM   22  C   UNL     1      26.536  39.439  48.911  1.00  0.00     0.027 C 
BRANCH  20  23
HETATM   23  N   UNL     1      28.125  37.086  47.640  1.00  0.00    -0.075 N 
HETATM   24  H   UNL     1      27.524  37.683  47.059  1.00  0.00     0.274 HD
HETATM   25  H   UNL     1      29.034  37.002  47.165  1.00  0.00     0.274 HD
HETATM   26  H   UNL     1      27.705  36.147  47.644  1.00  0.00     0.274 HD
ENDBRANCH  20  23
ENDBRANCH   2  17
TORSDOF 4
ENDMDL
MODEL 3
REMARK VINA RESULT:      -7.7      4.949      6.928
REMARK  4 active torsions:
REMARK  status: ('A' for Active; 'I' for Inactive)
REMARK    1  A    between atoms: C_4  and  C_5 
REMARK    2  A    between atoms: C_8  and  C_9 
REMARK       I    between atoms: C_9  and  N_10 
REMARK    3  A    between atoms: N_10  and  C_11 
REMARK    4  A    between atoms: C_14  and  N_15 
ROOT
HETATM    1  C   UNL     1      23.522  49.580  48.249  1.00  0.00     0.252 C 
HETATM    2  N   UNL     1      22.231  49.780  48.704  1.00  0.00    -0.352 N 
HETATM    3  O   UNL     1      23.998  50.171  47.287  1.00  0.00    -0.268 OA
HETATM    4  H   UNL     1      21.900  49.072  49.349  1.00  0.00     0.163 HD
ENDROOT
BRANCH   1   5
HETATM    5  C   UNL     1      24.361  48.576  48.976  1.00  0.00     0.032 A 
HETATM    6  C   UNL     1      25.740  48.717  49.172  1.00  0.00     0.018 A 
HETATM    7  C   UNL     1      26.450  47.747  49.896  1.00  0.00     0.015 A 
HETATM    8  C   UNL     1      25.809  46.615  50.422  1.00  0.00    -0.002 A 
HETATM    9  C   UNL     1      24.435  46.469  50.193  1.00  0.00     0.015 A 
HETATM   10  C   UNL     1      23.720  47.437  49.480  1.00  0.00     0.018 A 
BRANCH   8  11
HETATM   11  C   UNL     1      26.543  45.613  51.191  1.00  0.00     0.086 A 
HETATM   12  O   UNL     1      26.499  45.739  52.552  1.00  0.00    -0.315 OA
HETATM   13  C   UNL     1      27.213  44.708  53.084  1.00  0.00     0.050 A 
HETATM   14  C   UNL     1      27.288  44.640  54.557  1.00  0.00     0.076 C 
HETATM   15  C   UNL     1      27.727  43.921  52.079  1.00  0.00     0.035 A 
HETATM   16  C   UNL     1      27.295  44.501  50.861  1.00  0.00     0.040 A 
ENDBRANCH   8  11
ENDBRANCH   1   5
BRANCH   2  17
HETATM   17  C   UNL     1      21.157  50.439  47.955  1.00  0.00     0.084 C 
HETATM   18  C   UNL     1      20.060  49.403  47.647  1.00  0.00     0.027 C 
HETATM   19  C   UNL     1      19.257  49.026  48.898  1.00  0.00     0.035 C 
HETATM   20  C   UNL     1      18.688  50.230  49.650  1.00  0.00     0.183 C 
HETATM   21  C   UNL     1      19.715  51.339  49.864  1.00  0.00     0.035 C 
HETATM   22  C   UNL     1      20.496  51.674  48.593  1.00  0.00     0.027 C 
BRANCH  20  23
HETATM   23  N   UNL     1      17.530  50.786  48.886  1.00  0.00    -0.075 N 
HETATM   24  H   UNL     1      17.351  50.289  48.006  1.00  0.00     0.274 HD
HETATM   25  H   UNL     1      16.666  50.755  49.443  1.00  0.00     0.274 HD
HETATM   26  H   UNL     1      17.693  51.774  48.648  1.00  0.00     0.274 HD
ENDBRANCH  20  23
ENDBRANCH   2  17
TORSDOF 4
ENDMDL
MODEL 4
REMARK VINA RESULT:      -7.5      3.837      5.396
REMARK  4 active torsions:
REMARK  status: ('A' for Active; 'I' for Inactive)
REMARK    1  A    between atoms: C_4  and  C_5 
REMARK    2  A    between atoms: C_8  and  C_9 
REMARK       I    between atoms: C_9  and  N_10 
REMARK    3  A    between atoms: N_10  and  C_11 
REMARK    4  A    between atoms: C_14  and  N_15 
ROOT
HETATM    1  C   UNL     1      25.362  48.248  49.461  1.00  0.00     0.252 C 
HETATM    2  N   UNL     1      23.995  48.270  49.242  1.00  0.00    -0.352 N 
HETATM    3  O   UNL     1      26.123  49.124  49.068  1.00  0.00    -0.268 OA
HETATM    4  H   UNL     1      23.529  47.388  49.415  1.00  0.00     0.163 HD
ENDROOT
BRANCH   1   5
HETATM    5  C   UNL     1      25.919  47.079  50.210  1.00  0.00     0.032 A 
HETATM    6  C   UNL     1      26.594  46.017  49.595  1.00  0.00     0.018 A 
HETATM    7  C   UNL     1      27.119  44.974  50.372  1.00  0.00     0.015 A 
HETATM    8  C   UNL     1      26.970  44.956  51.767  1.00  0.00    -0.002 A 
HETATM    9  C   UNL     1      26.266  46.007  52.368  1.00  0.00     0.015 A 
HETATM   10  C   UNL     1      25.747  47.055  51.600  1.00  0.00     0.018 A 
BRANCH   8  11
HETATM   11  C   UNL     1      27.530  43.879  52.580  1.00  0.00     0.086 A 
HETATM   12  O   UNL     1      28.622  44.197  53.341  1.00  0.00    -0.315 OA
HETATM   13  C   UNL     1      28.976  43.081  54.037  1.00  0.00     0.050 A 
HETATM   14  C   UNL     1      30.136  43.203  54.943  1.00  0.00     0.076 C 
HETATM   15  C   UNL     1      28.130  42.042  53.727  1.00  0.00     0.035 A 
HETATM   16  C   UNL     1      27.198  42.554  52.792  1.00  0.00     0.040 A 
ENDBRANCH   8  11
ENDBRANCH   1   5
BRANCH   2  17
HETATM   17  C   UNL     1      23.304  49.116  48.264  1.00  0.00     0.084 C 
HETATM   18  C   UNL     1      21.953  48.465  47.913  1.00  0.00     0.027 C 
HETATM   19  C   UNL     1      20.942  48.583  49.061  1.00  0.00     0.035 C 
HETATM   20  C   UNL     1      20.755  50.014  49.571  1.00  0.00     0.183 C 
HETATM   21  C   UNL     1      22.075  50.739  49.810  1.00  0.00     0.035 C 
HETATM   22  C   UNL     1      23.054  50.587  48.643  1.00  0.00     0.027 C 
BRANCH  20  23
HETATM   23  N   UNL     1      19.951  50.789  48.578  1.00  0.00    -0.075 N 
HETATM   24  H   UNL     1      19.007  51.016  48.912  1.00  0.00     0.274 HD
HETATM   25  H   UNL     1      20.415  51.673  48.331  1.00  0.00     0.274 HD
HETATM   26  H   UNL     1      19.843  50.256  47.704  1.00  0.00     0.274 HD
ENDBRANCH  20  23
ENDBRANCH   2  17
TORSDOF 4
ENDMDL
MODEL 5
REMARK VINA RESULT:      -7.5     12.818     14.257
REMARK  4 active torsions:
REMARK  status: ('A' for Active; 'I' for Inactive)
REMARK    1  A    between atoms: C_4  and  C_5 
REMARK    2  A    between atoms: C_8  and  C_9 
REMARK       I    between atoms: C_9  and  N_10 
REMARK    3  A    between atoms: N_10  and  C_11 
REMARK    4  A    between atoms: C_14  and  N_15 
ROOT
HETATM    1  C   UNL     1      31.135  49.792  42.488  1.00  0.00     0.252 C 
HETATM    2  N   UNL     1      30.232  50.434  41.659  1.00  0.00    -0.352 N 
HETATM    3  O   UNL     1      30.969  48.655  42.916  1.00  0.00    -0.268 OA
HETATM    4  H   UNL     1      30.381  51.432  41.573  1.00  0.00     0.163 HD
ENDROOT
BRANCH   1   5
HETATM    5  C   UNL     1      32.367  50.545  42.879  1.00  0.00     0.032 A 
HETATM    6  C   UNL     1      32.438  51.383  43.998  1.00  0.00     0.018 A 
HETATM    7  C   UNL     1      33.642  52.028  44.318  1.00  0.00     0.015 A 
HETATM    8  C   UNL     1      34.790  51.867  43.526  1.00  0.00    -0.002 A 
HETATM    9  C   UNL     1      34.698  51.050  42.392  1.00  0.00     0.015 A 
HETATM   10  C   UNL     1      33.503  50.398  42.072  1.00  0.00     0.018 A 
BRANCH   8  11
HETATM   11  C   UNL     1      36.049  52.523  43.867  1.00  0.00     0.086 A 
HETATM   12  O   UNL     1      36.493  53.478  42.993  1.00  0.00    -0.315 OA
HETATM   13  C   UNL     1      37.654  53.985  43.493  1.00  0.00     0.050 A 
HETATM   14  C   UNL     1      38.307  55.051  42.708  1.00  0.00     0.076 C 
HETATM   15  C   UNL     1      37.971  53.361  44.678  1.00  0.00     0.035 A 
HETATM   16  C   UNL     1      36.939  52.422  44.921  1.00  0.00     0.040 A 
ENDBRANCH   8  11
ENDBRANCH   1   5
BRANCH   2  17
HETATM   17  C   UNL     1      28.841  50.027  41.438  1.00  0.00     0.084 C 
HETATM   18  C   UNL     1      27.972  51.291  41.299  1.00  0.00     0.027 C 
HETATM   19  C   UNL     1      28.207  52.007  39.963  1.00  0.00     0.035 C 
HETATM   20  C   UNL     1      28.063  51.095  38.742  1.00  0.00     0.183 C 
HETATM   21  C   UNL     1      28.808  49.772  38.895  1.00  0.00     0.035 C 
HETATM   22  C   UNL     1      28.549  49.100  40.245  1.00  0.00     0.027 C 
BRANCH  20  23
HETATM   23  N   UNL     1      26.615  50.809  38.510  1.00  0.00    -0.075 N 
HETATM   24  H   UNL     1      26.434  49.837  38.232  1.00  0.00     0.274 HD
HETATM   25  H   UNL     1      26.057  51.000  39.354  1.00  0.00     0.274 HD
HETATM   26  H   UNL     1      26.240  51.412  37.765  1.00  0.00     0.274 HD
ENDBRANCH  20  23
ENDBRANCH   2  17
TORSDOF 4
ENDMDL
MODEL 6
REMARK VINA RESULT:      -7.5      4.230      5.935
REMARK  4 active torsions:
REMARK  status: ('A' for Active; 'I' for Inactive)
REMARK    1  A    between atoms: C_4  and  C_5 
REMARK    2  A    between atoms: C_8  and  C_9 
REMARK       I    between atoms: C_9  and  N_10 
REMARK    3  A    between atoms: N_10  and  C_11 
REMARK    4  A    between atoms: C_14  and  N_15 
ROOT
HETATM    1  C   UNL     1      23.717  48.175  49.412  1.00  0.00     0.252 C 
HETATM    2  N   UNL     1      22.356  48.323  49.611  1.00  0.00    -0.352 N 
HETATM    3  O   UNL     1      24.352  48.815  48.581  1.00  0.00    -0.268 OA
HETATM    4  H   UNL     1      21.930  47.583  50.156  1.00  0.00     0.163 HD
ENDROOT
BRANCH   1   5
HETATM    5  C   UNL     1      24.431  47.167  50.257  1.00  0.00     0.032 A 
HETATM    6  C   UNL     1      24.197  45.789  50.181  1.00  0.00     0.018 A 
HETATM    7  C   UNL     1      24.934  44.905  50.983  1.00  0.00     0.015 A 
HETATM    8  C   UNL     1      25.902  45.373  51.886  1.00  0.00    -0.002 A 
HETATM    9  C   UNL     1      26.106  46.756  51.975  1.00  0.00     0.015 A 
HETATM   10  C   UNL     1      25.380  47.642  51.171  1.00  0.00     0.018 A 
BRANCH   8  11
HETATM   11  C   UNL     1      26.682  44.454  52.710  1.00  0.00     0.086 A 
HETATM   12  O   UNL     1      27.947  44.170  52.272  1.00  0.00    -0.315 OA
HETATM   13  C   UNL     1      28.516  43.326  53.178  1.00  0.00     0.050 A 
HETATM   14  C   UNL     1      29.902  42.896  52.908  1.00  0.00     0.076 C 
HETATM   15  C   UNL     1      27.627  43.054  54.193  1.00  0.00     0.035 A 
HETATM   16  C   UNL     1      26.448  43.780  53.894  1.00  0.00     0.040 A 
ENDBRANCH   8  11
ENDBRANCH   1   5
BRANCH   2  17
HETATM   17  C   UNL     1      21.427  48.982  48.688  1.00  0.00     0.084 C 
HETATM   18  C   UNL     1      20.058  48.283  48.782  1.00  0.00     0.027 C 
HETATM   19  C   UNL     1      19.333  48.611  50.094  1.00  0.00     0.035 C 
HETATM   20  C   UNL     1      19.213  50.111  50.373  1.00  0.00     0.183 C 
HETATM   21  C   UNL     1      20.525  50.862  50.165  1.00  0.00     0.035 C 
HETATM   22  C   UNL     1      21.214  50.497  48.849  1.00  0.00     0.027 C 
BRANCH  20  23
HETATM   23  N   UNL     1      18.174  50.697  49.473  1.00  0.00    -0.075 N 
HETATM   24  H   UNL     1      17.215  50.518  49.793  1.00  0.00     0.274 HD
HETATM   25  H   UNL     1      18.288  51.716  49.385  1.00  0.00     0.274 HD
HETATM   26  H   UNL     1      18.254  50.307  48.524  1.00  0.00     0.274 HD
ENDBRANCH  20  23
ENDBRANCH   2  17
TORSDOF 4
ENDMDL
MODEL 7
REMARK VINA RESULT:      -7.3     15.162     16.983
REMARK  4 active torsions:
REMARK  status: ('A' for Active; 'I' for Inactive)
REMARK    1  A    between atoms: C_4  and  C_5 
REMARK    2  A    between atoms: C_8  and  C_9 
REMARK       I    between atoms: C_9  and  N_10 
REMARK    3  A    between atoms: N_10  and  C_11 
REMARK    4  A    between atoms: C_14  and  N_15 
ROOT
HETATM    1  C   UNL     1      36.779  45.798  64.365  1.00  0.00     0.252 C 
HETATM    2  N   UNL     1      37.888  45.080  63.951  1.00  0.00    -0.352 N 
HETATM    3  O   UNL     1      35.627  45.412  64.203  1.00  0.00    -0.268 OA
HETATM    4  H   UNL     1      38.749  45.613  63.940  1.00  0.00     0.163 HD
ENDROOT
BRANCH   1   5
HETATM    5  C   UNL     1      37.020  47.116  65.030  1.00  0.00     0.032 A 
HETATM    6  C   UNL     1      37.678  48.185  64.412  1.00  0.00     0.018 A 
HETATM    7  C   UNL     1      37.834  49.402  65.092  1.00  0.00     0.015 A 
HETATM    8  C   UNL     1      37.356  49.574  66.401  1.00  0.00    -0.002 A 
HETATM    9  C   UNL     1      36.726  48.487  67.020  1.00  0.00     0.015 A 
HETATM   10  C   UNL     1      36.560  47.274  66.344  1.00  0.00     0.018 A 
BRANCH   8  11
HETATM   11  C   UNL     1      37.501  50.846  67.104  1.00  0.00     0.086 A 
HETATM   12  O   UNL     1      37.556  51.969  66.325  1.00  0.00    -0.315 OA
HETATM   13  C   UNL     1      37.665  53.042  67.158  1.00  0.00     0.050 A 
HETATM   14  C   UNL     1      37.727  54.373  66.522  1.00  0.00     0.076 C 
HETATM   15  C   UNL     1      37.692  52.622  68.468  1.00  0.00     0.035 A 
HETATM   16  C   UNL     1      37.584  51.211  68.436  1.00  0.00     0.040 A 
ENDBRANCH   8  11
ENDBRANCH   1   5
BRANCH   2  17
HETATM   17  C   UNL     1      37.874  43.965  63.000  1.00  0.00     0.084 C 
HETATM   18  C   UNL     1      39.292  43.787  62.426  1.00  0.00     0.027 C 
HETATM   19  C   UNL     1      40.259  43.187  63.456  1.00  0.00     0.035 C 
HETATM   20  C   UNL     1      39.751  41.893  64.096  1.00  0.00     0.183 C 
HETATM   21  C   UNL     1      38.302  41.988  64.563  1.00  0.00     0.035 C 
HETATM   22  C   UNL     1      37.378  42.600  63.508  1.00  0.00     0.027 C 
BRANCH  20  23
HETATM   23  N   UNL     1      39.866  40.778  63.108  1.00  0.00    -0.075 N 
HETATM   24  H   UNL     1      38.957  40.398  62.819  1.00  0.00     0.274 HD
HETATM   25  H   UNL     1      40.362  41.081  62.259  1.00  0.00     0.274 HD
HETATM   26  H   UNL     1      40.408  39.997  63.504  1.00  0.00     0.274 HD
ENDBRANCH  20  23
ENDBRANCH   2  17
TORSDOF 4
ENDMDL
MODEL 8
REMARK VINA RESULT:      -7.3      2.314      3.252
REMARK  4 active torsions:
REMARK  status: ('A' for Active; 'I' for Inactive)
REMARK    1  A    between atoms: C_4  and  C_5 
REMARK    2  A    between atoms: C_8  and  C_9 
REMARK       I    between atoms: C_9  and  N_10 
REMARK    3  A    between atoms: N_10  and  C_11 
REMARK    4  A    between atoms: C_14  and  N_15 
ROOT
HETATM    1  C   UNL     1      26.963  42.623  50.700  1.00  0.00     0.252 C 
HETATM    2  N   UNL     1      25.606  42.892  50.722  1.00  0.00    -0.352 N 
HETATM    3  O   UNL     1      27.530  42.090  49.753  1.00  0.00    -0.268 OA
HETATM    4  H   UNL     1      25.239  43.118  51.639  1.00  0.00     0.163 HD
ENDROOT
BRANCH   1   5
HETATM    5  C   UNL     1      27.760  43.000  51.909  1.00  0.00     0.032 A 
HETATM    6  C   UNL     1      27.504  44.140  52.679  1.00  0.00     0.018 A 
HETATM    7  C   UNL     1      28.275  44.406  53.820  1.00  0.00     0.015 A 
HETATM    8  C   UNL     1      29.323  43.555  54.207  1.00  0.00    -0.002 A 
HETATM    9  C   UNL     1      29.590  42.434  53.412  1.00  0.00     0.015 A 
HETATM   10  C   UNL     1      28.819  42.160  52.277  1.00  0.00     0.018 A 
BRANCH   8  11
HETATM   11  C   UNL     1      30.116  43.820  55.405  1.00  0.00     0.086 A 
HETATM   12  O   UNL     1      29.780  44.936  56.122  1.00  0.00    -0.315 OA
HETATM   13  C   UNL     1      30.608  44.994  57.202  1.00  0.00     0.050 A 
HETATM   14  C   UNL     1      30.411  46.125  58.131  1.00  0.00     0.076 C 
HETATM   15  C   UNL     1      31.483  43.932  57.186  1.00  0.00     0.035 A 
HETATM   16  C   UNL     1      31.166  43.175  56.032  1.00  0.00     0.040 A 
ENDBRANCH   8  11
ENDBRANCH   1   5
BRANCH   2  17
HETATM   17  C   UNL     1      24.608  42.313  49.817  1.00  0.00     0.084 C 
HETATM   18  C   UNL     1      23.206  42.554  50.407  1.00  0.00     0.027 C 
HETATM   19  C   UNL     1      22.779  44.023  50.294  1.00  0.00     0.035 C 
HETATM   20  C   UNL     1      22.892  44.589  48.877  1.00  0.00     0.183 C 
HETATM   21  C   UNL     1      24.223  44.260  48.208  1.00  0.00     0.035 C 
HETATM   22  C   UNL     1      24.611  42.787  48.354  1.00  0.00     0.027 C 
BRANCH  20  23
HETATM   23  N   UNL     1      21.782  44.042  48.039  1.00  0.00    -0.075 N 
HETATM   24  H   UNL     1      21.950  43.079  47.724  1.00  0.00     0.274 HD
HETATM   25  H   UNL     1      20.889  44.052  48.550  1.00  0.00     0.274 HD
HETATM   26  H   UNL     1      21.647  44.617  47.196  1.00  0.00     0.274 HD
ENDBRANCH  20  23
ENDBRANCH   2  17
TORSDOF 4
ENDMDL
MODEL 9
REMARK VINA RESULT:      -7.0      7.315      9.779
REMARK  4 active torsions:
REMARK  status: ('A' for Active; 'I' for Inactive)
REMARK    1  A    between atoms: C_4  and  C_5 
REMARK    2  A    between atoms: C_8  and  C_9 
REMARK       I    between atoms: C_9  and  N_10 
REMARK    3  A    between atoms: N_10  and  C_11 
REMARK    4  A    between atoms: C_14  and  N_15 
ROOT
HETATM    1  C   UNL     1      19.391  51.208  48.404  1.00  0.00     0.252 C 
HETATM    2  N   UNL     1      18.244  50.460  48.203  1.00  0.00    -0.352 N 
HETATM    3  O   UNL     1      19.415  52.432  48.362  1.00  0.00    -0.268 OA
HETATM    4  H   UNL     1      18.410  49.475  48.039  1.00  0.00     0.163 HD
ENDROOT
BRANCH   1   5
HETATM    5  C   UNL     1      20.660  50.462  48.674  1.00  0.00     0.032 A 
HETATM    6  C   UNL     1      20.723  49.073  48.828  1.00  0.00     0.018 A 
HETATM    7  C   UNL     1      21.958  48.444  49.044  1.00  0.00     0.015 A 
HETATM    8  C   UNL     1      23.148  49.183  49.129  1.00  0.00    -0.002 A 
HETATM    9  C   UNL     1      23.069  50.576  49.005  1.00  0.00     0.015 A 
HETATM   10  C   UNL     1      21.841  51.208  48.781  1.00  0.00     0.018 A 
BRANCH   8  11
HETATM   11  C   UNL     1      24.438  48.530  49.338  1.00  0.00     0.086 A 
HETATM   12  O   UNL     1      25.550  49.286  49.087  1.00  0.00    -0.315 OA
HETATM   13  C   UNL     1      26.640  48.517  49.361  1.00  0.00     0.050 A 
HETATM   14  C   UNL     1      27.963  49.145  49.170  1.00  0.00     0.076 C 
HETATM   15  C   UNL     1      26.244  47.267  49.778  1.00  0.00     0.035 A 
HETATM   16  C   UNL     1      24.828  47.274  49.765  1.00  0.00     0.040 A 
ENDBRANCH   8  11
ENDBRANCH   1   5
BRANCH   2  17
HETATM   17  C   UNL     1      17.001  50.953  47.601  1.00  0.00     0.084 C 
HETATM   18  C   UNL     1      17.020  50.633  46.095  1.00  0.00     0.027 C 
HETATM   19  C   UNL     1      16.818  49.137  45.822  1.00  0.00     0.035 C 
HETATM   20  C   UNL     1      15.579  48.549  46.500  1.00  0.00     0.183 C 
HETATM   21  C   UNL     1      15.456  48.950  47.967  1.00  0.00     0.035 C 
HETATM   22  C   UNL     1      15.673  50.448  48.191  1.00  0.00     0.027 C 
BRANCH  20  23
HETATM   23  N   UNL     1      14.357  49.004  45.772  1.00  0.00    -0.075 N 
HETATM   24  H   UNL     1      14.427  48.890  44.754  1.00  0.00     0.274 HD
HETATM   25  H   UNL     1      13.522  48.491  46.086  1.00  0.00     0.274 HD
HETATM   26  H   UNL     1      14.177  50.001  45.952  1.00  0.00     0.274 HD
ENDBRANCH  20  23
ENDBRANCH   2  17
TORSDOF 4
ENDMDL
MODEL 10
REMARK VINA RESULT:      -7.0      7.805     10.419
REMARK  4 active torsions:
REMARK  status: ('A' for Active; 'I' for Inactive)
REMARK    1  A    between atoms: C_4  and  C_5 
REMARK    2  A    between atoms: C_8  and  C_9 
REMARK       I    between atoms: C_9  and  N_10 
REMARK    3  A    between atoms: N_10  and  C_11 
REMARK    4  A    between atoms: C_14  and  N_15 
ROOT
HETATM    1  C   UNL     1      18.382  49.992  49.555  1.00  0.00     0.252 C 
HETATM    2  N   UNL     1      17.553  49.634  48.506  1.00  0.00    -0.352 N 
HETATM    3  O   UNL     1      17.969  50.421  50.626  1.00  0.00    -0.268 OA
HETATM    4  H   UNL     1      18.028  49.520  47.619  1.00  0.00     0.163 HD
ENDROOT
BRANCH   1   5
HETATM    5  C   UNL     1      19.857  49.853  49.346  1.00  0.00     0.032 A 
HETATM    6  C   UNL     1      20.490  48.631  49.092  1.00  0.00     0.018 A 
HETATM    7  C   UNL     1      21.875  48.589  48.872  1.00  0.00     0.015 A 
HETATM    8  C   UNL     1      22.657  49.754  48.916  1.00  0.00    -0.002 A 
HETATM    9  C   UNL     1      22.018  50.966  49.202  1.00  0.00     0.015 A 
HETATM   10  C   UNL     1      20.636  51.016  49.414  1.00  0.00     0.018 A 
BRANCH   8  11
HETATM   11  C   UNL     1      24.096  49.715  48.670  1.00  0.00     0.086 A 
HETATM   12  O   UNL     1      24.829  48.887  49.477  1.00  0.00    -0.315 OA
HETATM   13  C   UNL     1      26.129  48.970  49.078  1.00  0.00     0.050 A 
HETATM   14  C   UNL     1      27.104  48.138  49.812  1.00  0.00     0.076 C 
HETATM   15  C   UNL     1      26.246  49.851  48.028  1.00  0.00     0.035 A 
HETATM   16  C   UNL     1      24.940  50.329  47.763  1.00  0.00     0.040 A 
ENDBRANCH   8  11
ENDBRANCH   1   5
BRANCH   2  17
HETATM   17  C   UNL     1      16.141  50.004  48.372  1.00  0.00     0.084 C 
HETATM   18  C   UNL     1      16.051  51.505  48.043  1.00  0.00     0.027 C 
HETATM   19  C   UNL     1      16.495  51.806  46.605  1.00  0.00     0.035 C 
HETATM   20  C   UNL     1      15.777  50.961  45.550  1.00  0.00     0.183 C 
HETATM   21  C   UNL     1      15.732  49.477  45.905  1.00  0.00     0.035 C 
HETATM   22  C   UNL     1      15.294  49.227  47.349  1.00  0.00     0.027 C 
BRANCH  20  23
HETATM   23  N   UNL     1      14.378  51.460  45.387  1.00  0.00    -0.075 N 
HETATM   24  H   UNL     1      13.770  50.801  44.887  1.00  0.00     0.274 HD
HETATM   25  H   UNL     1      13.943  51.655  46.299  1.00  0.00     0.274 HD
HETATM   26  H   UNL     1      14.368  52.343  44.859  1.00  0.00     0.274 HD
ENDBRANCH  20  23
ENDBRANCH   2  17
TORSDOF 4
ENDMDL
