MODEL 1
REMARK VINA RESULT:      -8.7      0.000      0.000
REMARK  9 active torsions:
REMARK  status: ('A' for Active; 'I' for Inactive)
REMARK       I    between atoms: C_2  and  N_3 
REMARK    1  A    between atoms: N_3  and  C_4 
REMARK    2  A    between atoms: C_4  and  C_5 
REMARK    3  A    between atoms: C_5  and  N_6 
REMARK       I    between atoms: N_6  and  C_7 
REMARK    4  A    between atoms: C_7  and  C_8 
REMARK    5  A    between atoms: C_8  and  C_9 
REMARK    6  A    between atoms: C_13  and  C_14 
REMARK    7  A    between atoms: C_14  and  O_15 
REMARK    8  A    between atoms: C_17  and  O_18 
REMARK    9  A    between atoms: C_25  and  C_26 
ROOT
HETATM    1  C   UNL     1      26.843  44.004  52.601  1.00  0.00     0.056 C 
HETATM    2  C   UNL     1      25.441  44.741  52.815  1.00  0.00    -0.030 C 
HETATM    3  C   UNL     1      24.617  43.986  53.898  1.00  0.00     0.016 C 
HETATM    4  C   UNL     1      24.568  44.801  51.476  1.00  0.00     0.012 C 
HETATM    5  C   UNL     1      25.012  45.877  50.390  1.00  0.00     0.008 C 
HETATM    6  C   UNL     1      23.844  46.087  49.380  1.00  0.00     0.020 C 
HETATM    7  C   UNL     1      25.240  47.249  51.098  1.00  0.00     0.128 C 
HETATM    8  C   UNL     1      26.168  47.154  52.302  1.00  0.00     0.033 C 
HETATM    9  C   UNL     1      25.605  46.192  53.334  1.00  0.00     0.013 C 
HETATM   10  C   UNL     1      24.310  43.380  50.903  1.00  0.00     0.054 C 
HETATM   11  C   UNL     1      25.553  42.569  50.921  1.00  0.00     0.010 A 
HETATM   12  C   UNL     1      26.682  42.824  51.664  1.00  0.00     0.054 A 
HETATM   13  N   UNL     1      27.725  41.945  51.443  1.00  0.00    -0.244 NA
HETATM   14  C   UNL     1      27.361  40.991  50.602  1.00  0.00     0.110 A 
HETATM   15  S   UNL     1      25.754  41.160  49.993  1.00  0.00    -0.072 SA
ENDROOT
BRANCH   1  16
HETATM   16  C   UNL     1      27.586  43.538  53.878  1.00  0.00     0.114 C 
BRANCH  16  17
HETATM   17  C   UNL     1      28.710  44.440  54.323  1.00  0.00     0.218 C 
HETATM   18  N   UNL     1      28.321  45.510  55.093  1.00  0.00    -0.359 N 
HETATM   19  H   UNL     1      27.341  45.757  55.157  1.00  0.00     0.162 HD
HETATM   20  O   UNL     1      29.877  44.227  54.013  1.00  0.00    -0.274 OA
BRANCH  18  21
HETATM   21  C   UNL     1      29.289  46.454  55.629  1.00  0.00     0.142 C 
BRANCH  21  22
HETATM   22  C   UNL     1      29.991  45.928  56.886  1.00  0.00     0.142 C 
BRANCH  22  23
HETATM   23  N   UNL     1      30.686  44.670  56.657  1.00  0.00    -0.360 N 
HETATM   24  C   UNL     1      31.496  44.114  57.618  1.00  0.00     0.213 C 
HETATM   25  C   UNL     1      32.109  42.796  57.230  1.00  0.00     0.117 C 
HETATM   26  O   UNL     1      31.707  44.634  58.708  1.00  0.00    -0.274 OA
HETATM   27  H   UNL     1      30.544  44.201  55.773  1.00  0.00     0.162 HD
ENDBRANCH  22  23
ENDBRANCH  21  22
ENDBRANCH  18  21
ENDBRANCH  16  17
ENDBRANCH   1  16
BRANCH   5  28
HETATM   28  C   UNL     1      26.254  45.457  49.555  1.00  0.00     0.176 C 
BRANCH  28  29
HETATM   29  O   UNL     1      27.104  46.561  49.251  1.00  0.00    -0.400 OA
HETATM   30  H   UNL     1      27.259  47.023  50.103  1.00  0.00     0.209 HD
ENDBRANCH  28  29
ENDBRANCH   5  28
BRANCH  14  31
HETATM   31  C   UNL     1      28.238  39.895  50.166  1.00  0.00     0.017 A 
HETATM   32  C   UNL     1      28.327  39.452  48.848  1.00  0.00     0.130 A 
HETATM   33  N   UNL     1      29.129  38.440  48.423  1.00  0.00    -0.272 NA
HETATM   34  C   UNL     1      29.883  37.831  49.360  1.00  0.00     0.116 A 
HETATM   35  C   UNL     1      29.871  38.181  50.699  1.00  0.00     0.020 A 
HETATM   36  C   UNL     1      29.035  39.222  51.101  1.00  0.00     0.017 A 
ENDBRANCH  14  31
BRANCH   7  37
HETATM   37  O   UNL     1      25.793  48.221  50.208  1.00  0.00    -0.395 OA
HETATM   38  H   UNL     1      25.991  47.765  49.368  1.00  0.00     0.210 HD
ENDBRANCH   7  37
TORSDOF 9
ENDMDL
MODEL 2
REMARK VINA RESULT:      -8.7      5.740      9.679
REMARK  9 active torsions:
REMARK  status: ('A' for Active; 'I' for Inactive)
REMARK       I    between atoms: C_2  and  N_3 
REMARK    1  A    between atoms: N_3  and  C_4 
REMARK    2  A    between atoms: C_4  and  C_5 
REMARK    3  A    between atoms: C_5  and  N_6 
REMARK       I    between atoms: N_6  and  C_7 
REMARK    4  A    between atoms: C_7  and  C_8 
REMARK    5  A    between atoms: C_8  and  C_9 
REMARK    6  A    between atoms: C_13  and  C_14 
REMARK    7  A    between atoms: C_14  and  O_15 
REMARK    8  A    between atoms: C_17  and  O_18 
REMARK    9  A    between atoms: C_25  and  C_26 
ROOT
HETATM    1  C   UNL     1      20.375  46.974  47.176  1.00  0.00     0.056 C 
HETATM    2  C   UNL     1      18.999  47.532  46.584  1.00  0.00    -0.030 C 
HETATM    3  C   UNL     1      19.159  47.796  45.059  1.00  0.00     0.016 C 
HETATM    4  C   UNL     1      18.539  48.896  47.281  1.00  0.00     0.012 C 
HETATM    5  C   UNL     1      17.905  48.768  48.736  1.00  0.00     0.008 C 
HETATM    6  C   UNL     1      17.149  50.088  49.075  1.00  0.00     0.020 C 
HETATM    7  C   UNL     1      16.836  47.632  48.727  1.00  0.00     0.128 C 
HETATM    8  C   UNL     1      17.361  46.321  48.155  1.00  0.00     0.033 C 
HETATM    9  C   UNL     1      17.836  46.518  46.725  1.00  0.00     0.013 C 
HETATM   10  C   UNL     1      19.628  49.995  47.150  1.00  0.00     0.054 C 
HETATM   11  C   UNL     1      20.973  49.446  47.454  1.00  0.00     0.010 A 
HETATM   12  C   UNL     1      21.326  48.117  47.469  1.00  0.00     0.054 A 
HETATM   13  N   UNL     1      22.633  47.874  47.849  1.00  0.00    -0.244 NA
HETATM   14  C   UNL     1      23.281  49.011  48.042  1.00  0.00     0.110 A 
HETATM   15  S   UNL     1      22.310  50.424  47.833  1.00  0.00    -0.072 SA
ENDROOT
BRANCH   1  16
HETATM   16  C   UNL     1      21.113  45.905  46.333  1.00  0.00     0.114 C 
BRANCH  16  17
HETATM   17  C   UNL     1      21.489  44.652  47.084  1.00  0.00     0.218 C 
HETATM   18  N   UNL     1      22.723  44.692  47.689  1.00  0.00    -0.359 N 
HETATM   19  H   UNL     1      23.379  45.425  47.453  1.00  0.00     0.162 HD
HETATM   20  O   UNL     1      20.745  43.679  47.142  1.00  0.00    -0.274 OA
BRANCH  18  21
HETATM   21  C   UNL     1      23.218  43.576  48.480  1.00  0.00     0.142 C 
BRANCH  21  22
HETATM   22  C   UNL     1      22.789  43.659  49.949  1.00  0.00     0.142 C 
BRANCH  22  23
HETATM   23  N   UNL     1      23.486  44.707  50.680  1.00  0.00    -0.360 N 
HETATM   24  C   UNL     1      24.602  44.433  51.434  1.00  0.00     0.213 C 
HETATM   25  C   UNL     1      25.219  45.637  52.094  1.00  0.00     0.117 C 
HETATM   26  O   UNL     1      25.070  43.308  51.564  1.00  0.00    -0.274 OA
HETATM   27  H   UNL     1      23.139  45.653  50.604  1.00  0.00     0.162 HD
ENDBRANCH  22  23
ENDBRANCH  21  22
ENDBRANCH  18  21
ENDBRANCH  16  17
ENDBRANCH   1  16
BRANCH   5  28
HETATM   28  C   UNL     1      18.953  48.552  49.865  1.00  0.00     0.176 C 
BRANCH  28  29
HETATM   29  O   UNL     1      18.586  49.202  51.079  1.00  0.00    -0.400 OA
HETATM   30  H   UNL     1      18.553  50.161  50.871  1.00  0.00     0.209 HD
ENDBRANCH  28  29
ENDBRANCH   5  28
BRANCH  14  31
HETATM   31  C   UNL     1      24.691  49.098  48.446  1.00  0.00     0.017 A 
HETATM   32  C   UNL     1      25.594  50.017  47.912  1.00  0.00     0.130 A 
HETATM   33  N   UNL     1      26.902  50.114  48.269  1.00  0.00    -0.272 NA
HETATM   34  C   UNL     1      27.340  49.249  49.206  1.00  0.00     0.116 A 
HETATM   35  C   UNL     1      26.537  48.291  49.798  1.00  0.00     0.020 A 
HETATM   36  C   UNL     1      25.201  48.217  49.408  1.00  0.00     0.017 A 
ENDBRANCH  14  31
BRANCH   7  37
HETATM   37  O   UNL     1      16.341  47.357  50.039  1.00  0.00    -0.395 OA
HETATM   38  H   UNL     1      16.302  48.206  50.518  1.00  0.00     0.210 HD
ENDBRANCH   7  37
TORSDOF 9
ENDMDL
MODEL 3
REMARK VINA RESULT:      -8.6      6.332      9.463
REMARK  9 active torsions:
REMARK  status: ('A' for Active; 'I' for Inactive)
REMARK       I    between atoms: C_2  and  N_3 
REMARK    1  A    between atoms: N_3  and  C_4 
REMARK    2  A    between atoms: C_4  and  C_5 
REMARK    3  A    between atoms: C_5  and  N_6 
REMARK       I    between atoms: N_6  and  C_7 
REMARK    4  A    between atoms: C_7  and  C_8 
REMARK    5  A    between atoms: C_8  and  C_9 
REMARK    6  A    between atoms: C_13  and  C_14 
REMARK    7  A    between atoms: C_14  and  O_15 
REMARK    8  A    between atoms: C_17  and  O_18 
REMARK    9  A    between atoms: C_25  and  C_26 
ROOT
HETATM    1  C   UNL     1      20.797  49.644  48.309  1.00  0.00     0.056 C 
HETATM    2  C   UNL     1      19.530  50.160  49.135  1.00  0.00    -0.030 C 
HETATM    3  C   UNL     1      19.577  49.578  50.578  1.00  0.00     0.016 C 
HETATM    4  C   UNL     1      18.143  49.727  48.467  1.00  0.00     0.012 C 
HETATM    5  C   UNL     1      17.689  50.550  47.182  1.00  0.00     0.008 C 
HETATM    6  C   UNL     1      16.174  50.292  46.927  1.00  0.00     0.020 C 
HETATM    7  C   UNL     1      17.838  52.075  47.476  1.00  0.00     0.128 C 
HETATM    8  C   UNL     1      19.216  52.450  48.006  1.00  0.00     0.033 C 
HETATM    9  C   UNL     1      19.512  51.702  49.295  1.00  0.00     0.013 C 
HETATM   10  C   UNL     1      18.048  48.185  48.308  1.00  0.00     0.054 C 
HETATM   11  C   UNL     1      19.315  47.630  47.770  1.00  0.00     0.010 A 
HETATM   12  C   UNL     1      20.540  48.255  47.762  1.00  0.00     0.054 A 
HETATM   13  N   UNL     1      21.545  47.539  47.138  1.00  0.00    -0.244 NA
HETATM   14  C   UNL     1      21.102  46.355  46.750  1.00  0.00     0.110 A 
HETATM   15  S   UNL     1      19.427  46.085  47.069  1.00  0.00    -0.072 SA
ENDROOT
BRANCH   1  16
HETATM   16  C   UNL     1      22.159  49.653  49.047  1.00  0.00     0.114 C 
BRANCH  16  17
HETATM   17  C   UNL     1      23.346  50.003  48.183  1.00  0.00     0.218 C 
HETATM   18  N   UNL     1      24.570  49.734  48.749  1.00  0.00    -0.359 N 
HETATM   19  H   UNL     1      24.635  49.522  49.736  1.00  0.00     0.162 HD
HETATM   20  O   UNL     1      23.216  50.491  47.066  1.00  0.00    -0.274 OA
BRANCH  18  21
HETATM   21  C   UNL     1      25.810  49.983  48.031  1.00  0.00     0.142 C 
BRANCH  21  22
HETATM   22  C   UNL     1      27.050  49.605  48.849  1.00  0.00     0.142 C 
BRANCH  22  23
HETATM   23  N   UNL     1      27.260  48.167  48.918  1.00  0.00    -0.360 N 
HETATM   24  C   UNL     1      26.636  47.396  49.869  1.00  0.00     0.213 C 
HETATM   25  C   UNL     1      26.937  45.925  49.776  1.00  0.00     0.117 C 
HETATM   26  O   UNL     1      25.889  47.855  50.727  1.00  0.00    -0.274 OA
HETATM   27  H   UNL     1      27.868  47.740  48.232  1.00  0.00     0.162 HD
ENDBRANCH  22  23
ENDBRANCH  21  22
ENDBRANCH  18  21
ENDBRANCH  16  17
ENDBRANCH   1  16
BRANCH   5  28
HETATM   28  C   UNL     1      18.436  50.149  45.879  1.00  0.00     0.176 C 
BRANCH  28  29
HETATM   29  O   UNL     1      17.710  50.506  44.704  1.00  0.00    -0.400 OA
HETATM   30  H   UNL     1      17.915  51.451  44.540  1.00  0.00     0.209 HD
ENDBRANCH  28  29
ENDBRANCH   5  28
BRANCH  14  31
HETATM   31  C   UNL     1      21.926  45.350  46.063  1.00  0.00     0.017 A 
HETATM   32  C   UNL     1      22.633  44.346  46.722  1.00  0.00     0.130 A 
HETATM   33  N   UNL     1      23.401  43.408  46.107  1.00  0.00    -0.272 NA
HETATM   34  C   UNL     1      23.477  43.473  44.763  1.00  0.00     0.116 A 
HETATM   35  C   UNL     1      22.826  44.431  44.005  1.00  0.00     0.020 A 
HETATM   36  C   UNL     1      22.047  45.379  44.668  1.00  0.00     0.017 A 
ENDBRANCH  14  31
BRANCH   7  37
HETATM   37  O   UNL     1      17.598  52.867  46.311  1.00  0.00    -0.395 OA
HETATM   38  H   UNL     1      16.715  53.269  46.411  1.00  0.00     0.210 HD
ENDBRANCH   7  37
TORSDOF 9
ENDMDL
MODEL 4
REMARK VINA RESULT:      -8.5      8.334     12.348
REMARK  9 active torsions:
REMARK  status: ('A' for Active; 'I' for Inactive)
REMARK       I    between atoms: C_2  and  N_3 
REMARK    1  A    between atoms: N_3  and  C_4 
REMARK    2  A    between atoms: C_4  and  C_5 
REMARK    3  A    between atoms: C_5  and  N_6 
REMARK       I    between atoms: N_6  and  C_7 
REMARK    4  A    between atoms: C_7  and  C_8 
REMARK    5  A    between atoms: C_8  and  C_9 
REMARK    6  A    between atoms: C_13  and  C_14 
REMARK    7  A    between atoms: C_14  and  O_15 
REMARK    8  A    between atoms: C_17  and  O_18 
REMARK    9  A    between atoms: C_25  and  C_26 
ROOT
HETATM    1  C   UNL     1      19.751  49.455  48.749  1.00  0.00     0.056 C 
HETATM    2  C   UNL     1      18.523  48.469  49.018  1.00  0.00    -0.030 C 
HETATM    3  C   UNL     1      18.352  48.258  50.551  1.00  0.00     0.016 C 
HETATM    4  C   UNL     1      18.724  47.036  48.337  1.00  0.00     0.012 C 
HETATM    5  C   UNL     1      18.489  46.961  46.764  1.00  0.00     0.008 C 
HETATM    6  C   UNL     1      18.314  45.469  46.351  1.00  0.00     0.020 C 
HETATM    7  C   UNL     1      17.149  47.680  46.416  1.00  0.00     0.128 C 
HETATM    8  C   UNL     1      17.056  49.085  46.997  1.00  0.00     0.033 C 
HETATM    9  C   UNL     1      17.175  49.043  48.511  1.00  0.00     0.013 C 
HETATM   10  C   UNL     1      20.034  46.357  48.823  1.00  0.00     0.054 C 
HETATM   11  C   UNL     1      21.162  47.322  48.825  1.00  0.00     0.010 A 
HETATM   12  C   UNL     1      21.060  48.694  48.795  1.00  0.00     0.054 A 
HETATM   13  N   UNL     1      22.271  49.358  48.737  1.00  0.00    -0.244 NA
HETATM   14  C   UNL     1      23.276  48.501  48.802  1.00  0.00     0.110 A 
HETATM   15  S   UNL     1      22.792  46.845  48.871  1.00  0.00    -0.072 SA
ENDROOT
BRANCH   1  16
HETATM   16  C   UNL     1      19.857  50.700  49.664  1.00  0.00     0.114 C 
BRANCH  16  17
HETATM   17  C   UNL     1      18.957  51.849  49.281  1.00  0.00     0.218 C 
HETATM   18  N   UNL     1      17.796  51.940  50.012  1.00  0.00    -0.359 N 
HETATM   19  H   UNL     1      17.505  51.168  50.597  1.00  0.00     0.162 HD
HETATM   20  O   UNL     1      19.249  52.632  48.384  1.00  0.00    -0.274 OA
BRANCH  18  21
HETATM   21  C   UNL     1      16.839  53.012  49.787  1.00  0.00     0.142 C 
BRANCH  21  22
HETATM   22  C   UNL     1      15.433  52.490  49.471  1.00  0.00     0.142 C 
BRANCH  22  23
HETATM   23  N   UNL     1      14.493  53.557  49.163  1.00  0.00    -0.360 N 
HETATM   24  C   UNL     1      13.517  53.931  50.055  1.00  0.00     0.213 C 
HETATM   25  C   UNL     1      12.654  55.074  49.591  1.00  0.00     0.117 C 
HETATM   26  O   UNL     1      13.352  53.390  51.143  1.00  0.00    -0.274 OA
HETATM   27  H   UNL     1      14.588  54.035  48.277  1.00  0.00     0.162 HD
ENDBRANCH  22  23
ENDBRANCH  21  22
ENDBRANCH  18  21
ENDBRANCH  16  17
ENDBRANCH   1  16
BRANCH   5  28
HETATM   28  C   UNL     1      19.669  47.522  45.922  1.00  0.00     0.176 C 
BRANCH  28  29
HETATM   29  O   UNL     1      19.891  46.772  44.729  1.00  0.00    -0.400 OA
HETATM   30  H   UNL     1      19.558  47.331  43.995  1.00  0.00     0.209 HD
ENDBRANCH  28  29
ENDBRANCH   5  28
BRANCH  14  31
HETATM   31  C   UNL     1      24.694  48.888  48.774  1.00  0.00     0.017 A 
HETATM   32  C   UNL     1      25.199  49.919  47.984  1.00  0.00     0.130 A 
HETATM   33  N   UNL     1      26.505  50.292  47.941  1.00  0.00    -0.272 NA
HETATM   34  C   UNL     1      27.360  49.601  48.722  1.00  0.00     0.116 A 
HETATM   35  C   UNL     1      26.972  48.554  49.540  1.00  0.00     0.020 A 
HETATM   36  C   UNL     1      25.625  48.195  49.559  1.00  0.00     0.017 A 
ENDBRANCH  14  31
BRANCH   7  37
HETATM   37  O   UNL     1      16.956  47.788  45.005  1.00  0.00    -0.395 OA
HETATM   38  H   UNL     1      16.044  48.103  44.860  1.00  0.00     0.210 HD
ENDBRANCH   7  37
TORSDOF 9
ENDMDL
MODEL 5
REMARK VINA RESULT:      -8.2      8.654     12.787
REMARK  9 active torsions:
REMARK  status: ('A' for Active; 'I' for Inactive)
REMARK       I    between atoms: C_2  and  N_3 
REMARK    1  A    between atoms: N_3  and  C_4 
REMARK    2  A    between atoms: C_4  and  C_5 
REMARK    3  A    between atoms: C_5  and  N_6 
REMARK       I    between atoms: N_6  and  C_7 
REMARK    4  A    between atoms: C_7  and  C_8 
REMARK    5  A    between atoms: C_8  and  C_9 
REMARK    6  A    between atoms: C_13  and  C_14 
REMARK    7  A    between atoms: C_14  and  O_15 
REMARK    8  A    between atoms: C_17  and  O_18 
REMARK    9  A    between atoms: C_25  and  C_26 
ROOT
HETATM    1  C   UNL     1      17.961  48.302  46.898  1.00  0.00     0.056 C 
HETATM    2  C   UNL     1      17.113  48.762  48.171  1.00  0.00    -0.030 C 
HETATM    3  C   UNL     1      15.605  48.459  47.929  1.00  0.00     0.016 C 
HETATM    4  C   UNL     1      17.264  50.323  48.480  1.00  0.00     0.012 C 
HETATM    5  C   UNL     1      18.624  50.778  49.173  1.00  0.00     0.008 C 
HETATM    6  C   UNL     1      18.433  52.206  49.768  1.00  0.00     0.020 C 
HETATM    7  C   UNL     1      18.923  49.831  50.376  1.00  0.00     0.128 C 
HETATM    8  C   UNL     1      18.875  48.355  50.001  1.00  0.00     0.033 C 
HETATM    9  C   UNL     1      17.504  47.989  49.457  1.00  0.00     0.013 C 
HETATM   10  C   UNL     1      16.847  51.186  47.258  1.00  0.00     0.054 C 
HETATM   11  C   UNL     1      17.420  50.637  46.003  1.00  0.00     0.010 A 
HETATM   12  C   UNL     1      17.916  49.367  45.821  1.00  0.00     0.054 A 
HETATM   13  N   UNL     1      18.453  49.135  44.568  1.00  0.00    -0.244 NA
HETATM   14  C   UNL     1      18.293  50.192  43.790  1.00  0.00     0.110 A 
HETATM   15  S   UNL     1      17.541  51.538  44.567  1.00  0.00    -0.072 SA
ENDROOT
BRANCH   1  16
HETATM   16  C   UNL     1      17.592  46.934  46.272  1.00  0.00     0.114 C 
BRANCH  16  17
HETATM   17  C   UNL     1      18.193  45.736  46.965  1.00  0.00     0.218 C 
HETATM   18  N   UNL     1      19.513  45.878  47.320  1.00  0.00    -0.359 N 
HETATM   19  H   UNL     1      20.059  46.643  46.944  1.00  0.00     0.162 HD
HETATM   20  O   UNL     1      17.543  44.720  47.187  1.00  0.00    -0.274 OA
BRANCH  18  21
HETATM   21  C   UNL     1      20.228  44.825  48.025  1.00  0.00     0.142 C 
BRANCH  21  22
HETATM   22  C   UNL     1      21.746  45.036  48.017  1.00  0.00     0.142 C 
BRANCH  22  23
HETATM   23  N   UNL     1      22.161  46.159  48.843  1.00  0.00    -0.360 N 
HETATM   24  C   UNL     1      22.344  47.412  48.310  1.00  0.00     0.213 C 
HETATM   25  C   UNL     1      22.740  48.464  49.311  1.00  0.00     0.117 C 
HETATM   26  O   UNL     1      22.197  47.668  47.120  1.00  0.00    -0.274 OA
HETATM   27  H   UNL     1      22.296  45.999  49.833  1.00  0.00     0.162 HD
ENDBRANCH  22  23
ENDBRANCH  21  22
ENDBRANCH  18  21
ENDBRANCH  16  17
ENDBRANCH   1  16
BRANCH   5  28
HETATM   28  C   UNL     1      19.833  50.859  48.199  1.00  0.00     0.176 C 
BRANCH  28  29
HETATM   29  O   UNL     1      20.881  51.686  48.701  1.00  0.00    -0.400 OA
HETATM   30  H   UNL     1      21.681  51.448  48.185  1.00  0.00     0.209 HD
ENDBRANCH  28  29
ENDBRANCH   5  28
BRANCH  14  31
HETATM   31  C   UNL     1      18.747  50.265  42.393  1.00  0.00     0.017 A 
HETATM   32  C   UNL     1      19.098  49.150  41.634  1.00  0.00     0.130 A 
HETATM   33  N   UNL     1      19.521  49.194  40.344  1.00  0.00    -0.272 NA
HETATM   34  C   UNL     1      19.605  50.413  39.774  1.00  0.00     0.116 A 
HETATM   35  C   UNL     1      19.291  51.588  40.434  1.00  0.00     0.020 A 
HETATM   36  C   UNL     1      18.862  51.508  41.758  1.00  0.00     0.017 A 
ENDBRANCH  14  31
BRANCH   7  37
HETATM   37  O   UNL     1      20.209  50.085  50.944  1.00  0.00    -0.395 OA
HETATM   38  H   UNL     1      20.276  49.553  51.759  1.00  0.00     0.210 HD
ENDBRANCH   7  37
TORSDOF 9
ENDMDL
MODEL 6
REMARK VINA RESULT:      -8.1     15.886     18.584
REMARK  9 active torsions:
REMARK  status: ('A' for Active; 'I' for Inactive)
REMARK       I    between atoms: C_2  and  N_3 
REMARK    1  A    between atoms: N_3  and  C_4 
REMARK    2  A    between atoms: C_4  and  C_5 
REMARK    3  A    between atoms: C_5  and  N_6 
REMARK       I    between atoms: N_6  and  C_7 
REMARK    4  A    between atoms: C_7  and  C_8 
REMARK    5  A    between atoms: C_8  and  C_9 
REMARK    6  A    between atoms: C_13  and  C_14 
REMARK    7  A    between atoms: C_14  and  O_15 
REMARK    8  A    between atoms: C_17  and  O_18 
REMARK    9  A    between atoms: C_25  and  C_26 
ROOT
HETATM    1  C   UNL     1      36.574  53.460  39.929  1.00  0.00     0.056 C 
HETATM    2  C   UNL     1      37.888  52.559  40.053  1.00  0.00    -0.030 C 
HETATM    3  C   UNL     1      38.200  51.903  38.676  1.00  0.00     0.016 C 
HETATM    4  C   UNL     1      37.734  51.393  41.137  1.00  0.00     0.012 C 
HETATM    5  C   UNL     1      37.842  51.829  42.665  1.00  0.00     0.008 C 
HETATM    6  C   UNL     1      38.090  50.561  43.535  1.00  0.00     0.020 C 
HETATM    7  C   UNL     1      39.094  52.744  42.844  1.00  0.00     0.128 C 
HETATM    8  C   UNL     1      39.134  53.904  41.858  1.00  0.00     0.033 C 
HETATM    9  C   UNL     1      39.144  53.386  40.429  1.00  0.00     0.013 C 
HETATM   10  C   UNL     1      36.522  50.477  40.816  1.00  0.00     0.054 C 
HETATM   11  C   UNL     1      35.332  51.284  40.447  1.00  0.00     0.010 A 
HETATM   12  C   UNL     1      35.332  52.601  40.051  1.00  0.00     0.054 A 
HETATM   13  N   UNL     1      34.076  53.133  39.828  1.00  0.00    -0.244 NA
HETATM   14  C   UNL     1      33.144  52.207  39.979  1.00  0.00     0.110 A 
HETATM   15  S   UNL     1      33.750  50.663  40.461  1.00  0.00    -0.072 SA
ENDROOT
BRANCH   1  16
HETATM   16  C   UNL     1      36.455  54.346  38.664  1.00  0.00     0.114 C 
BRANCH  16  17
HETATM   17  C   UNL     1      36.223  55.812  38.936  1.00  0.00     0.218 C 
HETATM   18  N   UNL     1      34.908  56.209  38.874  1.00  0.00    -0.359 N 
HETATM   19  H   UNL     1      34.213  55.594  38.471  1.00  0.00     0.162 HD
HETATM   20  O   UNL     1      37.144  56.580  39.189  1.00  0.00    -0.274 OA
BRANCH  18  21
HETATM   21  C   UNL     1      34.515  57.583  39.145  1.00  0.00     0.142 C 
BRANCH  21  22
HETATM   22  C   UNL     1      33.407  57.682  40.198  1.00  0.00     0.142 C 
BRANCH  22  23
HETATM   23  N   UNL     1      32.835  59.017  40.288  1.00  0.00    -0.360 N 
HETATM   24  C   UNL     1      31.633  59.240  40.915  1.00  0.00     0.213 C 
HETATM   25  C   UNL     1      31.206  60.683  40.948  1.00  0.00     0.117 C 
HETATM   26  O   UNL     1      30.955  58.349  41.414  1.00  0.00    -0.274 OA
HETATM   27  H   UNL     1      33.356  59.787  39.892  1.00  0.00     0.162 HD
ENDBRANCH  22  23
ENDBRANCH  21  22
ENDBRANCH  18  21
ENDBRANCH  16  17
ENDBRANCH   1  16
BRANCH   5  28
HETATM   28  C   UNL     1      36.559  52.508  43.220  1.00  0.00     0.176 C 
BRANCH  28  29
HETATM   29  O   UNL     1      36.276  52.120  44.563  1.00  0.00    -0.400 OA
HETATM   30  H   UNL     1      36.536  52.883  45.123  1.00  0.00     0.209 HD
ENDBRANCH  28  29
ENDBRANCH   5  28
BRANCH  14  31
HETATM   31  C   UNL     1      31.704  52.448  39.804  1.00  0.00     0.017 A 
HETATM   32  C   UNL     1      30.928  51.828  38.827  1.00  0.00     0.130 A 
HETATM   33  N   UNL     1      29.597  52.037  38.646  1.00  0.00    -0.272 NA
HETATM   34  C   UNL     1      29.003  52.914  39.480  1.00  0.00     0.116 A 
HETATM   35  C   UNL     1      29.675  53.593  40.481  1.00  0.00     0.020 A 
HETATM   36  C   UNL     1      31.040  53.357  40.638  1.00  0.00     0.017 A 
ENDBRANCH  14  31
BRANCH   7  37
HETATM   37  O   UNL     1      39.161  53.300  44.159  1.00  0.00    -0.395 OA
HETATM   38  H   UNL     1      39.340  54.254  44.062  1.00  0.00     0.210 HD
ENDBRANCH   7  37
TORSDOF 9
ENDMDL
MODEL 7
REMARK VINA RESULT:      -8.0      9.106     13.107
REMARK  9 active torsions:
REMARK  status: ('A' for Active; 'I' for Inactive)
REMARK       I    between atoms: C_2  and  N_3 
REMARK    1  A    between atoms: N_3  and  C_4 
REMARK    2  A    between atoms: C_4  and  C_5 
REMARK    3  A    between atoms: C_5  and  N_6 
REMARK       I    between atoms: N_6  and  C_7 
REMARK    4  A    between atoms: C_7  and  C_8 
REMARK    5  A    between atoms: C_8  and  C_9 
REMARK    6  A    between atoms: C_13  and  C_14 
REMARK    7  A    between atoms: C_14  and  O_15 
REMARK    8  A    between atoms: C_17  and  O_18 
REMARK    9  A    between atoms: C_25  and  C_26 
ROOT
HETATM    1  C   UNL     1      17.921  49.272  48.253  1.00  0.00     0.056 C 
HETATM    2  C   UNL     1      16.724  48.285  47.872  1.00  0.00    -0.030 C 
HETATM    3  C   UNL     1      16.480  47.288  49.042  1.00  0.00     0.016 C 
HETATM    4  C   UNL     1      17.023  47.437  46.549  1.00  0.00     0.012 C 
HETATM    5  C   UNL     1      16.877  48.211  45.165  1.00  0.00     0.008 C 
HETATM    6  C   UNL     1      16.788  47.168  44.011  1.00  0.00     0.020 C 
HETATM    7  C   UNL     1      15.528  48.995  45.162  1.00  0.00     0.128 C 
HETATM    8  C   UNL     1      15.343  49.873  46.393  1.00  0.00     0.033 C 
HETATM    9  C   UNL     1      15.383  49.031  47.657  1.00  0.00     0.013 C 
HETATM   10  C   UNL     1      18.333  46.613  46.688  1.00  0.00     0.054 C 
HETATM   11  C   UNL     1      19.416  47.437  47.280  1.00  0.00     0.010 A 
HETATM   12  C   UNL     1      19.258  48.613  47.977  1.00  0.00     0.054 A 
HETATM   13  N   UNL     1      20.440  49.215  48.364  1.00  0.00    -0.244 NA
HETATM   14  C   UNL     1      21.476  48.462  48.032  1.00  0.00     0.110 A 
HETATM   15  S   UNL     1      21.061  47.021  47.177  1.00  0.00    -0.072 SA
ENDROOT
BRANCH   1  16
HETATM   16  C   UNL     1      17.925  49.838  49.695  1.00  0.00     0.114 C 
BRANCH  16  17
HETATM   17  C   UNL     1      17.757  51.334  49.790  1.00  0.00     0.218 C 
HETATM   18  N   UNL     1      16.471  51.783  49.608  1.00  0.00    -0.359 N 
HETATM   19  H   UNL     1      15.766  51.160  49.234  1.00  0.00     0.162 HD
HETATM   20  O   UNL     1      18.704  52.082  50.012  1.00  0.00    -0.274 OA
BRANCH  18  21
HETATM   21  C   UNL     1      16.138  53.196  49.703  1.00  0.00     0.142 C 
BRANCH  21  22
HETATM   22  C   UNL     1      15.032  53.473  50.727  1.00  0.00     0.142 C 
BRANCH  22  23
HETATM   23  N   UNL     1      15.395  54.513  51.677  1.00  0.00    -0.360 N 
HETATM   24  C   UNL     1      14.437  55.221  52.365  1.00  0.00     0.213 C 
HETATM   25  C   UNL     1      14.986  56.234  53.332  1.00  0.00     0.117 C 
HETATM   26  O   UNL     1      13.233  55.048  52.215  1.00  0.00    -0.274 OA
HETATM   27  H   UNL     1      16.377  54.694  51.836  1.00  0.00     0.162 HD
ENDBRANCH  22  23
ENDBRANCH  21  22
ENDBRANCH  18  21
ENDBRANCH  16  17
ENDBRANCH   1  16
BRANCH   5  28
HETATM   28  C   UNL     1      18.076  49.143  44.833  1.00  0.00     0.176 C 
BRANCH  28  29
HETATM   29  O   UNL     1      18.672  48.836  43.574  1.00  0.00    -0.400 OA
HETATM   30  H   UNL     1      18.010  48.297  43.089  1.00  0.00     0.209 HD
ENDBRANCH  28  29
ENDBRANCH   5  28
BRANCH  14  31
HETATM   31  C   UNL     1      22.876  48.815  48.311  1.00  0.00     0.017 A 
HETATM   32  C   UNL     1      23.700  48.092  49.171  1.00  0.00     0.130 A 
HETATM   33  N   UNL     1      24.995  48.401  49.444  1.00  0.00    -0.272 NA
HETATM   34  C   UNL     1      25.500  49.491  48.833  1.00  0.00     0.116 A 
HETATM   35  C   UNL     1      24.773  50.288  47.967  1.00  0.00     0.020 A 
HETATM   36  C   UNL     1      23.446  49.944  47.710  1.00  0.00     0.017 A 
ENDBRANCH  14  31
BRANCH   7  37
HETATM   37  O   UNL     1      15.407  49.838  44.014  1.00  0.00    -0.395 OA
HETATM   38  H   UNL     1      14.521  49.687  43.636  1.00  0.00     0.210 HD
ENDBRANCH   7  37
TORSDOF 9
ENDMDL
MODEL 8
REMARK VINA RESULT:      -7.9     12.154     14.547
REMARK  9 active torsions:
REMARK  status: ('A' for Active; 'I' for Inactive)
REMARK       I    between atoms: C_2  and  N_3 
REMARK    1  A    between atoms: N_3  and  C_4 
REMARK    2  A    between atoms: C_4  and  C_5 
REMARK    3  A    between atoms: C_5  and  N_6 
REMARK       I    between atoms: N_6  and  C_7 
REMARK    4  A    between atoms: C_7  and  C_8 
REMARK    5  A    between atoms: C_8  and  C_9 
REMARK    6  A    between atoms: C_13  and  C_14 
REMARK    7  A    between atoms: C_14  and  O_15 
REMARK    8  A    between atoms: C_17  and  O_18 
REMARK    9  A    between atoms: C_25  and  C_26 
ROOT
HETATM    1  C   UNL     1      29.364  47.040  39.585  1.00  0.00     0.056 C 
HETATM    2  C   UNL     1      28.524  46.021  38.685  1.00  0.00    -0.030 C 
HETATM    3  C   UNL     1      29.199  45.884  37.289  1.00  0.00     0.016 C 
HETATM    4  C   UNL     1      27.013  46.496  38.465  1.00  0.00     0.012 C 
HETATM    5  C   UNL     1      26.021  46.290  39.692  1.00  0.00     0.008 C 
HETATM    6  C   UNL     1      24.553  46.404  39.179  1.00  0.00     0.020 C 
HETATM    7  C   UNL     1      26.188  44.839  40.243  1.00  0.00     0.128 C 
HETATM    8  C   UNL     1      27.637  44.476  40.541  1.00  0.00     0.033 C 
HETATM    9  C   UNL     1      28.484  44.592  39.285  1.00  0.00     0.013 C 
HETATM   10  C   UNL     1      26.951  47.908  37.820  1.00  0.00     0.054 C 
HETATM   11  C   UNL     1      27.912  48.831  38.475  1.00  0.00     0.010 A 
HETATM   12  C   UNL     1      28.984  48.470  39.256  1.00  0.00     0.054 A 
HETATM   13  N   UNL     1      29.681  49.533  39.801  1.00  0.00    -0.244 NA
HETATM   14  C   UNL     1      29.188  50.683  39.371  1.00  0.00     0.110 A 
HETATM   15  S   UNL     1      27.814  50.522  38.338  1.00  0.00    -0.072 SA
ENDROOT
BRANCH   1  16
HETATM   16  C   UNL     1      30.905  46.902  39.540  1.00  0.00     0.114 C 
BRANCH  16  17
HETATM   17  C   UNL     1      31.621  47.360  40.787  1.00  0.00     0.218 C 
HETATM   18  N   UNL     1      30.835  48.043  41.684  1.00  0.00    -0.359 N 
HETATM   19  H   UNL     1      29.921  48.377  41.405  1.00  0.00     0.162 HD
HETATM   20  O   UNL     1      32.812  47.135  40.973  1.00  0.00    -0.274 OA
BRANCH  18  21
HETATM   21  C   UNL     1      31.368  48.522  42.951  1.00  0.00     0.142 C 
BRANCH  21  22
HETATM   22  C   UNL     1      31.896  49.958  42.863  1.00  0.00     0.142 C 
BRANCH  22  23
HETATM   23  N   UNL     1      33.269  50.023  42.387  1.00  0.00    -0.360 N 
HETATM   24  C   UNL     1      34.089  51.079  42.707  1.00  0.00     0.213 C 
HETATM   25  C   UNL     1      35.487  50.970  42.161  1.00  0.00     0.117 C 
HETATM   26  O   UNL     1      33.725  52.036  43.382  1.00  0.00    -0.274 OA
HETATM   27  H   UNL     1      33.617  49.257  41.826  1.00  0.00     0.162 HD
ENDBRANCH  22  23
ENDBRANCH  21  22
ENDBRANCH  18  21
ENDBRANCH  16  17
ENDBRANCH   1  16
BRANCH   5  28
HETATM   28  C   UNL     1      26.182  47.347  40.820  1.00  0.00     0.176 C 
BRANCH  28  29
HETATM   29  O   UNL     1      24.937  47.695  41.423  1.00  0.00    -0.400 OA
HETATM   30  H   UNL     1      24.342  47.943  40.683  1.00  0.00     0.209 HD
ENDBRANCH  28  29
ENDBRANCH   5  28
BRANCH  14  31
HETATM   31  C   UNL     1      29.711  52.001  39.757  1.00  0.00     0.017 A 
HETATM   32  C   UNL     1      28.969  53.179  39.688  1.00  0.00     0.130 A 
HETATM   33  N   UNL     1      29.432  54.408  40.037  1.00  0.00    -0.272 NA
HETATM   34  C   UNL     1      30.705  54.473  40.478  1.00  0.00     0.116 A 
HETATM   35  C   UNL     1      31.536  53.371  40.580  1.00  0.00     0.020 A 
HETATM   36  C   UNL     1      31.030  52.126  40.211  1.00  0.00     0.017 A 
ENDBRANCH  14  31
BRANCH   7  37
HETATM   37  O   UNL     1      25.441  44.638  41.444  1.00  0.00    -0.395 OA
HETATM   38  H   UNL     1      25.346  43.675  41.568  1.00  0.00     0.210 HD
ENDBRANCH   7  37
TORSDOF 9
ENDMDL
MODEL 9
REMARK VINA RESULT:      -7.8     13.272     15.350
REMARK  9 active torsions:
REMARK  status: ('A' for Active; 'I' for Inactive)
REMARK       I    between atoms: C_2  and  N_3 
REMARK    1  A    between atoms: N_3  and  C_4 
REMARK    2  A    between atoms: C_4  and  C_5 
REMARK    3  A    between atoms: C_5  and  N_6 
REMARK       I    between atoms: N_6  and  C_7 
REMARK    4  A    between atoms: C_7  and  C_8 
REMARK    5  A    between atoms: C_8  and  C_9 
REMARK    6  A    between atoms: C_13  and  C_14 
REMARK    7  A    between atoms: C_14  and  O_15 
REMARK    8  A    between atoms: C_17  and  O_18 
REMARK    9  A    between atoms: C_25  and  C_26 
ROOT
HETATM    1  C   UNL     1      31.273  50.362  41.612  1.00  0.00     0.056 C 
HETATM    2  C   UNL     1      30.284  49.271  40.990  1.00  0.00    -0.030 C 
HETATM    3  C   UNL     1      31.041  47.923  40.816  1.00  0.00     0.016 C 
HETATM    4  C   UNL     1      29.707  49.707  39.564  1.00  0.00     0.012 C 
HETATM    5  C   UNL     1      28.553  50.804  39.573  1.00  0.00     0.008 C 
HETATM    6  C   UNL     1      27.838  50.796  38.189  1.00  0.00     0.020 C 
HETATM    7  C   UNL     1      27.479  50.403  40.631  1.00  0.00     0.128 C 
HETATM    8  C   UNL     1      28.071  50.106  42.003  1.00  0.00     0.033 C 
HETATM    9  C   UNL     1      29.076  48.969  41.913  1.00  0.00     0.013 C 
HETATM   10  C   UNL     1      30.851  49.987  38.551  1.00  0.00     0.054 C 
HETATM   11  C   UNL     1      31.923  50.800  39.177  1.00  0.00     0.010 A 
HETATM   12  C   UNL     1      32.130  50.978  40.525  1.00  0.00     0.054 A 
HETATM   13  N   UNL     1      33.164  51.841  40.838  1.00  0.00    -0.244 NA
HETATM   14  C   UNL     1      33.780  52.247  39.741  1.00  0.00     0.110 A 
HETATM   15  S   UNL     1      33.088  51.650  38.276  1.00  0.00    -0.072 SA
ENDROOT
BRANCH   1  16
HETATM   16  C   UNL     1      32.186  49.893  42.772  1.00  0.00     0.114 C 
BRANCH  16  17
HETATM   17  C   UNL     1      32.731  51.001  43.638  1.00  0.00     0.218 C 
HETATM   18  N   UNL     1      34.082  51.220  43.512  1.00  0.00    -0.359 N 
HETATM   19  H   UNL     1      34.662  50.543  43.034  1.00  0.00     0.162 HD
HETATM   20  O   UNL     1      32.014  51.647  44.395  1.00  0.00    -0.274 OA
BRANCH  18  21
HETATM   21  C   UNL     1      34.754  52.276  44.255  1.00  0.00     0.142 C 
BRANCH  21  22
HETATM   22  C   UNL     1      36.248  52.368  43.926  1.00  0.00     0.142 C 
BRANCH  22  23
HETATM   23  N   UNL     1      36.870  53.564  44.474  1.00  0.00    -0.360 N 
HETATM   24  C   UNL     1      37.730  53.498  45.544  1.00  0.00     0.213 C 
HETATM   25  C   UNL     1      38.311  54.823  45.959  1.00  0.00     0.117 C 
HETATM   26  O   UNL     1      38.013  52.453  46.120  1.00  0.00    -0.274 OA
HETATM   27  H   UNL     1      36.669  54.451  44.033  1.00  0.00     0.162 HD
ENDBRANCH  22  23
ENDBRANCH  21  22
ENDBRANCH  18  21
ENDBRANCH  16  17
ENDBRANCH   1  16
BRANCH   5  28
HETATM   28  C   UNL     1      29.062  52.255  39.804  1.00  0.00     0.176 C 
BRANCH  28  29
HETATM   29  O   UNL     1      29.022  53.041  38.615  1.00  0.00    -0.400 OA
HETATM   30  H   UNL     1      29.571  53.833  38.798  1.00  0.00     0.209 HD
ENDBRANCH  28  29
ENDBRANCH   5  28
BRANCH  14  31
HETATM   31  C   UNL     1      34.928  53.165  39.731  1.00  0.00     0.017 A 
HETATM   32  C   UNL     1      36.161  52.869  40.309  1.00  0.00     0.130 A 
HETATM   33  N   UNL     1      37.235  53.703  40.313  1.00  0.00    -0.272 NA
HETATM   34  C   UNL     1      37.075  54.900  39.713  1.00  0.00     0.116 A 
HETATM   35  C   UNL     1      35.894  55.305  39.115  1.00  0.00     0.020 A 
HETATM   36  C   UNL     1      34.812  54.426  39.130  1.00  0.00     0.017 A 
ENDBRANCH  14  31
BRANCH   7  37
HETATM   37  O   UNL     1      26.495  51.425  40.803  1.00  0.00    -0.395 OA
HETATM   38  H   UNL     1      25.682  50.994  41.127  1.00  0.00     0.210 HD
ENDBRANCH   7  37
TORSDOF 9
ENDMDL
MODEL 10
REMARK VINA RESULT:      -7.8     15.978     17.949
REMARK  9 active torsions:
REMARK  status: ('A' for Active; 'I' for Inactive)
REMARK       I    between atoms: C_2  and  N_3 
REMARK    1  A    between atoms: N_3  and  C_4 
REMARK    2  A    between atoms: C_4  and  C_5 
REMARK    3  A    between atoms: C_5  and  N_6 
REMARK       I    between atoms: N_6  and  C_7 
REMARK    4  A    between atoms: C_7  and  C_8 
REMARK    5  A    between atoms: C_8  and  C_9 
REMARK    6  A    between atoms: C_13  and  C_14 
REMARK    7  A    between atoms: C_14  and  O_15 
REMARK    8  A    between atoms: C_17  and  O_18 
REMARK    9  A    between atoms: C_25  and  C_26 
ROOT
HETATM    1  C   UNL     1      37.073  45.239  65.783  1.00  0.00     0.056 C 
HETATM    2  C   UNL     1      37.166  46.825  65.611  1.00  0.00    -0.030 C 
HETATM    3  C   UNL     1      36.659  47.224  64.194  1.00  0.00     0.016 C 
HETATM    4  C   UNL     1      38.658  47.375  65.779  1.00  0.00     0.012 C 
HETATM    5  C   UNL     1      39.215  47.466  67.268  1.00  0.00     0.008 C 
HETATM    6  C   UNL     1      40.472  48.387  67.282  1.00  0.00     0.020 C 
HETATM    7  C   UNL     1      38.145  48.158  68.169  1.00  0.00     0.128 C 
HETATM    8  C   UNL     1      36.765  47.524  68.053  1.00  0.00     0.033 C 
HETATM    9  C   UNL     1      36.269  47.587  66.619  1.00  0.00     0.013 C 
HETATM   10  C   UNL     1      39.629  46.699  64.772  1.00  0.00     0.054 C 
HETATM   11  C   UNL     1      39.400  45.233  64.719  1.00  0.00     0.010 A 
HETATM   12  C   UNL     1      38.279  44.568  65.157  1.00  0.00     0.054 A 
HETATM   13  N   UNL     1      38.350  43.191  65.051  1.00  0.00    -0.244 NA
HETATM   14  C   UNL     1      39.479  42.827  64.467  1.00  0.00     0.110 A 
HETATM   15  S   UNL     1      40.533  44.140  64.080  1.00  0.00    -0.072 SA
ENDROOT
BRANCH   1  16
HETATM   16  C   UNL     1      35.785  44.557  65.260  1.00  0.00     0.114 C 
BRANCH  16  17
HETATM   17  C   UNL     1      35.161  43.565  66.210  1.00  0.00     0.218 C 
HETATM   18  N   UNL     1      34.530  44.125  67.296  1.00  0.00    -0.359 N 
HETATM   19  H   UNL     1      34.676  45.102  67.517  1.00  0.00     0.162 HD
HETATM   20  O   UNL     1      35.220  42.355  66.019  1.00  0.00    -0.274 OA
BRANCH  18  21
HETATM   21  C   UNL     1      33.850  43.305  68.287  1.00  0.00     0.142 C 
BRANCH  21  22
HETATM   22  C   UNL     1      32.453  42.869  67.832  1.00  0.00     0.142 C 
BRANCH  22  23
HETATM   23  N   UNL     1      31.658  42.313  68.915  1.00  0.00    -0.360 N 
HETATM   24  C   UNL     1      30.833  43.104  69.678  1.00  0.00     0.213 C 
HETATM   25  C   UNL     1      30.057  42.361  70.733  1.00  0.00     0.117 C 
HETATM   26  O   UNL     1      30.726  44.315  69.523  1.00  0.00    -0.274 OA
HETATM   27  H   UNL     1      31.711  41.317  69.084  1.00  0.00     0.162 HD
ENDBRANCH  22  23
ENDBRANCH  21  22
ENDBRANCH  18  21
ENDBRANCH  16  17
ENDBRANCH   1  16
BRANCH   5  28
HETATM   28  C   UNL     1      39.657  46.099  67.862  1.00  0.00     0.176 C 
BRANCH  28  29
HETATM   29  O   UNL     1      40.658  46.241  68.869  1.00  0.00    -0.400 OA
HETATM   30  H   UNL     1      41.437  45.742  68.544  1.00  0.00     0.209 HD
ENDBRANCH  28  29
ENDBRANCH   5  28
BRANCH  14  31
HETATM   31  C   UNL     1      39.857  41.432  64.198  1.00  0.00     0.017 A 
HETATM   32  C   UNL     1      40.799  40.727  64.945  1.00  0.00     0.130 A 
HETATM   33  N   UNL     1      41.164  39.439  64.713  1.00  0.00    -0.272 NA
HETATM   34  C   UNL     1      40.564  38.815  63.679  1.00  0.00     0.116 A 
HETATM   35  C   UNL     1      39.621  39.418  62.865  1.00  0.00     0.020 A 
HETATM   36  C   UNL     1      39.271  40.742  63.129  1.00  0.00     0.017 A 
ENDBRANCH  14  31
BRANCH   7  37
HETATM   37  O   UNL     1      38.514  48.130  69.549  1.00  0.00    -0.395 OA
HETATM   38  H   UNL     1      38.764  49.038  69.801  1.00  0.00     0.210 HD
ENDBRANCH   7  37
TORSDOF 9
ENDMDL
