MODEL 1
REMARK VINA RESULT:      -8.3      0.000      0.000
REMARK  6 active torsions:
REMARK  status: ('A' for Active; 'I' for Inactive)
REMARK    1  A    between atoms: C_2  and  O_3 
REMARK    2  A    between atoms: O_3  and  C_4 
REMARK    3  A    between atoms: C_7  and  C_8 
REMARK       I    between atoms: N_11  and  C_12 
REMARK       I    between atoms: C_12  and  N_13 
REMARK    4  A    between atoms: N_13  and  C_14 
REMARK    5  A    between atoms: C_14  and  C_15 
REMARK    6  A    between atoms: C_15  and  C_16 
ROOT
HETATM    1  C   UNL     1      18.508  51.664  48.807  1.00  0.00    -0.049 C 
HETATM    2  C   UNL     1      17.788  51.623  47.481  1.00  0.00     0.059 C 
HETATM    3  C   UNL     1      16.269  51.662  47.660  1.00  0.00     0.132 C 
HETATM    4  N   UNL     1      15.871  52.696  48.609  1.00  0.00    -0.331 N 
HETATM    5  C   UNL     1      14.841  53.553  48.260  1.00  0.00     0.318 C 
HETATM    6  N   UNL     1      14.442  54.419  49.247  1.00  0.00    -0.338 N 
HETATM    7  O   UNL     1      14.336  53.569  47.139  1.00  0.00    -0.247 OA
HETATM    8  C   UNL     1      16.452  52.602  49.944  1.00  0.00     0.155 C 
HETATM    9  C   UNL     1      17.859  52.079  49.914  1.00  0.00     0.001 C 
HETATM   10  H   UNL     1      14.428  54.013  50.176  1.00  0.00     0.164 HD
ENDROOT
BRANCH   6  11
HETATM   11  C   UNL     1      13.309  55.320  49.040  1.00  0.00     0.087 C 
HETATM   12  C   UNL     1      13.753  56.537  48.230  1.00  0.00     0.032 C 
BRANCH  11  13
HETATM   13  C   UNL     1      12.653  55.703  50.383  1.00  0.00     0.085 C 
BRANCH  13  14
HETATM   14  C   UNL     1      13.593  55.712  51.554  1.00  0.00     0.058 A 
HETATM   15  N   UNL     1      13.950  54.575  52.171  1.00  0.00    -0.179 NA
HETATM   16  N   UNL     1      14.777  54.982  53.149  1.00  0.00    -0.282 N 
HETATM   17  H   UNL     1      15.176  54.281  53.764  1.00  0.00     0.189 HD
HETATM   18  C   UNL     1      14.972  56.334  53.176  1.00  0.00     0.026 A 
HETATM   19  C   UNL     1      15.847  56.998  54.167  1.00  0.00     0.070 C 
HETATM   20  C   UNL     1      14.207  56.838  52.150  1.00  0.00     0.055 A 
ENDBRANCH  13  14
ENDBRANCH  11  13
ENDBRANCH   6  11
BRANCH   1  21
HETATM   21  C   UNL     1      19.925  51.246  48.867  1.00  0.00    -0.030 A 
HETATM   22  C   UNL     1      20.633  50.879  47.716  1.00  0.00     0.014 A 
HETATM   23  C   UNL     1      21.987  50.518  47.781  1.00  0.00     0.037 A 
HETATM   24  C   UNL     1      22.655  50.517  49.003  1.00  0.00     0.068 A 
HETATM   25  C   UNL     1      21.958  50.873  50.157  1.00  0.00     0.037 A 
HETATM   26  C   UNL     1      20.611  51.240  50.090  1.00  0.00     0.014 A 
BRANCH  24  27
HETATM   27  O   UNL     1      23.967  50.189  49.207  1.00  0.00    -0.352 OA
BRANCH  27  28
HETATM   28  C   UNL     1      24.727  49.815  48.060  1.00  0.00     0.171 C 
HETATM   29  C   UNL     1      26.192  49.793  48.459  1.00  0.00     0.034 C 
ENDBRANCH  27  28
ENDBRANCH  24  27
ENDBRANCH   1  21
TORSDOF 6
ENDMDL
MODEL 2
REMARK VINA RESULT:      -8.2      6.914     10.800
REMARK  6 active torsions:
REMARK  status: ('A' for Active; 'I' for Inactive)
REMARK    1  A    between atoms: C_2  and  O_3 
REMARK    2  A    between atoms: O_3  and  C_4 
REMARK    3  A    between atoms: C_7  and  C_8 
REMARK       I    between atoms: N_11  and  C_12 
REMARK       I    between atoms: C_12  and  N_13 
REMARK    4  A    between atoms: N_13  and  C_14 
REMARK    5  A    between atoms: C_14  and  C_15 
REMARK    6  A    between atoms: C_15  and  C_16 
ROOT
HETATM    1  C   UNL     1      26.450  45.017  52.189  1.00  0.00    -0.049 C 
HETATM    2  C   UNL     1      25.788  44.127  51.164  1.00  0.00     0.059 C 
HETATM    3  C   UNL     1      24.391  44.632  50.794  1.00  0.00     0.132 C 
HETATM    4  N   UNL     1      24.396  46.067  50.535  1.00  0.00    -0.331 N 
HETATM    5  C   UNL     1      23.768  46.536  49.393  1.00  0.00     0.318 C 
HETATM    6  N   UNL     1      23.708  47.901  49.277  1.00  0.00    -0.338 N 
HETATM    7  O   UNL     1      23.323  45.791  48.522  1.00  0.00    -0.247 OA
HETATM    8  C   UNL     1      24.879  46.916  51.619  1.00  0.00     0.155 C 
HETATM    9  C   UNL     1      25.987  46.266  52.396  1.00  0.00     0.001 C 
HETATM   10  H   UNL     1      23.529  48.386  50.150  1.00  0.00     0.164 HD
ENDROOT
BRANCH   6  11
HETATM   11  C   UNL     1      23.000  48.529  48.163  1.00  0.00     0.087 C 
HETATM   12  C   UNL     1      23.460  49.977  48.003  1.00  0.00     0.032 C 
BRANCH  11  13
HETATM   13  C   UNL     1      21.471  48.404  48.336  1.00  0.00     0.085 C 
BRANCH  13  14
HETATM   14  C   UNL     1      20.778  49.690  48.681  1.00  0.00     0.058 A 
HETATM   15  N   UNL     1      20.839  50.205  49.919  1.00  0.00    -0.179 NA
HETATM   16  N   UNL     1      20.108  51.331  49.838  1.00  0.00    -0.282 N 
HETATM   17  H   UNL     1      20.003  51.898  50.673  1.00  0.00     0.189 HD
HETATM   18  C   UNL     1      19.591  51.562  48.594  1.00  0.00     0.026 A 
HETATM   19  C   UNL     1      18.758  52.743  48.280  1.00  0.00     0.070 C 
HETATM   20  C   UNL     1      20.005  50.504  47.819  1.00  0.00     0.055 A 
ENDBRANCH  13  14
ENDBRANCH  11  13
ENDBRANCH   6  11
BRANCH   1  21
HETATM   21  C   UNL     1      27.606  44.496  52.950  1.00  0.00    -0.030 A 
HETATM   22  C   UNL     1      28.460  43.523  52.416  1.00  0.00     0.014 A 
HETATM   23  C   UNL     1      29.573  43.062  53.135  1.00  0.00     0.037 A 
HETATM   24  C   UNL     1      29.849  43.569  54.403  1.00  0.00     0.068 A 
HETATM   25  C   UNL     1      29.000  44.532  54.947  1.00  0.00     0.037 A 
HETATM   26  C   UNL     1      27.895  44.996  54.227  1.00  0.00     0.014 A 
BRANCH  24  27
HETATM   27  O   UNL     1      30.895  43.210  55.206  1.00  0.00    -0.352 OA
BRANCH  27  28
HETATM   28  C   UNL     1      31.068  43.947  56.415  1.00  0.00     0.171 C 
HETATM   29  C   UNL     1      32.050  43.187  57.288  1.00  0.00     0.034 C 
ENDBRANCH  27  28
ENDBRANCH  24  27
ENDBRANCH   1  21
TORSDOF 6
ENDMDL
MODEL 3
REMARK VINA RESULT:      -8.1      1.506      2.339
REMARK  6 active torsions:
REMARK  status: ('A' for Active; 'I' for Inactive)
REMARK    1  A    between atoms: C_2  and  O_3 
REMARK    2  A    between atoms: O_3  and  C_4 
REMARK    3  A    between atoms: C_7  and  C_8 
REMARK       I    between atoms: N_11  and  C_12 
REMARK       I    between atoms: C_12  and  N_13 
REMARK    4  A    between atoms: N_13  and  C_14 
REMARK    5  A    between atoms: C_14  and  C_15 
REMARK    6  A    between atoms: C_15  and  C_16 
ROOT
HETATM    1  C   UNL     1      20.158  50.620  48.869  1.00  0.00    -0.049 C 
HETATM    2  C   UNL     1      19.101  49.574  48.609  1.00  0.00     0.059 C 
HETATM    3  C   UNL     1      17.744  49.984  49.188  1.00  0.00     0.132 C 
HETATM    4  N   UNL     1      17.419  51.366  48.853  1.00  0.00    -0.331 N 
HETATM    5  C   UNL     1      16.159  51.647  48.354  1.00  0.00     0.318 C 
HETATM    6  N   UNL     1      15.884  52.979  48.176  1.00  0.00    -0.338 N 
HETATM    7  O   UNL     1      15.348  50.772  48.056  1.00  0.00    -0.247 OA
HETATM    8  C   UNL     1      18.383  52.376  49.278  1.00  0.00     0.155 C 
HETATM    9  C   UNL     1      19.797  51.874  49.207  1.00  0.00     0.001 C 
HETATM   10  H   UNL     1      16.250  53.581  48.905  1.00  0.00     0.164 HD
ENDROOT
BRANCH   6  11
HETATM   11  C   UNL     1      14.561  53.420  47.734  1.00  0.00     0.087 C 
HETATM   12  C   UNL     1      14.518  53.488  46.209  1.00  0.00     0.032 C 
BRANCH  11  13
HETATM   13  C   UNL     1      14.168  54.753  48.404  1.00  0.00     0.085 C 
BRANCH  13  14
HETATM   14  C   UNL     1      14.458  54.819  49.875  1.00  0.00     0.058 A 
HETATM   15  N   UNL     1      14.347  53.734  50.658  1.00  0.00    -0.179 NA
HETATM   16  N   UNL     1      14.677  54.182  51.882  1.00  0.00    -0.282 N 
HETATM   17  H   UNL     1      14.658  53.526  52.655  1.00  0.00     0.189 HD
HETATM   18  C   UNL     1      15.005  55.508  51.912  1.00  0.00     0.026 A 
HETATM   19  C   UNL     1      15.402  56.207  53.153  1.00  0.00     0.070 C 
HETATM   20  C   UNL     1      14.865  55.952  50.618  1.00  0.00     0.055 A 
ENDBRANCH  13  14
ENDBRANCH  11  13
ENDBRANCH   6  11
BRANCH   1  21
HETATM   21  C   UNL     1      21.583  50.246  48.743  1.00  0.00    -0.030 A 
HETATM   22  C   UNL     1      22.042  48.970  49.093  1.00  0.00     0.014 A 
HETATM   23  C   UNL     1      23.391  48.616  48.937  1.00  0.00     0.037 A 
HETATM   24  C   UNL     1      24.304  49.536  48.427  1.00  0.00     0.068 A 
HETATM   25  C   UNL     1      23.859  50.812  48.084  1.00  0.00     0.037 A 
HETATM   26  C   UNL     1      22.514  51.162  48.232  1.00  0.00     0.014 A 
BRANCH  24  27
HETATM   27  O   UNL     1      25.639  49.323  48.224  1.00  0.00    -0.352 OA
BRANCH  27  28
HETATM   28  C   UNL     1      26.347  48.625  49.246  1.00  0.00     0.171 C 
HETATM   29  C   UNL     1      27.798  49.066  49.192  1.00  0.00     0.034 C 
ENDBRANCH  27  28
ENDBRANCH  24  27
ENDBRANCH   1  21
TORSDOF 6
ENDMDL
MODEL 4
REMARK VINA RESULT:      -8.1      6.316     10.175
REMARK  6 active torsions:
REMARK  status: ('A' for Active; 'I' for Inactive)
REMARK    1  A    between atoms: C_2  and  O_3 
REMARK    2  A    between atoms: O_3  and  C_4 
REMARK    3  A    between atoms: C_7  and  C_8 
REMARK       I    between atoms: N_11  and  C_12 
REMARK       I    between atoms: C_12  and  N_13 
REMARK    4  A    between atoms: N_13  and  C_14 
REMARK    5  A    between atoms: C_14  and  C_15 
REMARK    6  A    between atoms: C_15  and  C_16 
ROOT
HETATM    1  C   UNL     1      25.861  46.300  50.985  1.00  0.00    -0.049 C 
HETATM    2  C   UNL     1      26.463  47.633  50.611  1.00  0.00     0.059 C 
HETATM    3  C   UNL     1      25.756  48.254  49.404  1.00  0.00     0.132 C 
HETATM    4  N   UNL     1      24.306  48.187  49.542  1.00  0.00    -0.331 N 
HETATM    5  C   UNL     1      23.564  49.328  49.292  1.00  0.00     0.318 C 
HETATM    6  N   UNL     1      22.203  49.159  49.325  1.00  0.00    -0.338 N 
HETATM    7  O   UNL     1      24.076  50.427  49.087  1.00  0.00    -0.247 OA
HETATM    8  C   UNL     1      23.738  46.855  49.726  1.00  0.00     0.155 C 
HETATM    9  C   UNL     1      24.636  45.963  50.535  1.00  0.00     0.001 C 
HETATM   10  H   UNL     1      21.882  48.286  48.921  1.00  0.00     0.164 HD
ENDROOT
BRANCH   6  11
HETATM   11  C   UNL     1      21.302  50.262  48.995  1.00  0.00     0.087 C 
HETATM   12  C   UNL     1      20.835  50.954  50.275  1.00  0.00     0.032 C 
BRANCH  11  13
HETATM   13  C   UNL     1      20.129  49.778  48.116  1.00  0.00     0.085 C 
BRANCH  13  14
HETATM   14  C   UNL     1      19.789  48.326  48.280  1.00  0.00     0.058 A 
HETATM   15  N   UNL     1      19.608  47.784  49.494  1.00  0.00    -0.179 NA
HETATM   16  N   UNL     1      19.329  46.494  49.236  1.00  0.00    -0.282 N 
HETATM   17  H   UNL     1      19.157  45.872  50.019  1.00  0.00     0.189 HD
HETATM   18  C   UNL     1      19.314  46.192  47.903  1.00  0.00     0.026 A 
HETATM   19  C   UNL     1      19.026  44.833  47.393  1.00  0.00     0.070 C 
HETATM   20  C   UNL     1      19.616  47.366  47.254  1.00  0.00     0.055 A 
ENDBRANCH  13  14
ENDBRANCH  11  13
ENDBRANCH   6  11
BRANCH   1  21
HETATM   21  C   UNL     1      26.634  45.382  51.849  1.00  0.00    -0.030 A 
HETATM   22  C   UNL     1      27.392  44.333  51.315  1.00  0.00     0.014 A 
HETATM   23  C   UNL     1      28.148  43.489  52.143  1.00  0.00     0.037 A 
HETATM   24  C   UNL     1      28.156  43.683  53.523  1.00  0.00     0.068 A 
HETATM   25  C   UNL     1      27.397  44.719  54.066  1.00  0.00     0.037 A 
HETATM   26  C   UNL     1      26.650  45.564  53.240  1.00  0.00     0.014 A 
BRANCH  24  27
HETATM   27  O   UNL     1      28.846  42.939  54.439  1.00  0.00    -0.352 OA
BRANCH  27  28
HETATM   28  C   UNL     1      30.269  43.016  54.398  1.00  0.00     0.171 C 
HETATM   29  C   UNL     1      30.731  43.773  55.630  1.00  0.00     0.034 C 
ENDBRANCH  27  28
ENDBRANCH  24  27
ENDBRANCH   1  21
TORSDOF 6
ENDMDL
MODEL 5
REMARK VINA RESULT:      -8.1      5.894      9.489
REMARK  6 active torsions:
REMARK  status: ('A' for Active; 'I' for Inactive)
REMARK    1  A    between atoms: C_2  and  O_3 
REMARK    2  A    between atoms: O_3  and  C_4 
REMARK    3  A    between atoms: C_7  and  C_8 
REMARK       I    between atoms: N_11  and  C_12 
REMARK       I    between atoms: C_12  and  N_13 
REMARK    4  A    between atoms: N_13  and  C_14 
REMARK    5  A    between atoms: C_14  and  C_15 
REMARK    6  A    between atoms: C_15  and  C_16 
ROOT
HETATM    1  C   UNL     1      25.987  46.065  51.362  1.00  0.00    -0.049 C 
HETATM    2  C   UNL     1      26.311  47.505  51.043  1.00  0.00     0.059 C 
HETATM    3  C   UNL     1      25.594  47.979  49.776  1.00  0.00     0.132 C 
HETATM    4  N   UNL     1      24.187  47.593  49.785  1.00  0.00    -0.331 N 
HETATM    5  C   UNL     1      23.237  48.548  49.468  1.00  0.00     0.318 C 
HETATM    6  N   UNL     1      21.949  48.084  49.380  1.00  0.00    -0.338 N 
HETATM    7  O   UNL     1      23.511  49.736  49.310  1.00  0.00    -0.247 OA
HETATM    8  C   UNL     1      23.912  46.165  49.918  1.00  0.00     0.155 C 
HETATM    9  C   UNL     1      24.911  45.477  50.804  1.00  0.00     0.001 C 
HETATM   10  H   UNL     1      21.865  47.169  48.949  1.00  0.00     0.164 HD
ENDROOT
BRANCH   6  11
HETATM   11  C   UNL     1      20.859  48.969  48.970  1.00  0.00     0.087 C 
HETATM   12  C   UNL     1      20.848  49.111  47.449  1.00  0.00     0.032 C 
BRANCH  11  13
HETATM   13  C   UNL     1      20.945  50.328  49.697  1.00  0.00     0.085 C 
BRANCH  13  14
HETATM   14  C   UNL     1      19.785  51.244  49.440  1.00  0.00     0.058 A 
HETATM   15  N   UNL     1      19.852  52.212  48.512  1.00  0.00    -0.179 NA
HETATM   16  N   UNL     1      18.649  52.809  48.578  1.00  0.00    -0.282 N 
HETATM   17  H   UNL     1      18.466  53.592  47.959  1.00  0.00     0.189 HD
HETATM   18  C   UNL     1      17.811  52.255  49.504  1.00  0.00     0.026 A 
HETATM   19  C   UNL     1      16.438  52.753  49.742  1.00  0.00     0.070 C 
HETATM   20  C   UNL     1      18.527  51.235  50.087  1.00  0.00     0.055 A 
ENDBRANCH  13  14
ENDBRANCH  11  13
ENDBRANCH   6  11
BRANCH   1  21
HETATM   21  C   UNL     1      26.865  45.322  52.293  1.00  0.00    -0.030 A 
HETATM   22  C   UNL     1      27.614  44.217  51.872  1.00  0.00     0.014 A 
HETATM   23  C   UNL     1      28.469  43.541  52.756  1.00  0.00     0.037 A 
HETATM   24  C   UNL     1      28.586  43.963  54.079  1.00  0.00     0.068 A 
HETATM   25  C   UNL     1      27.838  45.057  54.510  1.00  0.00     0.037 A 
HETATM   26  C   UNL     1      26.992  45.734  53.627  1.00  0.00     0.014 A 
BRANCH  24  27
HETATM   27  O   UNL     1      29.379  43.399  55.039  1.00  0.00    -0.352 OA
BRANCH  27  28
HETATM   28  C   UNL     1      30.283  44.263  55.724  1.00  0.00     0.171 C 
HETATM   29  C   UNL     1      31.312  43.397  56.428  1.00  0.00     0.034 C 
ENDBRANCH  27  28
ENDBRANCH  24  27
ENDBRANCH   1  21
TORSDOF 6
ENDMDL
MODEL 6
REMARK VINA RESULT:      -8.0      7.075     11.076
REMARK  6 active torsions:
REMARK  status: ('A' for Active; 'I' for Inactive)
REMARK    1  A    between atoms: C_2  and  O_3 
REMARK    2  A    between atoms: O_3  and  C_4 
REMARK    3  A    between atoms: C_7  and  C_8 
REMARK       I    between atoms: N_11  and  C_12 
REMARK       I    between atoms: C_12  and  N_13 
REMARK    4  A    between atoms: N_13  and  C_14 
REMARK    5  A    between atoms: C_14  and  C_15 
REMARK    6  A    between atoms: C_15  and  C_16 
ROOT
HETATM    1  C   UNL     1      25.950  45.974  51.326  1.00  0.00    -0.049 C 
HETATM    2  C   UNL     1      26.234  47.439  51.094  1.00  0.00     0.059 C 
HETATM    3  C   UNL     1      25.552  47.954  49.824  1.00  0.00     0.132 C 
HETATM    4  N   UNL     1      24.161  47.519  49.753  1.00  0.00    -0.331 N 
HETATM    5  C   UNL     1      23.190  48.457  49.445  1.00  0.00     0.318 C 
HETATM    6  N   UNL     1      21.924  47.954  49.278  1.00  0.00    -0.338 N 
HETATM    7  O   UNL     1      23.427  49.660  49.358  1.00  0.00    -0.247 OA
HETATM    8  C   UNL     1      23.933  46.078  49.801  1.00  0.00     0.155 C 
HETATM    9  C   UNL     1      24.919  45.379  50.693  1.00  0.00     0.001 C 
HETATM   10  H   UNL     1      21.891  47.060  48.798  1.00  0.00     0.164 HD
ENDROOT
BRANCH   6  11
HETATM   11  C   UNL     1      20.821  48.821  48.868  1.00  0.00     0.087 C 
HETATM   12  C   UNL     1      19.656  48.678  49.845  1.00  0.00     0.032 C 
BRANCH  11  13
HETATM   13  C   UNL     1      20.412  48.545  47.406  1.00  0.00     0.085 C 
BRANCH  13  14
HETATM   14  C   UNL     1      20.640  47.133  46.952  1.00  0.00     0.058 A 
HETATM   15  N   UNL     1      21.856  46.710  46.570  1.00  0.00    -0.179 NA
HETATM   16  N   UNL     1      21.662  45.422  46.238  1.00  0.00    -0.282 N 
HETATM   17  H   UNL     1      22.457  44.886  45.906  1.00  0.00     0.189 HD
HETATM   18  C   UNL     1      20.373  45.000  46.403  1.00  0.00     0.026 A 
HETATM   19  C   UNL     1      19.937  43.619  46.101  1.00  0.00     0.070 C 
HETATM   20  C   UNL     1      19.681  46.097  46.862  1.00  0.00     0.055 A 
ENDBRANCH  13  14
ENDBRANCH  11  13
ENDBRANCH   6  11
BRANCH   1  21
HETATM   21  C   UNL     1      26.815  45.215  52.254  1.00  0.00    -0.030 A 
HETATM   22  C   UNL     1      26.910  45.548  53.610  1.00  0.00     0.014 A 
HETATM   23  C   UNL     1      27.709  44.799  54.488  1.00  0.00     0.037 A 
HETATM   24  C   UNL     1      28.427  43.701  54.018  1.00  0.00     0.068 A 
HETATM   25  C   UNL     1      28.347  43.366  52.667  1.00  0.00     0.037 A 
HETATM   26  C   UNL     1      27.545  44.108  51.796  1.00  0.00     0.014 A 
BRANCH  24  27
HETATM   27  O   UNL     1      29.238  42.889  54.761  1.00  0.00    -0.352 OA
BRANCH  27  28
HETATM   28  C   UNL     1      30.624  43.219  54.803  1.00  0.00     0.171 C 
HETATM   29  C   UNL     1      31.038  43.311  56.260  1.00  0.00     0.034 C 
ENDBRANCH  27  28
ENDBRANCH  24  27
ENDBRANCH   1  21
TORSDOF 6
ENDMDL
MODEL 7
REMARK VINA RESULT:      -8.0      8.239     13.707
REMARK  6 active torsions:
REMARK  status: ('A' for Active; 'I' for Inactive)
REMARK    1  A    between atoms: C_2  and  O_3 
REMARK    2  A    between atoms: O_3  and  C_4 
REMARK    3  A    between atoms: C_7  and  C_8 
REMARK       I    between atoms: N_11  and  C_12 
REMARK       I    between atoms: C_12  and  N_13 
REMARK    4  A    between atoms: N_13  and  C_14 
REMARK    5  A    between atoms: C_14  and  C_15 
REMARK    6  A    between atoms: C_15  and  C_16 
ROOT
HETATM    1  C   UNL     1      24.035  47.259  49.558  1.00  0.00    -0.049 C 
HETATM    2  C   UNL     1      23.666  45.839  49.204  1.00  0.00     0.059 C 
HETATM    3  C   UNL     1      24.879  44.906  49.268  1.00  0.00     0.132 C 
HETATM    4  N   UNL     1      25.648  45.117  50.489  1.00  0.00    -0.331 N 
HETATM    5  C   UNL     1      26.026  44.012  51.232  1.00  0.00     0.318 C 
HETATM    6  N   UNL     1      26.848  44.277  52.298  1.00  0.00    -0.338 N 
HETATM    7  O   UNL     1      25.633  42.874  50.984  1.00  0.00    -0.247 OA
HETATM    8  C   UNL     1      26.144  46.472  50.712  1.00  0.00     0.155 C 
HETATM    9  C   UNL     1      25.186  47.514  50.210  1.00  0.00     0.001 C 
HETATM   10  H   UNL     1      27.547  44.990  52.118  1.00  0.00     0.164 HD
ENDROOT
BRANCH   6  11
HETATM   11  C   UNL     1      27.389  43.193  53.116  1.00  0.00     0.087 C 
HETATM   12  C   UNL     1      26.801  43.260  54.524  1.00  0.00     0.032 C 
BRANCH  11  13
HETATM   13  C   UNL     1      28.932  43.211  53.111  1.00  0.00     0.085 C 
BRANCH  13  14
HETATM   14  C   UNL     1      29.551  43.752  54.367  1.00  0.00     0.058 A 
HETATM   15  N   UNL     1      29.254  44.980  54.819  1.00  0.00    -0.179 NA
HETATM   16  N   UNL     1      29.992  45.102  55.936  1.00  0.00    -0.282 N 
HETATM   17  H   UNL     1      29.935  45.970  56.459  1.00  0.00     0.189 HD
HETATM   18  C   UNL     1      30.741  43.996  56.223  1.00  0.00     0.026 A 
HETATM   19  C   UNL     1      31.624  43.911  57.407  1.00  0.00     0.070 C 
HETATM   20  C   UNL     1      30.479  43.100  55.213  1.00  0.00     0.055 A 
ENDBRANCH  13  14
ENDBRANCH  11  13
ENDBRANCH   6  11
BRANCH   1  21
HETATM   21  C   UNL     1      23.115  48.354  49.180  1.00  0.00    -0.030 A 
HETATM   22  C   UNL     1      23.533  49.690  49.152  1.00  0.00     0.014 A 
HETATM   23  C   UNL     1      22.660  50.716  48.759  1.00  0.00     0.037 A 
HETATM   24  C   UNL     1      21.351  50.419  48.387  1.00  0.00     0.068 A 
HETATM   25  C   UNL     1      20.921  49.093  48.419  1.00  0.00     0.037 A 
HETATM   26  C   UNL     1      21.794  48.070  48.804  1.00  0.00     0.014 A 
BRANCH  24  27
HETATM   27  O   UNL     1      20.402  51.317  47.984  1.00  0.00    -0.352 OA
BRANCH  27  28
HETATM   28  C   UNL     1      19.082  51.137  48.493  1.00  0.00     0.171 C 
HETATM   29  C   UNL     1      18.997  51.852  49.829  1.00  0.00     0.034 C 
ENDBRANCH  27  28
ENDBRANCH  24  27
ENDBRANCH   1  21
TORSDOF 6
ENDMDL
MODEL 8
REMARK VINA RESULT:      -7.8      6.014      9.973
REMARK  6 active torsions:
REMARK  status: ('A' for Active; 'I' for Inactive)
REMARK    1  A    between atoms: C_2  and  O_3 
REMARK    2  A    between atoms: O_3  and  C_4 
REMARK    3  A    between atoms: C_7  and  C_8 
REMARK       I    between atoms: N_11  and  C_12 
REMARK       I    between atoms: C_12  and  N_13 
REMARK    4  A    between atoms: N_13  and  C_14 
REMARK    5  A    between atoms: C_14  and  C_15 
REMARK    6  A    between atoms: C_15  and  C_16 
ROOT
HETATM    1  C   UNL     1      25.938  45.972  51.261  1.00  0.00    -0.049 C 
HETATM    2  C   UNL     1      26.174  47.447  51.047  1.00  0.00     0.059 C 
HETATM    3  C   UNL     1      25.467  47.957  49.788  1.00  0.00     0.132 C 
HETATM    4  N   UNL     1      24.091  47.479  49.720  1.00  0.00    -0.331 N 
HETATM    5  C   UNL     1      23.089  48.389  49.430  1.00  0.00     0.318 C 
HETATM    6  N   UNL     1      21.839  47.849  49.265  1.00  0.00    -0.338 N 
HETATM    7  O   UNL     1      23.287  49.600  49.358  1.00  0.00    -0.247 OA
HETATM    8  C   UNL     1      23.909  46.031  49.751  1.00  0.00     0.155 C 
HETATM    9  C   UNL     1      24.923  45.352  50.627  1.00  0.00     0.001 C 
HETATM   10  H   UNL     1      21.831  46.961  48.774  1.00  0.00     0.164 HD
ENDROOT
BRANCH   6  11
HETATM   11  C   UNL     1      20.705  48.686  48.873  1.00  0.00     0.087 C 
HETATM   12  C   UNL     1      19.594  48.579  49.916  1.00  0.00     0.032 C 
BRANCH  11  13
HETATM   13  C   UNL     1      20.224  48.337  47.449  1.00  0.00     0.085 C 
BRANCH  13  14
HETATM   14  C   UNL     1      19.127  49.221  46.930  1.00  0.00     0.058 A 
HETATM   15  N   UNL     1      17.902  48.736  46.673  1.00  0.00    -0.179 NA
HETATM   16  N   UNL     1      17.216  49.804  46.231  1.00  0.00    -0.282 N 
HETATM   17  H   UNL     1      16.246  49.676  45.963  1.00  0.00     0.189 HD
HETATM   18  C   UNL     1      17.951  50.956  46.204  1.00  0.00     0.026 A 
HETATM   19  C   UNL     1      17.394  52.251  45.755  1.00  0.00     0.070 C 
HETATM   20  C   UNL     1      19.204  50.605  46.649  1.00  0.00     0.055 A 
ENDBRANCH  13  14
ENDBRANCH  11  13
ENDBRANCH   6  11
BRANCH   1  21
HETATM   21  C   UNL     1      26.833  45.228  52.173  1.00  0.00    -0.030 A 
HETATM   22  C   UNL     1      27.620  44.161  51.724  1.00  0.00     0.014 A 
HETATM   23  C   UNL     1      28.491  43.485  52.592  1.00  0.00     0.037 A 
HETATM   24  C   UNL     1      28.587  43.868  53.928  1.00  0.00     0.068 A 
HETATM   25  C   UNL     1      27.802  44.924  54.388  1.00  0.00     0.037 A 
HETATM   26  C   UNL     1      26.940  45.602  53.521  1.00  0.00     0.014 A 
BRANCH  24  27
HETATM   27  O   UNL     1      29.392  43.299  54.875  1.00  0.00    -0.352 OA
BRANCH  27  28
HETATM   28  C   UNL     1      30.210  44.178  55.644  1.00  0.00     0.171 C 
HETATM   29  C   UNL     1      31.222  43.333  56.398  1.00  0.00     0.034 C 
ENDBRANCH  27  28
ENDBRANCH  24  27
ENDBRANCH   1  21
TORSDOF 6
ENDMDL
MODEL 9
REMARK VINA RESULT:      -7.8      8.174     12.481
REMARK  6 active torsions:
REMARK  status: ('A' for Active; 'I' for Inactive)
REMARK    1  A    between atoms: C_2  and  O_3 
REMARK    2  A    between atoms: O_3  and  C_4 
REMARK    3  A    between atoms: C_7  and  C_8 
REMARK       I    between atoms: N_11  and  C_12 
REMARK       I    between atoms: C_12  and  N_13 
REMARK    4  A    between atoms: N_13  and  C_14 
REMARK    5  A    between atoms: C_14  and  C_15 
REMARK    6  A    between atoms: C_15  and  C_16 
ROOT
HETATM    1  C   UNL     1      26.632  44.033  51.743  1.00  0.00    -0.049 C 
HETATM    2  C   UNL     1      25.265  44.131  52.376  1.00  0.00     0.059 C 
HETATM    3  C   UNL     1      24.257  44.811  51.446  1.00  0.00     0.132 C 
HETATM    4  N   UNL     1      24.335  44.273  50.093  1.00  0.00    -0.331 N 
HETATM    5  C   UNL     1      23.159  43.917  49.454  1.00  0.00     0.318 C 
HETATM    6  N   UNL     1      23.299  43.533  48.144  1.00  0.00    -0.338 N 
HETATM    7  O   UNL     1      22.068  43.909  50.020  1.00  0.00    -0.247 OA
HETATM    8  C   UNL     1      25.637  44.356  49.440  1.00  0.00     0.155 C 
HETATM    9  C   UNL     1      26.770  44.178  50.411  1.00  0.00     0.001 C 
HETATM   10  H   UNL     1      23.978  44.075  47.621  1.00  0.00     0.164 HD
ENDROOT
BRANCH   6  11
HETATM   11  C   UNL     1      22.129  43.212  47.328  1.00  0.00     0.087 C 
HETATM   12  C   UNL     1      22.483  42.124  46.316  1.00  0.00     0.032 C 
BRANCH  11  13
HETATM   13  C   UNL     1      21.550  44.480  46.665  1.00  0.00     0.085 C 
BRANCH  13  14
HETATM   14  C   UNL     1      20.337  45.040  47.348  1.00  0.00     0.058 A 
HETATM   15  N   UNL     1      19.311  44.253  47.706  1.00  0.00    -0.179 NA
HETATM   16  N   UNL     1      18.434  45.100  48.272  1.00  0.00    -0.282 N 
HETATM   17  H   UNL     1      17.558  44.724  48.621  1.00  0.00     0.189 HD
HETATM   18  C   UNL     1      18.863  46.396  48.302  1.00  0.00     0.026 A 
HETATM   19  C   UNL     1      18.059  47.494  48.882  1.00  0.00     0.070 C 
HETATM   20  C   UNL     1      20.100  46.390  47.700  1.00  0.00     0.055 A 
ENDBRANCH  13  14
ENDBRANCH  11  13
ENDBRANCH   6  11
BRANCH   1  21
HETATM   21  C   UNL     1      27.805  43.776  52.607  1.00  0.00    -0.030 A 
HETATM   22  C   UNL     1      28.913  43.055  52.146  1.00  0.00     0.014 A 
HETATM   23  C   UNL     1      30.034  42.847  52.964  1.00  0.00     0.037 A 
HETATM   24  C   UNL     1      30.062  43.357  54.260  1.00  0.00     0.068 A 
HETATM   25  C   UNL     1      28.960  44.068  54.732  1.00  0.00     0.037 A 
HETATM   26  C   UNL     1      27.846  44.282  53.914  1.00  0.00     0.014 A 
BRANCH  24  27
HETATM   27  O   UNL     1      31.086  43.228  55.157  1.00  0.00    -0.352 OA
BRANCH  27  28
HETATM   28  C   UNL     1      31.081  44.111  56.277  1.00  0.00     0.171 C 
HETATM   29  C   UNL     1      31.929  43.482  57.368  1.00  0.00     0.034 C 
ENDBRANCH  27  28
ENDBRANCH  24  27
ENDBRANCH   1  21
TORSDOF 6
ENDMDL
MODEL 10
REMARK VINA RESULT:      -7.5      8.340     12.005
REMARK  6 active torsions:
REMARK  status: ('A' for Active; 'I' for Inactive)
REMARK    1  A    between atoms: C_2  and  O_3 
REMARK    2  A    between atoms: O_3  and  C_4 
REMARK    3  A    between atoms: C_7  and  C_8 
REMARK       I    between atoms: N_11  and  C_12 
REMARK       I    between atoms: C_12  and  N_13 
REMARK    4  A    between atoms: N_13  and  C_14 
REMARK    5  A    between atoms: C_14  and  C_15 
REMARK    6  A    between atoms: C_15  and  C_16 
ROOT
HETATM    1  C   UNL     1      25.934  46.283  52.080  1.00  0.00    -0.049 C 
HETATM    2  C   UNL     1      26.116  47.515  51.226  1.00  0.00     0.059 C 
HETATM    3  C   UNL     1      25.606  47.296  49.800  1.00  0.00     0.132 C 
HETATM    4  N   UNL     1      24.292  46.664  49.796  1.00  0.00    -0.331 N 
HETATM    5  C   UNL     1      23.302  47.202  48.991  1.00  0.00     0.318 C 
HETATM    6  N   UNL     1      22.132  46.487  48.947  1.00  0.00    -0.338 N 
HETATM    7  O   UNL     1      23.438  48.260  48.381  1.00  0.00    -0.247 OA
HETATM    8  C   UNL     1      24.192  45.381  50.483  1.00  0.00     0.155 C 
HETATM    9  C   UNL     1      25.079  45.316  51.694  1.00  0.00     0.001 C 
HETATM   10  H   UNL     1      22.259  45.480  48.936  1.00  0.00     0.164 HD
ENDROOT
BRANCH   6  11
HETATM   11  C   UNL     1      21.035  46.896  48.071  1.00  0.00     0.087 C 
HETATM   12  C   UNL     1      19.709  46.820  48.826  1.00  0.00     0.032 C 
BRANCH  11  13
HETATM   13  C   UNL     1      21.028  46.070  46.767  1.00  0.00     0.085 C 
BRANCH  13  14
HETATM   14  C   UNL     1      21.719  44.741  46.870  1.00  0.00     0.058 A 
HETATM   15  N   UNL     1      21.343  43.827  47.778  1.00  0.00    -0.179 NA
HETATM   16  N   UNL     1      22.180  42.797  47.567  1.00  0.00    -0.282 N 
HETATM   17  H   UNL     1      22.088  41.974  48.154  1.00  0.00     0.189 HD
HETATM   18  C   UNL     1      23.070  43.011  46.553  1.00  0.00     0.026 A 
HETATM   19  C   UNL     1      24.081  42.009  46.148  1.00  0.00     0.070 C 
HETATM   20  C   UNL     1      22.797  44.274  46.082  1.00  0.00     0.055 A 
ENDBRANCH  13  14
ENDBRANCH  11  13
ENDBRANCH   6  11
BRANCH   1  21
HETATM   21  C   UNL     1      26.702  46.163  53.338  1.00  0.00    -0.030 A 
HETATM   22  C   UNL     1      27.342  44.970  53.698  1.00  0.00     0.014 A 
HETATM   23  C   UNL     1      28.096  44.878  54.877  1.00  0.00     0.037 A 
HETATM   24  C   UNL     1      28.222  45.982  55.717  1.00  0.00     0.068 A 
HETATM   25  C   UNL     1      27.582  47.172  55.373  1.00  0.00     0.037 A 
HETATM   26  C   UNL     1      26.837  47.265  54.194  1.00  0.00     0.014 A 
BRANCH  24  27
HETATM   27  O   UNL     1      28.924  46.030  56.889  1.00  0.00    -0.352 OA
BRANCH  27  28
HETATM   28  C   UNL     1      30.209  45.411  56.901  1.00  0.00     0.171 C 
HETATM   29  C   UNL     1      30.653  45.287  58.348  1.00  0.00     0.034 C 
ENDBRANCH  27  28
ENDBRANCH  24  27
ENDBRANCH   1  21
TORSDOF 6
ENDMDL
