MODEL 1
REMARK VINA RESULT:      -9.4      0.000      0.000
REMARK  6 active torsions:
REMARK  status: ('A' for Active; 'I' for Inactive)
REMARK    1  A    between atoms: C_2  and  N_3 
REMARK    2  A    between atoms: N_7  and  C_8 
REMARK    3  A    between atoms: C_11  and  N_12 
REMARK    4  A    between atoms: C_13  and  N_14 
REMARK       I    between atoms: N_14  and  C_15 
REMARK    5  A    between atoms: C_15  and  C_16 
REMARK    6  A    between atoms: C_18  and  C_19 
ROOT
HETATM    1  N   UNL     1      23.456  46.136  49.336  1.00  0.00    -0.338 N 
HETATM    2  C   UNL     1      23.857  47.273  49.937  1.00  0.00     0.157 C 
HETATM    3  S   UNL     1      23.540  48.727  49.165  1.00  0.00    -0.047 SA
HETATM    4  H   UNL     1      22.767  46.298  48.607  1.00  0.00     0.168 HD
ENDROOT
BRANCH   2   5
HETATM    5  N   UNL     1      24.401  47.333  51.181  1.00  0.00    -0.199 NA
HETATM    6  C   UNL     1      25.744  47.142  51.498  1.00  0.00     0.261 C 
HETATM    7  O   UNL     1      26.655  47.896  51.176  1.00  0.00    -0.271 OA
HETATM    8  H   UNL     1      23.801  46.795  51.799  1.00  0.00     0.139 HD
BRANCH   6   9
HETATM    9  C   UNL     1      25.963  46.032  52.408  1.00  0.00     0.138 A 
HETATM   10  O   UNL     1      27.208  45.833  52.944  1.00  0.00    -0.305 OA
HETATM   11  C   UNL     1      27.116  44.789  53.826  1.00  0.00     0.088 A 
HETATM   12  C   UNL     1      25.836  44.273  53.787  1.00  0.00     0.041 A 
HETATM   13  C   UNL     1      25.093  45.082  52.899  1.00  0.00     0.045 A 
BRANCH  11  14
HETATM   14  C   UNL     1      28.332  44.481  54.580  1.00  0.00     0.020 A 
HETATM   15  C   UNL     1      29.048  43.275  54.437  1.00  0.00     0.048 A 
HETATM   16 CL   UNL     1      28.533  41.991  53.395  1.00  0.00    -0.083 Cl
HETATM   17  C   UNL     1      30.212  43.037  55.179  1.00  0.00     0.048 A 
HETATM   18  C   UNL     1      30.670  43.994  56.079  1.00  0.00     0.035 A 
HETATM   19 CL   UNL     1      32.095  43.695  56.992  1.00  0.00    -0.084 Cl
HETATM   20  C   UNL     1      29.976  45.186  56.248  1.00  0.00     0.025 A 
HETATM   21  C   UNL     1      28.815  45.427  55.504  1.00  0.00     0.017 A 
ENDBRANCH  11  14
ENDBRANCH   6   9
ENDBRANCH   2   5
BRANCH   1  22
HETATM   22  C   UNL     1      23.979  44.832  49.358  1.00  0.00     0.034 A 
HETATM   23  C   UNL     1      25.320  44.527  49.153  1.00  0.00     0.032 A 
HETATM   24  C   UNL     1      25.761  43.193  49.185  1.00  0.00     0.031 A 
HETATM   25  C   UNL     1      24.879  42.134  49.428  1.00  0.00     0.030 A 
HETATM   26  C   UNL     1      23.520  42.462  49.558  1.00  0.00     0.031 A 
HETATM   27  C   UNL     1      23.072  43.786  49.512  1.00  0.00     0.032 A 
BRANCH  25  28
HETATM   28  N   UNL     1      25.271  40.798  49.520  1.00  0.00    -0.378 N 
HETATM   29  C   UNL     1      26.128  40.456  50.674  1.00  0.00     0.150 C 
HETATM   30  C   UNL     1      27.620  40.462  50.277  1.00  0.00     0.254 C 
HETATM   31  N   UNL     1      27.853  39.513  49.093  1.00  0.00    -0.068 N 
HETATM   32  H   UNL     1      27.516  38.584  49.378  1.00  0.00     0.280 HD
HETATM   33  C   UNL     1      26.981  39.949  47.907  1.00  0.00     0.254 C 
HETATM   34  C   UNL     1      25.493  39.992  48.311  1.00  0.00     0.150 C 
BRANCH  31  35
HETATM   35  C   UNL     1      29.301  39.384  48.692  1.00  0.00     0.230 C 
HETATM   36  C   UNL     1      29.909  38.115  49.261  1.00  0.00     0.034 C 
ENDBRANCH  31  35
ENDBRANCH  25  28
ENDBRANCH   1  22
TORSDOF 6
ENDMDL
MODEL 2
REMARK VINA RESULT:      -9.3      4.315      8.205
REMARK  6 active torsions:
REMARK  status: ('A' for Active; 'I' for Inactive)
REMARK    1  A    between atoms: C_2  and  N_3 
REMARK    2  A    between atoms: N_7  and  C_8 
REMARK    3  A    between atoms: C_11  and  N_12 
REMARK    4  A    between atoms: C_13  and  N_14 
REMARK       I    between atoms: N_14  and  C_15 
REMARK    5  A    between atoms: C_15  and  C_16 
REMARK    6  A    between atoms: C_18  and  C_19 
ROOT
HETATM    1  N   UNL     1      23.450  47.317  48.700  1.00  0.00    -0.338 N 
HETATM    2  C   UNL     1      23.955  46.387  49.532  1.00  0.00     0.157 C 
HETATM    3  S   UNL     1      24.385  44.900  48.888  1.00  0.00    -0.047 SA
HETATM    4  H   UNL     1      23.634  47.111  47.722  1.00  0.00     0.168 HD
ENDROOT
BRANCH   2   5
HETATM    5  N   UNL     1      24.246  46.606  50.842  1.00  0.00    -0.199 NA
HETATM    6  C   UNL     1      25.521  46.731  51.389  1.00  0.00     0.261 C 
HETATM    7  O   UNL     1      26.291  47.659  51.170  1.00  0.00    -0.271 OA
HETATM    8  H   UNL     1      23.675  45.968  51.389  1.00  0.00     0.139 HD
BRANCH   6   9
HETATM    9  C   UNL     1      25.808  45.728  52.398  1.00  0.00     0.138 A 
HETATM   10  O   UNL     1      27.071  45.639  52.921  1.00  0.00    -0.305 OA
HETATM   11  C   UNL     1      27.045  44.685  53.905  1.00  0.00     0.088 A 
HETATM   12  C   UNL     1      25.790  44.111  53.948  1.00  0.00     0.041 A 
HETATM   13  C   UNL     1      24.992  44.794  53.002  1.00  0.00     0.045 A 
BRANCH  11  14
HETATM   14  C   UNL     1      28.288  44.507  54.656  1.00  0.00     0.020 A 
HETATM   15  C   UNL     1      28.775  45.450  55.583  1.00  0.00     0.048 A 
HETATM   16 CL   UNL     1      27.987  46.961  55.893  1.00  0.00    -0.083 Cl
HETATM   17  C   UNL     1      29.969  45.224  56.281  1.00  0.00     0.048 A 
HETATM   18  C   UNL     1      30.694  44.059  56.056  1.00  0.00     0.035 A 
HETATM   19 CL   UNL     1      32.161  43.787  56.910  1.00  0.00    -0.084 Cl
HETATM   20  C   UNL     1      30.242  43.118  55.138  1.00  0.00     0.025 A 
HETATM   21  C   UNL     1      29.048  43.342  54.443  1.00  0.00     0.017 A 
ENDBRANCH  11  14
ENDBRANCH   6   9
ENDBRANCH   2   5
BRANCH   1  22
HETATM   22  C   UNL     1      22.531  48.359  48.908  1.00  0.00     0.034 A 
HETATM   23  C   UNL     1      22.892  49.671  49.195  1.00  0.00     0.032 A 
HETATM   24  C   UNL     1      21.909  50.654  49.395  1.00  0.00     0.031 A 
HETATM   25  C   UNL     1      20.544  50.355  49.308  1.00  0.00     0.030 A 
HETATM   26  C   UNL     1      20.205  49.010  49.090  1.00  0.00     0.031 A 
HETATM   27  C   UNL     1      21.179  48.024  48.905  1.00  0.00     0.032 A 
BRANCH  25  28
HETATM   28  N   UNL     1      19.528  51.301  49.448  1.00  0.00    -0.378 N 
HETATM   29  C   UNL     1      18.298  50.833  50.119  1.00  0.00     0.150 C 
HETATM   30  C   UNL     1      17.230  50.410  49.087  1.00  0.00     0.254 C 
HETATM   31  N   UNL     1      16.946  51.568  48.120  1.00  0.00    -0.068 N 
HETATM   32  H   UNL     1      16.658  52.375  48.689  1.00  0.00     0.280 HD
HETATM   33  C   UNL     1      18.245  51.974  47.410  1.00  0.00     0.254 C 
HETATM   34  C   UNL     1      19.332  52.352  48.439  1.00  0.00     0.150 C 
BRANCH  31  35
HETATM   35  C   UNL     1      15.847  51.277  47.129  1.00  0.00     0.230 C 
HETATM   36  C   UNL     1      15.656  49.782  46.955  1.00  0.00     0.034 C 
ENDBRANCH  31  35
ENDBRANCH  25  28
ENDBRANCH   1  22
TORSDOF 6
ENDMDL
MODEL 3
REMARK VINA RESULT:      -9.3      4.097      8.076
REMARK  6 active torsions:
REMARK  status: ('A' for Active; 'I' for Inactive)
REMARK    1  A    between atoms: C_2  and  N_3 
REMARK    2  A    between atoms: N_7  and  C_8 
REMARK    3  A    between atoms: C_11  and  N_12 
REMARK    4  A    between atoms: C_13  and  N_14 
REMARK       I    between atoms: N_14  and  C_15 
REMARK    5  A    between atoms: C_15  and  C_16 
REMARK    6  A    between atoms: C_18  and  C_19 
ROOT
HETATM    1  N   UNL     1      24.892  49.047  49.198  1.00  0.00    -0.338 N 
HETATM    2  C   UNL     1      25.645  48.023  49.643  1.00  0.00     0.157 C 
HETATM    3  S   UNL     1      27.274  48.010  49.248  1.00  0.00    -0.047 SA
HETATM    4  H   UNL     1      25.449  49.842  48.895  1.00  0.00     0.168 HD
ENDROOT
BRANCH   2   5
HETATM    5  N   UNL     1      25.199  47.054  50.486  1.00  0.00    -0.199 NA
HETATM    6  C   UNL     1      25.512  46.936  51.838  1.00  0.00     0.261 C 
HETATM    7  O   UNL     1      25.152  47.717  52.712  1.00  0.00    -0.271 OA
HETATM    8  H   UNL     1      25.309  46.164  50.007  1.00  0.00     0.139 HD
BRANCH   6   9
HETATM    9  C   UNL     1      26.179  45.689  52.162  1.00  0.00     0.138 A 
HETATM   10  O   UNL     1      27.263  45.700  52.999  1.00  0.00    -0.305 OA
HETATM   11  C   UNL     1      27.639  44.398  53.208  1.00  0.00     0.088 A 
HETATM   12  C   UNL     1      26.848  43.569  52.437  1.00  0.00     0.041 A 
HETATM   13  C   UNL     1      25.899  44.391  51.788  1.00  0.00     0.045 A 
BRANCH  11  14
HETATM   14  C   UNL     1      28.731  44.193  54.160  1.00  0.00     0.020 A 
HETATM   15  C   UNL     1      29.632  43.111  54.083  1.00  0.00     0.048 A 
HETATM   16 CL   UNL     1      29.509  41.863  52.888  1.00  0.00    -0.083 Cl
HETATM   17  C   UNL     1      30.666  42.968  55.019  1.00  0.00     0.048 A 
HETATM   18  C   UNL     1      30.807  43.897  56.044  1.00  0.00     0.035 A 
HETATM   19 CL   UNL     1      32.073  43.715  57.193  1.00  0.00    -0.084 Cl
HETATM   20  C   UNL     1      29.925  44.966  56.149  1.00  0.00     0.025 A 
HETATM   21  C   UNL     1      28.894  45.111  55.213  1.00  0.00     0.017 A 
ENDBRANCH  11  14
ENDBRANCH   6   9
ENDBRANCH   2   5
BRANCH   1  22
HETATM   22  C   UNL     1      23.534  49.129  48.851  1.00  0.00     0.034 A 
HETATM   23  C   UNL     1      22.768  48.044  48.437  1.00  0.00     0.032 A 
HETATM   24  C   UNL     1      21.414  48.212  48.102  1.00  0.00     0.031 A 
HETATM   25  C   UNL     1      20.789  49.462  48.176  1.00  0.00     0.030 A 
HETATM   26  C   UNL     1      21.601  50.554  48.526  1.00  0.00     0.031 A 
HETATM   27  C   UNL     1      22.953  50.395  48.846  1.00  0.00     0.032 A 
BRANCH  25  28
HETATM   28  N   UNL     1      19.438  49.676  47.904  1.00  0.00    -0.378 N 
HETATM   29  C   UNL     1      19.117  50.914  47.164  1.00  0.00     0.150 C 
HETATM   30  C   UNL     1      18.702  52.045  48.130  1.00  0.00     0.254 C 
HETATM   31  N   UNL     1      17.529  51.585  49.006  1.00  0.00    -0.068 N 
HETATM   32  H   UNL     1      16.771  51.298  48.372  1.00  0.00     0.280 HD
HETATM   33  C   UNL     1      17.937  50.332  49.793  1.00  0.00     0.254 C 
HETATM   34  C   UNL     1      18.399  49.213  48.836  1.00  0.00     0.150 C 
BRANCH  31  35
HETATM   35  C   UNL     1      16.994  52.658  49.920  1.00  0.00     0.230 C 
HETATM   36  C   UNL     1      15.484  52.759  49.811  1.00  0.00     0.034 C 
ENDBRANCH  31  35
ENDBRANCH  25  28
ENDBRANCH   1  22
TORSDOF 6
ENDMDL
MODEL 4
REMARK VINA RESULT:      -9.2      3.705      7.267
REMARK  6 active torsions:
REMARK  status: ('A' for Active; 'I' for Inactive)
REMARK    1  A    between atoms: C_2  and  N_3 
REMARK    2  A    between atoms: N_7  and  C_8 
REMARK    3  A    between atoms: C_11  and  N_12 
REMARK    4  A    between atoms: C_13  and  N_14 
REMARK       I    between atoms: N_14  and  C_15 
REMARK    5  A    between atoms: C_15  and  C_16 
REMARK    6  A    between atoms: C_18  and  C_19 
ROOT
HETATM    1  N   UNL     1      25.286  49.049  49.171  1.00  0.00    -0.338 N 
HETATM    2  C   UNL     1      25.951  47.951  49.577  1.00  0.00     0.157 C 
HETATM    3  S   UNL     1      27.574  47.819  49.176  1.00  0.00    -0.047 SA
HETATM    4  H   UNL     1      25.906  49.806  48.895  1.00  0.00     0.168 HD
ENDROOT
BRANCH   2   5
HETATM    5  N   UNL     1      25.428  46.992  50.386  1.00  0.00    -0.199 NA
HETATM    6  C   UNL     1      25.596  46.903  51.766  1.00  0.00     0.261 C 
HETATM    7  O   UNL     1      25.138  47.695  52.582  1.00  0.00    -0.271 OA
HETATM    8  H   UNL     1      25.596  46.096  49.939  1.00  0.00     0.139 HD
BRANCH   6   9
HETATM    9  C   UNL     1      26.237  45.669  52.183  1.00  0.00     0.138 A 
HETATM   10  O   UNL     1      27.324  45.719  53.015  1.00  0.00    -0.305 OA
HETATM   11  C   UNL     1      27.671  44.429  53.321  1.00  0.00     0.088 A 
HETATM   12  C   UNL     1      26.860  43.562  52.617  1.00  0.00     0.041 A 
HETATM   13  C   UNL     1      25.928  44.353  51.908  1.00  0.00     0.045 A 
BRANCH  11  14
HETATM   14  C   UNL     1      28.762  44.272  54.284  1.00  0.00     0.020 A 
HETATM   15  C   UNL     1      29.027  45.199  55.312  1.00  0.00     0.048 A 
HETATM   16 CL   UNL     1      28.129  46.667  55.514  1.00  0.00    -0.083 Cl
HETATM   17  C   UNL     1      30.080  44.993  56.213  1.00  0.00     0.048 A 
HETATM   18  C   UNL     1      30.886  43.866  56.092  1.00  0.00     0.035 A 
HETATM   19 CL   UNL     1      32.181  43.620  57.196  1.00  0.00    -0.084 Cl
HETATM   20  C   UNL     1      30.653  42.943  55.080  1.00  0.00     0.025 A 
HETATM   21  C   UNL     1      29.599  43.145  54.182  1.00  0.00     0.017 A 
ENDBRANCH  11  14
ENDBRANCH   6   9
ENDBRANCH   2   5
BRANCH   1  22
HETATM   22  C   UNL     1      23.938  49.254  48.831  1.00  0.00     0.034 A 
HETATM   23  C   UNL     1      23.041  48.230  48.547  1.00  0.00     0.032 A 
HETATM   24  C   UNL     1      21.709  48.522  48.210  1.00  0.00     0.031 A 
HETATM   25  C   UNL     1      21.237  49.839  48.154  1.00  0.00     0.030 A 
HETATM   26  C   UNL     1      22.179  50.856  48.373  1.00  0.00     0.031 A 
HETATM   27  C   UNL     1      23.510  50.573  48.694  1.00  0.00     0.032 A 
BRANCH  25  28
HETATM   28  N   UNL     1      19.914  50.182  47.874  1.00  0.00    -0.378 N 
HETATM   29  C   UNL     1      19.048  50.422  49.047  1.00  0.00     0.150 C 
HETATM   30  C   UNL     1      18.237  49.158  49.406  1.00  0.00     0.254 C 
HETATM   31  N   UNL     1      17.429  48.689  48.188  1.00  0.00    -0.068 N 
HETATM   32  H   UNL     1      16.837  49.478  47.895  1.00  0.00     0.280 HD
HETATM   33  C   UNL     1      18.382  48.400  47.020  1.00  0.00     0.254 C 
HETATM   34  C   UNL     1      19.230  49.645  46.688  1.00  0.00     0.150 C 
BRANCH  31  35
HETATM   35  C   UNL     1      16.532  47.510  48.470  1.00  0.00     0.230 C 
HETATM   36  C   UNL     1      17.279  46.203  48.274  1.00  0.00     0.034 C 
ENDBRANCH  31  35
ENDBRANCH  25  28
ENDBRANCH   1  22
TORSDOF 6
ENDMDL
MODEL 5
REMARK VINA RESULT:      -9.0      5.644      9.318
REMARK  6 active torsions:
REMARK  status: ('A' for Active; 'I' for Inactive)
REMARK    1  A    between atoms: C_2  and  N_3 
REMARK    2  A    between atoms: N_7  and  C_8 
REMARK    3  A    between atoms: C_11  and  N_12 
REMARK    4  A    between atoms: C_13  and  N_14 
REMARK       I    between atoms: N_14  and  C_15 
REMARK    5  A    between atoms: C_15  and  C_16 
REMARK    6  A    between atoms: C_18  and  C_19 
ROOT
HETATM    1  N   UNL     1      25.538  47.649  49.429  1.00  0.00    -0.338 N 
HETATM    2  C   UNL     1      24.436  48.407  49.265  1.00  0.00     0.157 C 
HETATM    3  S   UNL     1      24.615  49.915  48.555  1.00  0.00    -0.047 SA
HETATM    4  H   UNL     1      26.319  47.962  48.860  1.00  0.00     0.168 HD
ENDROOT
BRANCH   2   5
HETATM    5  N   UNL     1      23.171  47.989  49.533  1.00  0.00    -0.199 NA
HETATM    6  C   UNL     1      22.456  47.029  48.820  1.00  0.00     0.261 C 
HETATM    7  O   UNL     1      22.731  45.835  48.781  1.00  0.00    -0.271 OA
HETATM    8  H   UNL     1      22.607  48.818  49.693  1.00  0.00     0.139 HD
BRANCH   6   9
HETATM    9  C   UNL     1      21.228  47.544  48.244  1.00  0.00     0.138 A 
HETATM   10  O   UNL     1      20.559  48.559  48.875  1.00  0.00    -0.305 OA
HETATM   11  C   UNL     1      19.498  48.911  48.083  1.00  0.00     0.088 A 
HETATM   12  C   UNL     1      19.444  48.065  46.993  1.00  0.00     0.041 A 
HETATM   13  C   UNL     1      20.563  47.207  47.083  1.00  0.00     0.045 A 
BRANCH  11  14
HETATM   14  C   UNL     1      18.708  50.054  48.543  1.00  0.00     0.020 A 
HETATM   15  C   UNL     1      19.267  51.313  48.840  1.00  0.00     0.048 A 
HETATM   16 CL   UNL     1      20.968  51.633  48.755  1.00  0.00    -0.083 Cl
HETATM   17  C   UNL     1      18.461  52.376  49.269  1.00  0.00     0.048 A 
HETATM   18  C   UNL     1      17.091  52.192  49.415  1.00  0.00     0.035 A 
HETATM   19 CL   UNL     1      16.106  53.496  49.948  1.00  0.00    -0.084 Cl
HETATM   20  C   UNL     1      16.515  50.957  49.140  1.00  0.00     0.025 A 
HETATM   21  C   UNL     1      17.319  49.896  48.708  1.00  0.00     0.017 A 
ENDBRANCH  11  14
ENDBRANCH   6   9
ENDBRANCH   2   5
BRANCH   1  22
HETATM   22  C   UNL     1      25.875  46.685  50.394  1.00  0.00     0.034 A 
HETATM   23  C   UNL     1      26.226  45.373  50.095  1.00  0.00     0.032 A 
HETATM   24  C   UNL     1      26.544  44.469  51.122  1.00  0.00     0.031 A 
HETATM   25  C   UNL     1      26.527  44.851  52.469  1.00  0.00     0.030 A 
HETATM   26  C   UNL     1      26.100  46.159  52.748  1.00  0.00     0.031 A 
HETATM   27  C   UNL     1      25.766  47.059  51.731  1.00  0.00     0.032 A 
BRANCH  25  28
HETATM   28  N   UNL     1      26.883  44.009  53.523  1.00  0.00    -0.378 N 
HETATM   29  C   UNL     1      27.125  44.670  54.823  1.00  0.00     0.150 C 
HETATM   30  C   UNL     1      28.630  44.935  55.038  1.00  0.00     0.254 C 
HETATM   31  N   UNL     1      29.419  43.625  54.910  1.00  0.00    -0.068 N 
HETATM   32  H   UNL     1      29.024  42.965  55.594  1.00  0.00     0.280 HD
HETATM   33  C   UNL     1      29.176  43.013  53.523  1.00  0.00     0.254 C 
HETATM   34  C   UNL     1      27.669  42.790  53.282  1.00  0.00     0.150 C 
BRANCH  31  35
HETATM   35  C   UNL     1      30.893  43.770  55.196  1.00  0.00     0.230 C 
HETATM   36  C   UNL     1      31.200  43.426  56.641  1.00  0.00     0.034 C 
ENDBRANCH  31  35
ENDBRANCH  25  28
ENDBRANCH   1  22
TORSDOF 6
ENDMDL
MODEL 6
REMARK VINA RESULT:      -9.0      3.679      7.058
REMARK  6 active torsions:
REMARK  status: ('A' for Active; 'I' for Inactive)
REMARK    1  A    between atoms: C_2  and  N_3 
REMARK    2  A    between atoms: N_7  and  C_8 
REMARK    3  A    between atoms: C_11  and  N_12 
REMARK    4  A    between atoms: C_13  and  N_14 
REMARK       I    between atoms: N_14  and  C_15 
REMARK    5  A    between atoms: C_15  and  C_16 
REMARK    6  A    between atoms: C_18  and  C_19 
ROOT
HETATM    1  N   UNL     1      23.589  43.772  47.859  1.00  0.00    -0.338 N 
HETATM    2  C   UNL     1      24.471  43.594  48.861  1.00  0.00     0.157 C 
HETATM    3  S   UNL     1      25.122  42.064  49.076  1.00  0.00    -0.047 SA
HETATM    4  H   UNL     1      23.616  43.023  47.173  1.00  0.00     0.168 HD
ENDROOT
BRANCH   2   5
HETATM    5  N   UNL     1      24.957  44.594  49.643  1.00  0.00    -0.199 NA
HETATM    6  C   UNL     1      26.255  44.690  50.138  1.00  0.00     0.261 C 
HETATM    7  O   UNL     1      27.255  44.880  49.455  1.00  0.00    -0.271 OA
HETATM    8  H   UNL     1      24.273  44.763  50.375  1.00  0.00     0.139 HD
BRANCH   6   9
HETATM    9  C   UNL     1      26.311  44.715  51.589  1.00  0.00     0.138 A 
HETATM   10  O   UNL     1      27.484  44.406  52.225  1.00  0.00    -0.305 OA
HETATM   11  C   UNL     1      27.288  44.592  53.568  1.00  0.00     0.088 A 
HETATM   12  C   UNL     1      25.970  44.937  53.791  1.00  0.00     0.041 A 
HETATM   13  C   UNL     1      25.351  45.039  52.524  1.00  0.00     0.045 A 
BRANCH  11  14
HETATM   14  C   UNL     1      28.465  44.404  54.418  1.00  0.00     0.020 A 
HETATM   15  C   UNL     1      28.973  45.405  55.271  1.00  0.00     0.048 A 
HETATM   16 CL   UNL     1      28.298  46.998  55.362  1.00  0.00    -0.083 Cl
HETATM   17  C   UNL     1      30.099  45.166  56.070  1.00  0.00     0.048 A 
HETATM   18  C   UNL     1      30.735  43.931  56.021  1.00  0.00     0.035 A 
HETATM   19 CL   UNL     1      32.120  43.644  56.998  1.00  0.00    -0.084 Cl
HETATM   20  C   UNL     1      30.262  42.931  55.179  1.00  0.00     0.025 A 
HETATM   21  C   UNL     1      29.135  43.167  54.384  1.00  0.00     0.017 A 
ENDBRANCH  11  14
ENDBRANCH   6   9
ENDBRANCH   2   5
BRANCH   1  22
HETATM   22  C   UNL     1      22.499  44.647  47.717  1.00  0.00     0.034 A 
HETATM   23  C   UNL     1      22.332  45.516  46.644  1.00  0.00     0.032 A 
HETATM   24  C   UNL     1      21.214  46.364  46.581  1.00  0.00     0.031 A 
HETATM   25  C   UNL     1      20.233  46.362  47.580  1.00  0.00     0.030 A 
HETATM   26  C   UNL     1      20.462  45.528  48.686  1.00  0.00     0.031 A 
HETATM   27  C   UNL     1      21.580  44.693  48.763  1.00  0.00     0.032 A 
BRANCH  25  28
HETATM   28  N   UNL     1      19.079  47.145  47.541  1.00  0.00    -0.378 N 
HETATM   29  C   UNL     1      19.119  48.309  46.632  1.00  0.00     0.150 C 
HETATM   30  C   UNL     1      19.500  49.596  47.396  1.00  0.00     0.254 C 
HETATM   31  N   UNL     1      18.531  49.820  48.565  1.00  0.00    -0.068 N 
HETATM   32  H   UNL     1      17.581  49.851  48.170  1.00  0.00     0.280 HD
HETATM   33  C   UNL     1      18.572  48.607  49.505  1.00  0.00     0.254 C 
HETATM   34  C   UNL     1      18.240  47.310  48.737  1.00  0.00     0.150 C 
BRANCH  31  35
HETATM   35  C   UNL     1      18.769  51.105  49.315  1.00  0.00     0.230 C 
HETATM   36  C   UNL     1      19.745  51.996  48.568  1.00  0.00     0.034 C 
ENDBRANCH  31  35
ENDBRANCH  25  28
ENDBRANCH   1  22
TORSDOF 6
ENDMDL
MODEL 7
REMARK VINA RESULT:      -8.7      3.707      7.141
REMARK  6 active torsions:
REMARK  status: ('A' for Active; 'I' for Inactive)
REMARK    1  A    between atoms: C_2  and  N_3 
REMARK    2  A    between atoms: N_7  and  C_8 
REMARK    3  A    between atoms: C_11  and  N_12 
REMARK    4  A    between atoms: C_13  and  N_14 
REMARK       I    between atoms: N_14  and  C_15 
REMARK    5  A    between atoms: C_15  and  C_16 
REMARK    6  A    between atoms: C_18  and  C_19 
ROOT
HETATM    1  N   UNL     1      23.993  45.128  49.143  1.00  0.00    -0.338 N 
HETATM    2  C   UNL     1      24.618  45.083  50.335  1.00  0.00     0.157 C 
HETATM    3  S   UNL     1      25.570  43.746  50.677  1.00  0.00    -0.047 SA
HETATM    4  H   UNL     1      24.380  44.471  48.471  1.00  0.00     0.168 HD
ENDROOT
BRANCH   2   5
HETATM    5  N   UNL     1      24.622  46.099  51.238  1.00  0.00    -0.199 NA
HETATM    6  C   UNL     1      25.682  46.965  51.492  1.00  0.00     0.261 C 
HETATM    7  O   UNL     1      26.108  47.803  50.705  1.00  0.00    -0.271 OA
HETATM    8  H   UNL     1      24.233  45.734  52.103  1.00  0.00     0.139 HD
BRANCH   6   9
HETATM    9  C   UNL     1      26.147  46.909  52.866  1.00  0.00     0.138 A 
HETATM   10  O   UNL     1      27.144  46.034  53.207  1.00  0.00    -0.305 OA
HETATM   11  C   UNL     1      27.451  46.248  54.525  1.00  0.00     0.088 A 
HETATM   12  C   UNL     1      26.592  47.198  55.042  1.00  0.00     0.041 A 
HETATM   13  C   UNL     1      25.775  47.638  53.976  1.00  0.00     0.045 A 
BRANCH  11  14
HETATM   14  C   UNL     1      28.569  45.468  55.056  1.00  0.00     0.020 A 
HETATM   15  C   UNL     1      28.834  44.136  54.678  1.00  0.00     0.048 A 
HETATM   16 CL   UNL     1      27.825  43.247  53.586  1.00  0.00    -0.083 Cl
HETATM   17  C   UNL     1      29.926  43.439  55.213  1.00  0.00     0.048 A 
HETATM   18  C   UNL     1      30.759  44.060  56.137  1.00  0.00     0.035 A 
HETATM   19 CL   UNL     1      32.094  43.200  56.795  1.00  0.00    -0.084 Cl
HETATM   20  C   UNL     1      30.513  45.368  56.535  1.00  0.00     0.025 A 
HETATM   21  C   UNL     1      29.426  46.066  55.999  1.00  0.00     0.017 A 
ENDBRANCH  11  14
ENDBRANCH   6   9
ENDBRANCH   2   5
BRANCH   1  22
HETATM   22  C   UNL     1      22.782  45.718  48.743  1.00  0.00     0.034 A 
HETATM   23  C   UNL     1      22.622  47.077  48.498  1.00  0.00     0.032 A 
HETATM   24  C   UNL     1      21.373  47.589  48.106  1.00  0.00     0.031 A 
HETATM   25  C   UNL     1      20.257  46.759  47.944  1.00  0.00     0.030 A 
HETATM   26  C   UNL     1      20.428  45.403  48.268  1.00  0.00     0.031 A 
HETATM   27  C   UNL     1      21.664  44.891  48.673  1.00  0.00     0.032 A 
BRANCH  25  28
HETATM   28  N   UNL     1      19.010  47.206  47.509  1.00  0.00    -0.378 N 
HETATM   29  C   UNL     1      19.027  48.268  46.483  1.00  0.00     0.150 C 
HETATM   30  C   UNL     1      18.869  49.663  47.127  1.00  0.00     0.254 C 
HETATM   31  N   UNL     1      17.590  49.710  47.974  1.00  0.00    -0.068 N 
HETATM   32  H   UNL     1      16.807  49.461  47.355  1.00  0.00     0.280 HD
HETATM   33  C   UNL     1      17.652  48.624  49.057  1.00  0.00     0.254 C 
HETATM   34  C   UNL     1      17.858  47.233  48.423  1.00  0.00     0.150 C 
BRANCH  31  35
HETATM   35  C   UNL     1      17.304  51.065  48.570  1.00  0.00     0.230 C 
HETATM   36  C   UNL     1      18.089  52.149  47.853  1.00  0.00     0.034 C 
ENDBRANCH  31  35
ENDBRANCH  25  28
ENDBRANCH   1  22
TORSDOF 6
ENDMDL
MODEL 8
REMARK VINA RESULT:      -8.2      6.769     10.529
REMARK  6 active torsions:
REMARK  status: ('A' for Active; 'I' for Inactive)
REMARK    1  A    between atoms: C_2  and  N_3 
REMARK    2  A    between atoms: N_7  and  C_8 
REMARK    3  A    between atoms: C_11  and  N_12 
REMARK    4  A    between atoms: C_13  and  N_14 
REMARK       I    between atoms: N_14  and  C_15 
REMARK    5  A    between atoms: C_15  and  C_16 
REMARK    6  A    between atoms: C_18  and  C_19 
ROOT
HETATM    1  N   UNL     1      24.398  48.021  49.252  1.00  0.00    -0.338 N 
HETATM    2  C   UNL     1      23.393  48.917  49.283  1.00  0.00     0.157 C 
HETATM    3  S   UNL     1      23.661  50.427  48.606  1.00  0.00    -0.047 SA
HETATM    4  H   UNL     1      25.123  48.265  48.583  1.00  0.00     0.168 HD
ENDROOT
BRANCH   2   5
HETATM    5  N   UNL     1      22.137  48.645  49.725  1.00  0.00    -0.199 NA
HETATM    6  C   UNL     1      21.069  48.209  48.944  1.00  0.00     0.261 C 
HETATM    7  O   UNL     1      21.001  47.114  48.397  1.00  0.00    -0.271 OA
HETATM    8  H   UNL     1      21.857  49.413  50.329  1.00  0.00     0.139 HD
BRANCH   6   9
HETATM    9  C   UNL     1      19.937  49.117  48.967  1.00  0.00     0.138 A 
HETATM   10  O   UNL     1      18.975  49.021  47.997  1.00  0.00    -0.305 OA
HETATM   11  C   UNL     1      17.988  49.923  48.303  1.00  0.00     0.088 A 
HETATM   12  C   UNL     1      18.365  50.648  49.416  1.00  0.00     0.041 A 
HETATM   13  C   UNL     1      19.599  50.117  49.855  1.00  0.00     0.045 A 
BRANCH  11  14
HETATM   14  C   UNL     1      16.814  49.906  47.430  1.00  0.00     0.020 A 
HETATM   15  C   UNL     1      16.564  50.886  46.448  1.00  0.00     0.048 A 
HETATM   16 CL   UNL     1      17.589  52.261  46.205  1.00  0.00    -0.083 Cl
HETATM   17  C   UNL     1      15.426  50.814  45.633  1.00  0.00     0.048 A 
HETATM   18  C   UNL     1      14.521  49.771  45.795  1.00  0.00     0.035 A 
HETATM   19 CL   UNL     1      13.124  49.691  44.798  1.00  0.00    -0.084 Cl
HETATM   20  C   UNL     1      14.738  48.798  46.764  1.00  0.00     0.025 A 
HETATM   21  C   UNL     1      15.876  48.866  47.575  1.00  0.00     0.017 A 
ENDBRANCH  11  14
ENDBRANCH   6   9
ENDBRANCH   2   5
BRANCH   1  22
HETATM   22  C   UNL     1      24.744  46.973  50.121  1.00  0.00     0.034 A 
HETATM   23  C   UNL     1      24.154  45.714  50.098  1.00  0.00     0.032 A 
HETATM   24  C   UNL     1      24.554  44.721  51.008  1.00  0.00     0.031 A 
HETATM   25  C   UNL     1      25.556  44.956  51.958  1.00  0.00     0.030 A 
HETATM   26  C   UNL     1      26.084  46.256  52.009  1.00  0.00     0.031 A 
HETATM   27  C   UNL     1      25.678  47.253  51.116  1.00  0.00     0.032 A 
BRANCH  25  28
HETATM   28  N   UNL     1      26.026  43.992  52.850  1.00  0.00    -0.378 N 
HETATM   29  C   UNL     1      25.874  44.312  54.284  1.00  0.00     0.150 C 
HETATM   30  C   UNL     1      27.173  44.918  54.858  1.00  0.00     0.254 C 
HETATM   31  N   UNL     1      28.352  43.966  54.608  1.00  0.00    -0.068 N 
HETATM   32  H   UNL     1      28.107  43.062  55.033  1.00  0.00     0.280 HD
HETATM   33  C   UNL     1      28.498  43.715  53.101  1.00  0.00     0.254 C 
HETATM   34  C   UNL     1      27.187  43.155  52.512  1.00  0.00     0.150 C 
BRANCH  31  35
HETATM   35  C   UNL     1      29.651  44.433  55.216  1.00  0.00     0.230 C 
HETATM   36  C   UNL     1      30.600  43.268  55.427  1.00  0.00     0.034 C 
ENDBRANCH  31  35
ENDBRANCH  25  28
ENDBRANCH   1  22
TORSDOF 6
ENDMDL
MODEL 9
REMARK VINA RESULT:      -8.2      3.758      7.283
REMARK  6 active torsions:
REMARK  status: ('A' for Active; 'I' for Inactive)
REMARK    1  A    between atoms: C_2  and  N_3 
REMARK    2  A    between atoms: N_7  and  C_8 
REMARK    3  A    between atoms: C_11  and  N_12 
REMARK    4  A    between atoms: C_13  and  N_14 
REMARK       I    between atoms: N_14  and  C_15 
REMARK    5  A    between atoms: C_15  and  C_16 
REMARK    6  A    between atoms: C_18  and  C_19 
ROOT
HETATM    1  N   UNL     1      23.882  44.115  48.155  1.00  0.00    -0.338 N 
HETATM    2  C   UNL     1      24.723  43.488  49.000  1.00  0.00     0.157 C 
HETATM    3  S   UNL     1      25.187  41.919  48.632  1.00  0.00    -0.047 SA
HETATM    4  H   UNL     1      23.830  43.664  47.246  1.00  0.00     0.168 HD
ENDROOT
BRANCH   2   5
HETATM    5  N   UNL     1      25.313  44.078  50.073  1.00  0.00    -0.199 NA
HETATM    6  C   UNL     1      26.677  44.305  50.237  1.00  0.00     0.261 C 
HETATM    7  O   UNL     1      27.343  45.090  49.572  1.00  0.00    -0.271 OA
HETATM    8  H   UNL     1      24.910  43.658  50.906  1.00  0.00     0.139 HD
BRANCH   6   9
HETATM    9  C   UNL     1      27.229  43.640  51.404  1.00  0.00     0.138 A 
HETATM   10  O   UNL     1      27.903  44.373  52.344  1.00  0.00    -0.305 OA
HETATM   11  C   UNL     1      28.234  43.527  53.370  1.00  0.00     0.088 A 
HETATM   12  C   UNL     1      27.847  42.242  53.041  1.00  0.00     0.041 A 
HETATM   13  C   UNL     1      27.183  42.318  51.796  1.00  0.00     0.045 A 
BRANCH  11  14
HETATM   14  C   UNL     1      28.882  44.146  54.526  1.00  0.00     0.020 A 
HETATM   15  C   UNL     1      28.362  45.275  55.193  1.00  0.00     0.048 A 
HETATM   16 CL   UNL     1      26.926  46.096  54.677  1.00  0.00    -0.083 Cl
HETATM   17  C   UNL     1      29.020  45.822  56.302  1.00  0.00     0.048 A 
HETATM   18  C   UNL     1      30.207  45.256  56.753  1.00  0.00     0.035 A 
HETATM   19 CL   UNL     1      31.015  45.934  58.111  1.00  0.00    -0.084 Cl
HETATM   20  C   UNL     1      30.748  44.151  56.106  1.00  0.00     0.025 A 
HETATM   21  C   UNL     1      30.089  43.601  55.001  1.00  0.00     0.017 A 
ENDBRANCH  11  14
ENDBRANCH   6   9
ENDBRANCH   2   5
BRANCH   1  22
HETATM   22  C   UNL     1      22.904  45.100  48.368  1.00  0.00     0.034 A 
HETATM   23  C   UNL     1      21.535  44.868  48.296  1.00  0.00     0.032 A 
HETATM   24  C   UNL     1      20.622  45.912  48.518  1.00  0.00     0.031 A 
HETATM   25  C   UNL     1      21.050  47.210  48.822  1.00  0.00     0.030 A 
HETATM   26  C   UNL     1      22.436  47.434  48.817  1.00  0.00     0.031 A 
HETATM   27  C   UNL     1      23.350  46.403  48.582  1.00  0.00     0.032 A 
BRANCH  25  28
HETATM   28  N   UNL     1      20.187  48.271  49.101  1.00  0.00    -0.378 N 
HETATM   29  C   UNL     1      18.772  48.066  48.729  1.00  0.00     0.150 C 
HETATM   30  C   UNL     1      18.466  48.688  47.349  1.00  0.00     0.254 C 
HETATM   31  N   UNL     1      18.846  50.175  47.347  1.00  0.00    -0.068 N 
HETATM   32  H   UNL     1      18.327  50.622  48.114  1.00  0.00     0.280 HD
HETATM   33  C   UNL     1      20.336  50.324  47.683  1.00  0.00     0.254 C 
HETATM   34  C   UNL     1      20.658  49.662  49.039  1.00  0.00     0.150 C 
BRANCH  31  35
HETATM   35  C   UNL     1      18.497  50.891  46.066  1.00  0.00     0.230 C 
HETATM   36  C   UNL     1      17.012  51.198  46.005  1.00  0.00     0.034 C 
ENDBRANCH  31  35
ENDBRANCH  25  28
ENDBRANCH   1  22
TORSDOF 6
ENDMDL
MODEL 10
REMARK VINA RESULT:      -8.2      4.022      7.997
REMARK  6 active torsions:
REMARK  status: ('A' for Active; 'I' for Inactive)
REMARK    1  A    between atoms: C_2  and  N_3 
REMARK    2  A    between atoms: N_7  and  C_8 
REMARK    3  A    between atoms: C_11  and  N_12 
REMARK    4  A    between atoms: C_13  and  N_14 
REMARK       I    between atoms: N_14  and  C_15 
REMARK    5  A    between atoms: C_15  and  C_16 
REMARK    6  A    between atoms: C_18  and  C_19 
ROOT
HETATM    1  N   UNL     1      24.964  49.456  49.019  1.00  0.00    -0.338 N 
HETATM    2  C   UNL     1      25.596  48.411  49.587  1.00  0.00     0.157 C 
HETATM    3  S   UNL     1      27.214  48.171  49.218  1.00  0.00    -0.047 SA
HETATM    4  H   UNL     1      25.607  50.144  48.637  1.00  0.00     0.168 HD
ENDROOT
BRANCH   2   5
HETATM    5  N   UNL     1      25.043  47.599  50.527  1.00  0.00    -0.199 NA
HETATM    6  C   UNL     1      25.739  46.810  51.440  1.00  0.00     0.261 C 
HETATM    7  O   UNL     1      26.421  47.241  52.363  1.00  0.00    -0.271 OA
HETATM    8  H   UNL     1      24.308  47.067  50.071  1.00  0.00     0.139 HD
BRANCH   6   9
HETATM    9  C   UNL     1      25.448  45.394  51.308  1.00  0.00     0.138 A 
HETATM   10  O   UNL     1      26.480  44.497  51.228  1.00  0.00    -0.305 OA
HETATM   11  C   UNL     1      25.934  43.240  51.202  1.00  0.00     0.088 A 
HETATM   12  C   UNL     1      24.558  43.343  51.179  1.00  0.00     0.041 A 
HETATM   13  C   UNL     1      24.246  44.719  51.271  1.00  0.00     0.045 A 
BRANCH  11  14
HETATM   14  C   UNL     1      26.887  42.129  51.214  1.00  0.00     0.020 A 
HETATM   15  C   UNL     1      27.717  41.833  52.314  1.00  0.00     0.048 A 
HETATM   16 CL   UNL     1      27.750  42.792  53.757  1.00  0.00    -0.083 Cl
HETATM   17  C   UNL     1      28.606  40.750  52.274  1.00  0.00     0.048 A 
HETATM   18  C   UNL     1      28.683  39.957  51.135  1.00  0.00     0.035 A 
HETATM   19 CL   UNL     1      29.778  38.634  51.087  1.00  0.00    -0.084 Cl
HETATM   20  C   UNL     1      27.883  40.235  50.032  1.00  0.00     0.025 A 
HETATM   21  C   UNL     1      26.993  41.314  50.072  1.00  0.00     0.017 A 
ENDBRANCH  11  14
ENDBRANCH   6   9
ENDBRANCH   2   5
BRANCH   1  22
HETATM   22  C   UNL     1      23.624  49.649  48.646  1.00  0.00     0.034 A 
HETATM   23  C   UNL     1      22.815  48.656  48.103  1.00  0.00     0.032 A 
HETATM   24  C   UNL     1      21.484  48.934  47.752  1.00  0.00     0.031 A 
HETATM   25  C   UNL     1      20.925  50.205  47.938  1.00  0.00     0.030 A 
HETATM   26  C   UNL     1      21.783  51.207  48.419  1.00  0.00     0.031 A 
HETATM   27  C   UNL     1      23.113  50.940  48.756  1.00  0.00     0.032 A 
BRANCH  25  28
HETATM   28  N   UNL     1      19.596  50.521  47.653  1.00  0.00    -0.378 N 
HETATM   29  C   UNL     1      18.722  50.747  48.823  1.00  0.00     0.150 C 
HETATM   30  C   UNL     1      17.935  49.468  49.181  1.00  0.00     0.254 C 
HETATM   31  N   UNL     1      17.140  48.981  47.962  1.00  0.00    -0.068 N 
HETATM   32  H   UNL     1      16.534  49.757  47.665  1.00  0.00     0.280 HD
HETATM   33  C   UNL     1      18.102  48.708  46.797  1.00  0.00     0.254 C 
HETATM   34  C   UNL     1      18.927  49.969  46.466  1.00  0.00     0.150 C 
BRANCH  31  35
HETATM   35  C   UNL     1      16.265  47.785  48.243  1.00  0.00     0.230 C 
HETATM   36  C   UNL     1      17.106  46.542  48.473  1.00  0.00     0.034 C 
ENDBRANCH  31  35
ENDBRANCH  25  28
ENDBRANCH   1  22
TORSDOF 6
ENDMDL
