MODEL 1
REMARK VINA RESULT:      -8.7      0.000      0.000
REMARK  7 active torsions:
REMARK  status: ('A' for Active; 'I' for Inactive)
REMARK    1  A    between atoms: O_2  and  C_3 
REMARK    2  A    between atoms: C_5  and  C_6 
REMARK    3  A    between atoms: C_6  and  N_7 
REMARK    4  A    between atoms: C_6  and  C_13 
REMARK    5  A    between atoms: C_13  and  N_14 
REMARK       I    between atoms: N_14  and  C_15 
REMARK       I    between atoms: C_15  and  N_16 
REMARK    6  A    between atoms: N_16  and  C_17 
REMARK    7  A    between atoms: C_18  and  O_19 
ROOT
HETATM    1  N   UNL     1      24.778  47.158  51.520  1.00  0.00    -0.341 N 
HETATM    2  C   UNL     1      24.556  47.435  50.194  1.00  0.00     0.316 C 
HETATM    3  N   UNL     1      23.240  47.628  49.919  1.00  0.00    -0.332 N 
HETATM    4  O   UNL     1      25.465  47.606  49.394  1.00  0.00    -0.247 OA
HETATM    5  H   UNL     1      24.003  46.705  51.988  1.00  0.00     0.164 HD
HETATM    6  H   UNL     1      22.577  47.037  50.403  1.00  0.00     0.165 HD
ENDROOT
BRANCH   1   7
HETATM    7  C   UNL     1      26.122  46.834  51.982  1.00  0.00     0.162 C 
BRANCH   7   8
HETATM    8  C   UNL     1      26.292  45.479  52.749  1.00  0.00     0.238 C 
BRANCH   8   9
HETATM    9  C   UNL     1      27.325  45.560  53.868  1.00  0.00    -0.023 A 
HETATM   10  C   UNL     1      28.228  44.494  54.031  1.00  0.00     0.046 A 
HETATM   11  C   UNL     1      29.195  44.503  55.041  1.00  0.00     0.068 A 
HETATM   12  C   UNL     1      29.288  45.603  55.889  1.00  0.00     0.037 A 
HETATM   13  C   UNL     1      28.409  46.677  55.732  1.00  0.00     0.003 A 
HETATM   14  C   UNL     1      27.434  46.658  54.733  1.00  0.00     0.009 A 
BRANCH  11  15
HETATM   15  O   UNL     1      29.983  43.387  55.082  1.00  0.00    -0.356 OA
HETATM   16  C   UNL     1      31.023  43.374  56.055  1.00  0.00     0.210 C 
ENDBRANCH  11  15
ENDBRANCH   8   9
BRANCH   8  17
HETATM   17  N   UNL     1      26.585  44.272  51.848  1.00  0.00    -0.061 N 
HETATM   18  H   UNL     1      27.257  43.722  52.399  1.00  0.00     0.280 HD
HETATM   19  C   UNL     1      27.242  44.520  50.517  1.00  0.00     0.236 C 
HETATM   20  C   UNL     1      26.163  44.205  49.502  1.00  0.00     0.029 C 
HETATM   21  C   UNL     1      25.437  43.033  50.126  1.00  0.00     0.029 C 
HETATM   22  C   UNL     1      25.403  43.350  51.611  1.00  0.00     0.236 C 
ENDBRANCH   8  17
ENDBRANCH   7   8
ENDBRANCH   1   7
BRANCH   3  23
HETATM   23  C   UNL     1      22.829  47.942  48.561  1.00  0.00     0.149 C 
HETATM   24  C   UNL     1      21.934  46.839  47.921  1.00  0.00     0.149 C 
HETATM   25  C   UNL     1      20.922  47.566  47.016  1.00  0.00     0.073 C 
HETATM   26  C   UNL     1      20.859  48.929  47.640  1.00  0.00    -0.047 A 
HETATM   27  C   UNL     1      21.933  49.146  48.509  1.00  0.00    -0.026 A 
HETATM   28  C   UNL     1      19.925  49.923  47.394  1.00  0.00     0.008 A 
HETATM   29  C   UNL     1      22.095  50.370  49.145  1.00  0.00     0.010 A 
HETATM   30  C   UNL     1      21.152  51.373  48.912  1.00  0.00     0.001 A 
HETATM   31  C   UNL     1      20.074  51.149  48.042  1.00  0.00     0.001 A 
BRANCH  24  32
HETATM   32  O   UNL     1      21.220  46.106  48.937  1.00  0.00    -0.393 OA
HETATM   33  H   UNL     1      21.794  46.097  49.723  1.00  0.00     0.210 HD
ENDBRANCH  24  32
ENDBRANCH   3  23
TORSDOF 7
ENDMDL
MODEL 2
REMARK VINA RESULT:      -8.6      4.156      9.119
REMARK  7 active torsions:
REMARK  status: ('A' for Active; 'I' for Inactive)
REMARK    1  A    between atoms: O_2  and  C_3 
REMARK    2  A    between atoms: C_5  and  C_6 
REMARK    3  A    between atoms: C_6  and  N_7 
REMARK    4  A    between atoms: C_6  and  C_13 
REMARK    5  A    between atoms: C_13  and  N_14 
REMARK       I    between atoms: N_14  and  C_15 
REMARK       I    between atoms: C_15  and  N_16 
REMARK    6  A    between atoms: N_16  and  C_17 
REMARK    7  A    between atoms: C_18  and  O_19 
ROOT
HETATM    1  N   UNL     1      28.074  41.526  52.541  1.00  0.00    -0.341 N 
HETATM    2  C   UNL     1      28.852  42.624  52.815  1.00  0.00     0.316 C 
HETATM    3  N   UNL     1      28.338  43.385  53.817  1.00  0.00    -0.332 N 
HETATM    4  O   UNL     1      29.941  42.809  52.292  1.00  0.00    -0.247 OA
HETATM    5  H   UNL     1      27.091  41.649  52.746  1.00  0.00     0.164 HD
HETATM    6  H   UNL     1      27.332  43.490  53.846  1.00  0.00     0.165 HD
ENDROOT
BRANCH   1   7
HETATM    7  C   UNL     1      28.424  40.644  51.435  1.00  0.00     0.162 C 
BRANCH   7   8
HETATM    8  C   UNL     1      27.854  41.026  50.026  1.00  0.00     0.238 C 
BRANCH   8   9
HETATM    9  C   UNL     1      26.720  42.041  50.103  1.00  0.00    -0.023 A 
HETATM   10  C   UNL     1      26.966  43.361  49.684  1.00  0.00     0.046 A 
HETATM   11  C   UNL     1      25.971  44.342  49.735  1.00  0.00     0.068 A 
HETATM   12  C   UNL     1      24.697  44.002  50.182  1.00  0.00     0.037 A 
HETATM   13  C   UNL     1      24.431  42.693  50.589  1.00  0.00     0.003 A 
HETATM   14  C   UNL     1      25.431  41.719  50.553  1.00  0.00     0.009 A 
BRANCH  11  15
HETATM   15  O   UNL     1      26.371  45.578  49.313  1.00  0.00    -0.356 OA
HETATM   16  C   UNL     1      26.133  46.666  50.201  1.00  0.00     0.210 C 
ENDBRANCH  11  15
ENDBRANCH   8   9
BRANCH   8  17
HETATM   17  N   UNL     1      27.432  39.827  49.167  1.00  0.00    -0.061 N 
HETATM   18  H   UNL     1      26.420  39.756  49.340  1.00  0.00     0.280 HD
HETATM   19  C   UNL     1      28.008  38.477  49.495  1.00  0.00     0.236 C 
HETATM   20  C   UNL     1      28.929  38.170  48.334  1.00  0.00     0.029 C 
HETATM   21  C   UNL     1      28.189  38.748  47.147  1.00  0.00     0.029 C 
HETATM   22  C   UNL     1      27.573  40.034  47.669  1.00  0.00     0.236 C 
ENDBRANCH   8  17
ENDBRANCH   7   8
ENDBRANCH   1   7
BRANCH   3  23
HETATM   23  C   UNL     1      29.043  44.582  54.242  1.00  0.00     0.149 C 
HETATM   24  C   UNL     1      28.088  45.721  54.710  1.00  0.00     0.149 C 
HETATM   25  C   UNL     1      28.809  46.453  55.858  1.00  0.00     0.073 C 
HETATM   26  C   UNL     1      29.735  45.394  56.380  1.00  0.00    -0.047 A 
HETATM   27  C   UNL     1      29.872  44.339  55.471  1.00  0.00    -0.026 A 
HETATM   28  C   UNL     1      30.447  45.412  57.568  1.00  0.00     0.008 A 
HETATM   29  C   UNL     1      30.733  43.282  55.735  1.00  0.00     0.010 A 
HETATM   30  C   UNL     1      31.445  43.287  56.937  1.00  0.00     0.001 A 
HETATM   31  C   UNL     1      31.302  44.345  57.846  1.00  0.00     0.001 A 
BRANCH  24  32
HETATM   32  O   UNL     1      26.846  45.178  55.201  1.00  0.00    -0.393 OA
HETATM   33  H   UNL     1      26.883  45.242  56.172  1.00  0.00     0.210 HD
ENDBRANCH  24  32
ENDBRANCH   3  23
TORSDOF 7
ENDMDL
MODEL 3
REMARK VINA RESULT:      -8.6      2.014      9.075
REMARK  7 active torsions:
REMARK  status: ('A' for Active; 'I' for Inactive)
REMARK    1  A    between atoms: O_2  and  C_3 
REMARK    2  A    between atoms: C_5  and  C_6 
REMARK    3  A    between atoms: C_6  and  N_7 
REMARK    4  A    between atoms: C_6  and  C_13 
REMARK    5  A    between atoms: C_13  and  N_14 
REMARK       I    between atoms: N_14  and  C_15 
REMARK       I    between atoms: C_15  and  N_16 
REMARK    6  A    between atoms: N_16  and  C_17 
REMARK    7  A    between atoms: C_18  and  O_19 
ROOT
HETATM    1  N   UNL     1      26.047  46.798  52.286  1.00  0.00    -0.341 N 
HETATM    2  C   UNL     1      26.220  45.577  52.888  1.00  0.00     0.316 C 
HETATM    3  N   UNL     1      27.415  45.481  53.528  1.00  0.00    -0.332 N 
HETATM    4  O   UNL     1      25.337  44.732  52.935  1.00  0.00    -0.247 OA
HETATM    5  H   UNL     1      26.907  47.252  52.005  1.00  0.00     0.164 HD
HETATM    6  H   UNL     1      28.213  45.913  53.082  1.00  0.00     0.165 HD
ENDROOT
BRANCH   1   7
HETATM    7  C   UNL     1      24.861  47.050  51.476  1.00  0.00     0.162 C 
BRANCH   7   8
HETATM    8  C   UNL     1      25.073  47.123  49.926  1.00  0.00     0.238 C 
BRANCH   8   9
HETATM    9  C   UNL     1      24.438  48.360  49.301  1.00  0.00    -0.023 A 
HETATM   10  C   UNL     1      23.067  48.597  49.515  1.00  0.00     0.046 A 
HETATM   11  C   UNL     1      22.422  49.709  48.966  1.00  0.00     0.068 A 
HETATM   12  C   UNL     1      23.156  50.622  48.213  1.00  0.00     0.037 A 
HETATM   13  C   UNL     1      24.520  50.411  48.002  1.00  0.00     0.003 A 
HETATM   14  C   UNL     1      25.158  49.290  48.539  1.00  0.00     0.009 A 
BRANCH  11  15
HETATM   15  O   UNL     1      21.088  49.787  49.248  1.00  0.00    -0.356 OA
HETATM   16  C   UNL     1      20.353  48.567  49.210  1.00  0.00     0.210 C 
ENDBRANCH  11  15
ENDBRANCH   8   9
BRANCH   8  17
HETATM   17  N   UNL     1      24.636  45.865  49.165  1.00  0.00    -0.061 N 
HETATM   18  H   UNL     1      24.685  46.154  48.179  1.00  0.00     0.280 HD
HETATM   19  C   UNL     1      23.237  45.353  49.380  1.00  0.00     0.236 C 
HETATM   20  C   UNL     1      23.425  44.054  50.135  1.00  0.00     0.029 C 
HETATM   21  C   UNL     1      24.683  43.480  49.521  1.00  0.00     0.029 C 
HETATM   22  C   UNL     1      25.580  44.683  49.289  1.00  0.00     0.236 C 
ENDBRANCH   8  17
ENDBRANCH   7   8
ENDBRANCH   1   7
BRANCH   3  23
HETATM   23  C   UNL     1      27.756  44.255  54.229  1.00  0.00     0.149 C 
HETATM   24  C   UNL     1      28.229  43.117  53.277  1.00  0.00     0.149 C 
HETATM   25  C   UNL     1      29.308  42.326  54.041  1.00  0.00     0.073 C 
HETATM   26  C   UNL     1      29.821  43.346  55.014  1.00  0.00    -0.047 A 
HETATM   27  C   UNL     1      28.948  44.433  55.126  1.00  0.00    -0.026 A 
HETATM   28  C   UNL     1      30.969  43.267  55.786  1.00  0.00     0.008 A 
HETATM   29  C   UNL     1      29.207  45.462  56.021  1.00  0.00     0.010 A 
HETATM   30  C   UNL     1      30.369  45.397  56.794  1.00  0.00     0.001 A 
HETATM   31  C   UNL     1      31.243  44.306  56.676  1.00  0.00     0.001 A 
BRANCH  24  32
HETATM   32  O   UNL     1      28.805  43.662  52.073  1.00  0.00    -0.393 OA
HETATM   33  H   UNL     1      28.336  43.242  51.330  1.00  0.00     0.210 HD
ENDBRANCH  24  32
ENDBRANCH   3  23
TORSDOF 7
ENDMDL
MODEL 4
REMARK VINA RESULT:      -8.6      2.256      3.214
REMARK  7 active torsions:
REMARK  status: ('A' for Active; 'I' for Inactive)
REMARK    1  A    between atoms: O_2  and  C_3 
REMARK    2  A    between atoms: C_5  and  C_6 
REMARK    3  A    between atoms: C_6  and  N_7 
REMARK    4  A    between atoms: C_6  and  C_13 
REMARK    5  A    between atoms: C_13  and  N_14 
REMARK       I    between atoms: N_14  and  C_15 
REMARK       I    between atoms: C_15  and  N_16 
REMARK    6  A    between atoms: N_16  and  C_17 
REMARK    7  A    between atoms: C_18  and  O_19 
ROOT
HETATM    1  N   UNL     1      23.497  48.087  50.051  1.00  0.00    -0.341 N 
HETATM    2  C   UNL     1      22.532  48.026  49.077  1.00  0.00     0.316 C 
HETATM    3  N   UNL     1      21.402  48.695  49.426  1.00  0.00    -0.332 N 
HETATM    4  O   UNL     1      22.733  47.528  47.979  1.00  0.00    -0.247 OA
HETATM    5  H   UNL     1      23.136  48.189  50.992  1.00  0.00     0.164 HD
HETATM    6  H   UNL     1      21.111  48.635  50.392  1.00  0.00     0.165 HD
ENDROOT
BRANCH   1   7
HETATM    7  C   UNL     1      24.744  47.351  49.889  1.00  0.00     0.162 C 
BRANCH   7   8
HETATM    8  C   UNL     1      24.732  45.845  50.321  1.00  0.00     0.238 C 
BRANCH   8   9
HETATM    9  C   UNL     1      25.213  45.638  51.753  1.00  0.00    -0.023 A 
HETATM   10  C   UNL     1      25.921  46.677  52.384  1.00  0.00     0.046 A 
HETATM   11  C   UNL     1      26.395  46.549  53.693  1.00  0.00     0.068 A 
HETATM   12  C   UNL     1      26.137  45.379  54.402  1.00  0.00     0.037 A 
HETATM   13  C   UNL     1      25.423  44.343  53.797  1.00  0.00     0.003 A 
HETATM   14  C   UNL     1      24.965  44.467  52.484  1.00  0.00     0.009 A 
BRANCH  11  15
HETATM   15  O   UNL     1      27.081  47.636  54.157  1.00  0.00    -0.356 OA
HETATM   16  C   UNL     1      26.601  48.230  55.360  1.00  0.00     0.210 C 
ENDBRANCH  11  15
ENDBRANCH   8   9
BRANCH   8  17
HETATM   17  N   UNL     1      25.485  44.906  49.371  1.00  0.00    -0.061 N 
HETATM   18  H   UNL     1      25.698  45.505  48.563  1.00  0.00     0.280 HD
HETATM   19  C   UNL     1      24.753  43.711  48.823  1.00  0.00     0.236 C 
HETATM   20  C   UNL     1      25.416  42.525  49.491  1.00  0.00     0.029 C 
HETATM   21  C   UNL     1      26.870  42.940  49.561  1.00  0.00     0.029 C 
HETATM   22  C   UNL     1      26.830  44.423  49.883  1.00  0.00     0.236 C 
ENDBRANCH   8  17
ENDBRANCH   7   8
ENDBRANCH   1   7
BRANCH   3  23
HETATM   23  C   UNL     1      20.282  48.741  48.501  1.00  0.00     0.149 C 
HETATM   24  C   UNL     1      19.127  47.771  48.891  1.00  0.00     0.149 C 
HETATM   25  C   UNL     1      17.814  48.469  48.490  1.00  0.00     0.073 C 
HETATM   26  C   UNL     1      18.203  49.918  48.515  1.00  0.00    -0.047 A 
HETATM   27  C   UNL     1      19.593  50.076  48.518  1.00  0.00    -0.026 A 
HETATM   28  C   UNL     1      17.358  51.015  48.479  1.00  0.00     0.008 A 
HETATM   29  C   UNL     1      20.164  51.341  48.479  1.00  0.00     0.010 A 
HETATM   30  C   UNL     1      19.319  52.453  48.456  1.00  0.00     0.001 A 
HETATM   31  C   UNL     1      17.926  52.290  48.456  1.00  0.00     0.001 A 
BRANCH  24  32
HETATM   32  O   UNL     1      19.119  47.527  50.312  1.00  0.00    -0.393 OA
HETATM   33  H   UNL     1      18.188  47.563  50.591  1.00  0.00     0.210 HD
ENDBRANCH  24  32
ENDBRANCH   3  23
TORSDOF 7
ENDMDL
MODEL 5
REMARK VINA RESULT:      -8.6      2.108      9.088
REMARK  7 active torsions:
REMARK  status: ('A' for Active; 'I' for Inactive)
REMARK    1  A    between atoms: O_2  and  C_3 
REMARK    2  A    between atoms: C_5  and  C_6 
REMARK    3  A    between atoms: C_6  and  N_7 
REMARK    4  A    between atoms: C_6  and  C_13 
REMARK    5  A    between atoms: C_13  and  N_14 
REMARK       I    between atoms: N_14  and  C_15 
REMARK       I    between atoms: C_15  and  N_16 
REMARK    6  A    between atoms: N_16  and  C_17 
REMARK    7  A    between atoms: C_18  and  O_19 
ROOT
HETATM    1  N   UNL     1      25.905  46.306  51.208  1.00  0.00    -0.341 N 
HETATM    2  C   UNL     1      25.963  45.420  52.254  1.00  0.00     0.316 C 
HETATM    3  N   UNL     1      27.104  44.681  52.244  1.00  0.00    -0.332 N 
HETATM    4  O   UNL     1      25.132  45.401  53.151  1.00  0.00    -0.247 OA
HETATM    5  H   UNL     1      26.413  46.013  50.383  1.00  0.00     0.164 HD
HETATM    6  H   UNL     1      27.450  44.382  51.342  1.00  0.00     0.165 HD
ENDROOT
BRANCH   1   7
HETATM    7  C   UNL     1      24.713  47.119  51.008  1.00  0.00     0.162 C 
BRANCH   7   8
HETATM    8  C   UNL     1      24.149  47.191  49.548  1.00  0.00     0.238 C 
BRANCH   8   9
HETATM    9  C   UNL     1      23.725  48.599  49.146  1.00  0.00    -0.023 A 
HETATM   10  C   UNL     1      22.552  49.137  49.707  1.00  0.00     0.046 A 
HETATM   11  C   UNL     1      22.105  50.420  49.377  1.00  0.00     0.068 A 
HETATM   12  C   UNL     1      22.850  51.197  48.496  1.00  0.00     0.037 A 
HETATM   13  C   UNL     1      24.025  50.686  47.940  1.00  0.00     0.003 A 
HETATM   14  C   UNL     1      24.460  49.398  48.259  1.00  0.00     0.009 A 
BRANCH  11  15
HETATM   15  O   UNL     1      20.941  50.789  49.989  1.00  0.00    -0.356 OA
HETATM   16  C   UNL     1      19.981  51.467  49.183  1.00  0.00     0.210 C 
ENDBRANCH  11  15
ENDBRANCH   8   9
BRANCH   8  17
HETATM   17  N   UNL     1      23.018  46.196  49.254  1.00  0.00    -0.061 N 
HETATM   18  H   UNL     1      22.261  46.507  49.878  1.00  0.00     0.280 HD
HETATM   19  C   UNL     1      23.248  44.743  49.569  1.00  0.00     0.236 C 
HETATM   20  C   UNL     1      23.324  44.074  48.213  1.00  0.00     0.029 C 
HETATM   21  C   UNL     1      22.301  44.834  47.397  1.00  0.00     0.029 C 
HETATM   22  C   UNL     1      22.445  46.276  47.851  1.00  0.00     0.236 C 
ENDBRANCH   8  17
ENDBRANCH   7   8
ENDBRANCH   1   7
BRANCH   3  23
HETATM   23  C   UNL     1      27.332  43.699  53.290  1.00  0.00     0.149 C 
HETATM   24  C   UNL     1      27.834  42.329  52.745  1.00  0.00     0.149 C 
HETATM   25  C   UNL     1      28.810  41.770  53.797  1.00  0.00     0.073 C 
HETATM   26  C   UNL     1      29.282  43.015  54.487  1.00  0.00    -0.047 A 
HETATM   27  C   UNL     1      28.451  44.104  54.206  1.00  0.00    -0.026 A 
HETATM   28  C   UNL     1      30.357  43.139  55.353  1.00  0.00     0.008 A 
HETATM   29  C   UNL     1      28.678  45.340  54.796  1.00  0.00     0.010 A 
HETATM   30  C   UNL     1      29.766  45.478  55.660  1.00  0.00     0.001 A 
HETATM   31  C   UNL     1      30.599  44.383  55.936  1.00  0.00     0.001 A 
BRANCH  24  32
HETATM   32  O   UNL     1      28.532  42.500  51.495  1.00  0.00    -0.393 OA
HETATM   33  H   UNL     1      29.208  43.182  51.650  1.00  0.00     0.210 HD
ENDBRANCH  24  32
ENDBRANCH   3  23
TORSDOF 7
ENDMDL
MODEL 6
REMARK VINA RESULT:      -8.4      4.958      8.044
REMARK  7 active torsions:
REMARK  status: ('A' for Active; 'I' for Inactive)
REMARK    1  A    between atoms: O_2  and  C_3 
REMARK    2  A    between atoms: C_5  and  C_6 
REMARK    3  A    between atoms: C_6  and  N_7 
REMARK    4  A    between atoms: C_6  and  C_13 
REMARK    5  A    between atoms: C_13  and  N_14 
REMARK       I    between atoms: N_14  and  C_15 
REMARK       I    between atoms: C_15  and  N_16 
REMARK    6  A    between atoms: N_16  and  C_17 
REMARK    7  A    between atoms: C_18  and  O_19 
ROOT
HETATM    1  N   UNL     1      27.042  41.009  52.111  1.00  0.00    -0.341 N 
HETATM    2  C   UNL     1      27.915  40.307  51.318  1.00  0.00     0.316 C 
HETATM    3  N   UNL     1      27.278  39.579  50.364  1.00  0.00    -0.332 N 
HETATM    4  O   UNL     1      29.129  40.434  51.399  1.00  0.00    -0.247 OA
HETATM    5  H   UNL     1      26.127  40.584  52.203  1.00  0.00     0.164 HD
HETATM    6  H   UNL     1      26.408  39.135  50.628  1.00  0.00     0.165 HD
ENDROOT
BRANCH   1   7
HETATM    7  C   UNL     1      27.542  41.776  53.244  1.00  0.00     0.162 C 
BRANCH   7   8
HETATM    8  C   UNL     1      28.183  43.168  52.921  1.00  0.00     0.238 C 
BRANCH   8   9
HETATM    9  C   UNL     1      29.013  43.718  54.076  1.00  0.00    -0.023 A 
HETATM   10  C   UNL     1      28.561  44.871  54.744  1.00  0.00     0.046 A 
HETATM   11  C   UNL     1      29.278  45.430  55.806  1.00  0.00     0.068 A 
HETATM   12  C   UNL     1      30.451  44.817  56.236  1.00  0.00     0.037 A 
HETATM   13  C   UNL     1      30.908  43.663  55.594  1.00  0.00     0.003 A 
HETATM   14  C   UNL     1      30.198  43.117  54.523  1.00  0.00     0.009 A 
BRANCH  11  15
HETATM   15  O   UNL     1      28.719  46.558  56.336  1.00  0.00    -0.356 OA
HETATM   16  C   UNL     1      27.655  47.153  55.599  1.00  0.00     0.210 C 
ENDBRANCH  11  15
ENDBRANCH   8   9
BRANCH   8  17
HETATM   17  N   UNL     1      27.186  44.229  52.437  1.00  0.00    -0.061 N 
HETATM   18  H   UNL     1      27.539  45.097  52.861  1.00  0.00     0.280 HD
HETATM   19  C   UNL     1      25.750  44.107  52.869  1.00  0.00     0.236 C 
HETATM   20  C   UNL     1      25.006  43.749  51.600  1.00  0.00     0.029 C 
HETATM   21  C   UNL     1      25.732  44.551  50.540  1.00  0.00     0.029 C 
HETATM   22  C   UNL     1      27.195  44.477  50.939  1.00  0.00     0.236 C 
ENDBRANCH   8  17
ENDBRANCH   7   8
ENDBRANCH   1   7
BRANCH   3  23
HETATM   23  C   UNL     1      28.056  38.783  49.430  1.00  0.00     0.149 C 
HETATM   24  C   UNL     1      27.477  37.353  49.214  1.00  0.00     0.149 C 
HETATM   25  C   UNL     1      27.744  36.990  47.742  1.00  0.00     0.073 C 
HETATM   26  C   UNL     1      27.841  38.339  47.093  1.00  0.00    -0.047 A 
HETATM   27  C   UNL     1      28.018  39.352  48.040  1.00  0.00    -0.026 A 
HETATM   28  C   UNL     1      27.825  38.621  45.737  1.00  0.00     0.008 A 
HETATM   29  C   UNL     1      28.191  40.671  47.644  1.00  0.00     0.010 A 
HETATM   30  C   UNL     1      28.164  40.967  46.280  1.00  0.00     0.001 A 
HETATM   31  C   UNL     1      27.981  39.948  45.333  1.00  0.00     0.001 A 
BRANCH  24  32
HETATM   32  O   UNL     1      26.056  37.333  49.457  1.00  0.00    -0.393 OA
HETATM   33  H   UNL     1      25.636  37.690  48.655  1.00  0.00     0.210 HD
ENDBRANCH  24  32
ENDBRANCH   3  23
TORSDOF 7
ENDMDL
MODEL 7
REMARK VINA RESULT:      -8.3      2.452      4.565
REMARK  7 active torsions:
REMARK  status: ('A' for Active; 'I' for Inactive)
REMARK    1  A    between atoms: O_2  and  C_3 
REMARK    2  A    between atoms: C_5  and  C_6 
REMARK    3  A    between atoms: C_6  and  N_7 
REMARK    4  A    between atoms: C_6  and  C_13 
REMARK    5  A    between atoms: C_13  and  N_14 
REMARK       I    between atoms: N_14  and  C_15 
REMARK       I    between atoms: C_15  and  N_16 
REMARK    6  A    between atoms: N_16  and  C_17 
REMARK    7  A    between atoms: C_18  and  O_19 
ROOT
HETATM    1  N   UNL     1      23.537  47.979  49.968  1.00  0.00    -0.341 N 
HETATM    2  C   UNL     1      22.561  48.055  49.007  1.00  0.00     0.316 C 
HETATM    3  N   UNL     1      21.348  48.381  49.526  1.00  0.00    -0.332 N 
HETATM    4  O   UNL     1      22.801  47.958  47.811  1.00  0.00    -0.247 OA
HETATM    5  H   UNL     1      23.200  47.725  50.888  1.00  0.00     0.164 HD
HETATM    6  H   UNL     1      21.108  47.980  50.423  1.00  0.00     0.165 HD
ENDROOT
BRANCH   1   7
HETATM    7  C   UNL     1      24.883  47.552  49.606  1.00  0.00     0.162 C 
BRANCH   7   8
HETATM    8  C   UNL     1      25.492  46.373  50.438  1.00  0.00     0.238 C 
BRANCH   8   9
HETATM    9  C   UNL     1      25.273  45.014  49.782  1.00  0.00    -0.023 A 
HETATM   10  C   UNL     1      26.376  44.156  49.621  1.00  0.00     0.046 A 
HETATM   11  C   UNL     1      26.245  42.899  49.022  1.00  0.00     0.068 A 
HETATM   12  C   UNL     1      24.989  42.471  48.601  1.00  0.00     0.037 A 
HETATM   13  C   UNL     1      23.880  43.303  48.766  1.00  0.00     0.003 A 
HETATM   14  C   UNL     1      24.017  44.565  49.350  1.00  0.00     0.009 A 
BRANCH  11  15
HETATM   15  O   UNL     1      27.411  42.195  48.920  1.00  0.00    -0.356 OA
HETATM   16  C   UNL     1      27.301  40.829  48.530  1.00  0.00     0.210 C 
ENDBRANCH  11  15
ENDBRANCH   8   9
BRANCH   8  17
HETATM   17  N   UNL     1      25.042  46.330  51.903  1.00  0.00    -0.061 N 
HETATM   18  H   UNL     1      24.061  46.636  51.860  1.00  0.00     0.280 HD
HETATM   19  C   UNL     1      25.722  47.245  52.885  1.00  0.00     0.236 C 
HETATM   20  C   UNL     1      26.524  46.317  53.771  1.00  0.00     0.029 C 
HETATM   21  C   UNL     1      25.627  45.104  53.897  1.00  0.00     0.029 C 
HETATM   22  C   UNL     1      25.006  44.943  52.521  1.00  0.00     0.236 C 
ENDBRANCH   8  17
ENDBRANCH   7   8
ENDBRANCH   1   7
BRANCH   3  23
HETATM   23  C   UNL     1      20.202  48.515  48.643  1.00  0.00     0.149 C 
HETATM   24  C   UNL     1      18.961  47.706  49.124  1.00  0.00     0.149 C 
HETATM   25  C   UNL     1      17.721  48.534  48.738  1.00  0.00     0.073 C 
HETATM   26  C   UNL     1      18.275  49.927  48.674  1.00  0.00    -0.047 A 
HETATM   27  C   UNL     1      19.673  49.921  48.618  1.00  0.00    -0.026 A 
HETATM   28  C   UNL     1      17.561  51.112  48.613  1.00  0.00     0.008 A 
HETATM   29  C   UNL     1      20.383  51.107  48.493  1.00  0.00     0.010 A 
HETATM   30  C   UNL     1      19.672  52.308  48.444  1.00  0.00     0.001 A 
HETATM   31  C   UNL     1      18.271  52.309  48.504  1.00  0.00     0.001 A 
BRANCH  24  32
HETATM   32  O   UNL     1      18.986  47.531  50.555  1.00  0.00    -0.393 OA
HETATM   33  H   UNL     1      19.042  48.424  50.939  1.00  0.00     0.210 HD
ENDBRANCH  24  32
ENDBRANCH   3  23
TORSDOF 7
ENDMDL
MODEL 8
REMARK VINA RESULT:      -8.3      4.282      7.714
REMARK  7 active torsions:
REMARK  status: ('A' for Active; 'I' for Inactive)
REMARK    1  A    between atoms: O_2  and  C_3 
REMARK    2  A    between atoms: C_5  and  C_6 
REMARK    3  A    between atoms: C_6  and  N_7 
REMARK    4  A    between atoms: C_6  and  C_13 
REMARK    5  A    between atoms: C_13  and  N_14 
REMARK       I    between atoms: N_14  and  C_15 
REMARK       I    between atoms: C_15  and  N_16 
REMARK    6  A    between atoms: N_16  and  C_17 
REMARK    7  A    between atoms: C_18  and  O_19 
ROOT
HETATM    1  N   UNL     1      27.217  42.469  51.454  1.00  0.00    -0.341 N 
HETATM    2  C   UNL     1      27.950  41.381  51.048  1.00  0.00     0.316 C 
HETATM    3  N   UNL     1      27.650  41.000  49.779  1.00  0.00    -0.332 N 
HETATM    4  O   UNL     1      28.851  40.903  51.721  1.00  0.00    -0.247 OA
HETATM    5  H   UNL     1      26.312  42.553  51.009  1.00  0.00     0.164 HD
HETATM    6  H   UNL     1      26.679  41.057  49.498  1.00  0.00     0.165 HD
ENDROOT
BRANCH   1   7
HETATM    7  C   UNL     1      27.342  42.962  52.820  1.00  0.00     0.162 C 
BRANCH   7   8
HETATM    8  C   UNL     1      27.599  44.498  52.990  1.00  0.00     0.238 C 
BRANCH   8   9
HETATM    9  C   UNL     1      28.439  44.823  54.220  1.00  0.00    -0.023 A 
HETATM   10  C   UNL     1      29.453  43.925  54.601  1.00  0.00     0.046 A 
HETATM   11  C   UNL     1      30.255  44.160  55.722  1.00  0.00     0.068 A 
HETATM   12  C   UNL     1      30.068  45.323  56.464  1.00  0.00     0.037 A 
HETATM   13  C   UNL     1      29.075  46.232  56.093  1.00  0.00     0.003 A 
HETATM   14  C   UNL     1      28.265  45.986  54.983  1.00  0.00     0.009 A 
BRANCH  11  15
HETATM   15  O   UNL     1      31.181  43.187  55.972  1.00  0.00    -0.356 OA
HETATM   16  C   UNL     1      31.885  43.275  57.207  1.00  0.00     0.210 C 
ENDBRANCH  11  15
ENDBRANCH   8   9
BRANCH   8  17
HETATM   17  N   UNL     1      26.329  45.359  52.977  1.00  0.00    -0.061 N 
HETATM   18  H   UNL     1      26.369  45.856  53.876  1.00  0.00     0.280 HD
HETATM   19  C   UNL     1      24.996  44.662  52.943  1.00  0.00     0.236 C 
HETATM   20  C   UNL     1      24.448  44.968  51.565  1.00  0.00     0.029 C 
HETATM   21  C   UNL     1      24.910  46.388  51.319  1.00  0.00     0.029 C 
HETATM   22  C   UNL     1      26.305  46.445  51.916  1.00  0.00     0.236 C 
ENDBRANCH   8  17
ENDBRANCH   7   8
ENDBRANCH   1   7
BRANCH   3  23
HETATM   23  C   UNL     1      28.343  39.869  49.186  1.00  0.00     0.149 C 
HETATM   24  C   UNL     1      27.762  38.494  49.632  1.00  0.00     0.149 C 
HETATM   25  C   UNL     1      27.891  37.551  48.420  1.00  0.00     0.073 C 
HETATM   26  C   UNL     1      27.910  38.512  47.269  1.00  0.00    -0.047 A 
HETATM   27  C   UNL     1      28.166  39.819  47.695  1.00  0.00    -0.026 A 
HETATM   28  C   UNL     1      27.761  38.214  45.924  1.00  0.00     0.008 A 
HETATM   29  C   UNL     1      28.286  40.855  46.778  1.00  0.00     0.010 A 
HETATM   30  C   UNL     1      28.124  40.566  45.421  1.00  0.00     0.001 A 
HETATM   31  C   UNL     1      27.863  39.254  44.998  1.00  0.00     0.001 A 
BRANCH  24  32
HETATM   32  O   UNL     1      26.372  38.617  49.990  1.00  0.00    -0.393 OA
HETATM   33  H   UNL     1      26.158  37.836  50.531  1.00  0.00     0.210 HD
ENDBRANCH  24  32
ENDBRANCH   3  23
TORSDOF 7
ENDMDL
MODEL 9
REMARK VINA RESULT:      -8.1      4.531      9.425
REMARK  7 active torsions:
REMARK  status: ('A' for Active; 'I' for Inactive)
REMARK    1  A    between atoms: O_2  and  C_3 
REMARK    2  A    between atoms: C_5  and  C_6 
REMARK    3  A    between atoms: C_6  and  N_7 
REMARK    4  A    between atoms: C_6  and  C_13 
REMARK    5  A    between atoms: C_13  and  N_14 
REMARK       I    between atoms: N_14  and  C_15 
REMARK       I    between atoms: C_15  and  N_16 
REMARK    6  A    between atoms: N_16  and  C_17 
REMARK    7  A    between atoms: C_18  and  O_19 
ROOT
HETATM    1  N   UNL     1      26.893  40.681  51.820  1.00  0.00    -0.341 N 
HETATM    2  C   UNL     1      27.144  42.029  51.883  1.00  0.00     0.316 C 
HETATM    3  N   UNL     1      27.791  42.382  53.024  1.00  0.00    -0.332 N 
HETATM    4  O   UNL     1      26.914  42.788  50.952  1.00  0.00    -0.247 OA
HETATM    5  H   UNL     1      26.791  40.232  52.722  1.00  0.00     0.164 HD
HETATM    6  H   UNL     1      27.521  41.905  53.874  1.00  0.00     0.165 HD
ENDROOT
BRANCH   1   7
HETATM    7  C   UNL     1      26.126  40.134  50.709  1.00  0.00     0.162 C 
BRANCH   7   8
HETATM    8  C   UNL     1      26.700  40.380  49.272  1.00  0.00     0.238 C 
BRANCH   8   9
HETATM    9  C   UNL     1      25.630  40.809  48.274  1.00  0.00    -0.023 A 
HETATM   10  C   UNL     1      24.471  41.443  48.759  1.00  0.00     0.046 A 
HETATM   11  C   UNL     1      23.448  41.855  47.898  1.00  0.00     0.068 A 
HETATM   12  C   UNL     1      23.590  41.662  46.527  1.00  0.00     0.037 A 
HETATM   13  C   UNL     1      24.740  41.047  46.027  1.00  0.00     0.003 A 
HETATM   14  C   UNL     1      25.752  40.622  46.890  1.00  0.00     0.009 A 
BRANCH  11  15
HETATM   15  O   UNL     1      22.381  42.436  48.523  1.00  0.00    -0.356 OA
HETATM   16  C   UNL     1      22.675  43.427  49.502  1.00  0.00     0.210 C 
ENDBRANCH  11  15
ENDBRANCH   8   9
BRANCH   8  17
HETATM   17  N   UNL     1      27.512  39.210  48.703  1.00  0.00    -0.061 N 
HETATM   18  H   UNL     1      27.143  39.106  47.748  1.00  0.00     0.280 HD
HETATM   19  C   UNL     1      27.369  37.861  49.354  1.00  0.00     0.236 C 
HETATM   20  C   UNL     1      28.705  37.626  50.027  1.00  0.00     0.029 C 
HETATM   21  C   UNL     1      29.691  38.236  49.053  1.00  0.00     0.029 C 
HETATM   22  C   UNL     1      28.996  39.483  48.536  1.00  0.00     0.236 C 
ENDBRANCH   8  17
ENDBRANCH   7   8
ENDBRANCH   1   7
BRANCH   3  23
HETATM   23  C   UNL     1      28.145  43.773  53.247  1.00  0.00     0.149 C 
HETATM   24  C   UNL     1      26.947  44.638  53.742  1.00  0.00     0.149 C 
HETATM   25  C   UNL     1      27.530  45.679  54.715  1.00  0.00     0.073 C 
HETATM   26  C   UNL     1      28.781  45.003  55.194  1.00  0.00    -0.047 A 
HETATM   27  C   UNL     1      29.132  43.930  54.369  1.00  0.00    -0.026 A 
HETATM   28  C   UNL     1      29.575  45.370  56.269  1.00  0.00     0.008 A 
HETATM   29  C   UNL     1      30.294  43.206  54.602  1.00  0.00     0.010 A 
HETATM   30  C   UNL     1      31.093  43.561  55.691  1.00  0.00     0.001 A 
HETATM   31  C   UNL     1      30.735  44.635  56.518  1.00  0.00     0.001 A 
BRANCH  24  32
HETATM   32  O   UNL     1      25.983  43.825  54.441  1.00  0.00    -0.393 OA
HETATM   33  H   UNL     1      26.480  43.327  55.114  1.00  0.00     0.210 HD
ENDBRANCH  24  32
ENDBRANCH   3  23
TORSDOF 7
ENDMDL
MODEL 10
REMARK VINA RESULT:      -8.0      2.110      8.293
REMARK  7 active torsions:
REMARK  status: ('A' for Active; 'I' for Inactive)
REMARK    1  A    between atoms: O_2  and  C_3 
REMARK    2  A    between atoms: C_5  and  C_6 
REMARK    3  A    between atoms: C_6  and  N_7 
REMARK    4  A    between atoms: C_6  and  C_13 
REMARK    5  A    between atoms: C_13  and  N_14 
REMARK       I    between atoms: N_14  and  C_15 
REMARK       I    between atoms: C_15  and  N_16 
REMARK    6  A    between atoms: N_16  and  C_17 
REMARK    7  A    between atoms: C_18  and  O_19 
ROOT
HETATM    1  N   UNL     1      23.736  46.319  49.686  1.00  0.00    -0.341 N 
HETATM    2  C   UNL     1      24.127  45.415  50.641  1.00  0.00     0.316 C 
HETATM    3  N   UNL     1      25.081  45.917  51.469  1.00  0.00    -0.332 N 
HETATM    4  O   UNL     1      23.579  44.332  50.790  1.00  0.00    -0.247 OA
HETATM    5  H   UNL     1      24.449  46.991  49.430  1.00  0.00     0.164 HD
HETATM    6  H   UNL     1      25.786  46.510  51.053  1.00  0.00     0.165 HD
ENDROOT
BRANCH   1   7
HETATM    7  C   UNL     1      22.786  45.924  48.655  1.00  0.00     0.162 C 
BRANCH   7   8
HETATM    8  C   UNL     1      21.747  47.007  48.205  1.00  0.00     0.238 C 
BRANCH   8   9
HETATM    9  C   UNL     1      22.197  48.427  48.530  1.00  0.00    -0.023 A 
HETATM   10  C   UNL     1      23.368  48.919  47.926  1.00  0.00     0.046 A 
HETATM   11  C   UNL     1      23.838  50.210  48.186  1.00  0.00     0.068 A 
HETATM   12  C   UNL     1      23.118  51.041  49.039  1.00  0.00     0.037 A 
HETATM   13  C   UNL     1      21.946  50.574  49.638  1.00  0.00     0.003 A 
HETATM   14  C   UNL     1      21.487  49.279  49.389  1.00  0.00     0.009 A 
BRANCH  11  15
HETATM   15  O   UNL     1      24.998  50.532  47.539  1.00  0.00    -0.356 OA
HETATM   16  C   UNL     1      26.192  49.929  48.027  1.00  0.00     0.210 C 
ENDBRANCH  11  15
ENDBRANCH   8   9
BRANCH   8  17
HETATM   17  N   UNL     1      20.322  46.774  48.724  1.00  0.00    -0.061 N 
HETATM   18  H   UNL     1      20.330  47.222  49.650  1.00  0.00     0.280 HD
HETATM   19  C   UNL     1      19.869  45.357  48.949  1.00  0.00     0.236 C 
HETATM   20  C   UNL     1      18.831  45.120  47.874  1.00  0.00     0.029 C 
HETATM   21  C   UNL     1      18.127  46.456  47.776  1.00  0.00     0.029 C 
HETATM   22  C   UNL     1      19.232  47.484  47.940  1.00  0.00     0.236 C 
ENDBRANCH   8  17
ENDBRANCH   7   8
ENDBRANCH   1   7
BRANCH   3  23
HETATM   23  C   UNL     1      25.600  45.093  52.547  1.00  0.00     0.149 C 
HETATM   24  C   UNL     1      26.686  44.080  52.075  1.00  0.00     0.149 C 
HETATM   25  C   UNL     1      27.699  43.955  53.228  1.00  0.00     0.073 C 
HETATM   26  C   UNL     1      27.531  45.262  53.945  1.00  0.00    -0.047 A 
HETATM   27  C   UNL     1      26.348  45.906  53.566  1.00  0.00    -0.026 A 
HETATM   28  C   UNL     1      28.362  45.803  54.912  1.00  0.00     0.008 A 
HETATM   29  C   UNL     1      25.971  47.104  54.157  1.00  0.00     0.010 A 
HETATM   30  C   UNL     1      26.809  47.663  55.125  1.00  0.00     0.001 A 
HETATM   31  C   UNL     1      27.996  47.015  55.499  1.00  0.00     0.001 A 
BRANCH  24  32
HETATM   32  O   UNL     1      27.363  44.567  50.900  1.00  0.00    -0.393 OA
HETATM   33  H   UNL     1      26.812  44.311  50.139  1.00  0.00     0.210 HD
ENDBRANCH  24  32
ENDBRANCH   3  23
TORSDOF 7
ENDMDL
