MODEL 1
REMARK VINA RESULT:      -9.5      0.000      0.000
REMARK  3 active torsions:
REMARK  status: ('A' for Active; 'I' for Inactive)
REMARK    1  A    between atoms: C_2  and  C_3 
REMARK    2  A    between atoms: C_11  and  C_12 
REMARK    3  A    between atoms: C_12  and  C_13 
ROOT
HETATM    1  C   UNL     1      29.685  45.449  56.161  1.00  0.00     0.041 A 
HETATM    2  N   UNL     1      28.678  46.251  55.738  1.00  0.00    -0.245 NA
HETATM    3  C   UNL     1      27.971  45.785  54.691  1.00  0.00     0.111 A 
HETATM    4  C   UNL     1      28.178  44.589  54.019  1.00  0.00     0.028 A 
HETATM    5  C   UNL     1      29.246  43.789  54.479  1.00  0.00     0.025 A 
HETATM    6  C   UNL     1      30.019  44.227  55.563  1.00  0.00    -0.036 A 
HETATM    7  C   UNL     1      31.139  43.360  56.058  1.00  0.00     0.050 C 
HETATM    8  S   UNL     1      26.662  46.674  54.063  1.00  0.00    -0.063 SA
HETATM    9  C   UNL     1      26.347  45.499  52.855  1.00  0.00     0.085 A 
HETATM   10  C   UNL     1      27.214  44.427  52.972  1.00  0.00     0.060 A 
HETATM   11  N   UNL     1      27.156  43.337  52.167  1.00  0.00    -0.397 N 
HETATM   12  H   UNL     1      26.306  43.181  51.617  1.00  0.00     0.156 HD
HETATM   13  H   UNL     1      27.601  42.465  52.435  1.00  0.00     0.156 HD
ENDROOT
BRANCH   9  14
HETATM   14  C   UNL     1      25.235  45.630  51.926  1.00  0.00     0.201 C 
HETATM   15  O   UNL     1      24.269  44.861  51.942  1.00  0.00    -0.286 OA
BRANCH  14  16
HETATM   16  C   UNL     1      25.221  46.680  50.871  1.00  0.00     0.018 A 
HETATM   17  C   UNL     1      26.417  47.366  50.605  1.00  0.00     0.055 A 
HETATM   18  C   UNL     1      26.379  48.381  49.673  1.00  0.00     0.106 A 
HETATM   19  C   UNL     1      25.218  48.726  49.022  1.00  0.00     0.105 A 
HETATM   20  O   UNL     1      27.434  49.153  49.297  1.00  0.00    -0.323 OA
HETATM   21  O   UNL     1      25.398  49.758  48.155  1.00  0.00    -0.323 OA
HETATM   22  C   UNL     1      24.026  48.080  49.267  1.00  0.00     0.040 A 
HETATM   23  C   UNL     1      26.801  50.036  48.348  1.00  0.00     0.352 A 
HETATM   24  C   UNL     1      24.026  47.048  50.213  1.00  0.00     0.018 A 
ENDBRANCH  14  16
ENDBRANCH   9  14
BRANCH   1  25
HETATM   25  C   UNL     1      30.458  45.991  57.342  1.00  0.00     0.055 C 
HETATM   26  C   UNL     1      29.910  45.474  58.662  1.00  0.00     0.011 C 
ENDBRANCH   1  25
TORSDOF 3
ENDMDL
MODEL 2
REMARK VINA RESULT:      -9.5      0.955      1.617
REMARK  3 active torsions:
REMARK  status: ('A' for Active; 'I' for Inactive)
REMARK    1  A    between atoms: C_2  and  C_3 
REMARK    2  A    between atoms: C_11  and  C_12 
REMARK    3  A    between atoms: C_12  and  C_13 
ROOT
HETATM    1  C   UNL     1      29.398  45.276  55.798  1.00  0.00     0.041 A 
HETATM    2  N   UNL     1      28.444  46.150  55.396  1.00  0.00    -0.245 NA
HETATM    3  C   UNL     1      27.778  45.803  54.279  1.00  0.00     0.111 A 
HETATM    4  C   UNL     1      27.978  44.661  53.516  1.00  0.00     0.028 A 
HETATM    5  C   UNL     1      28.991  43.784  53.957  1.00  0.00     0.025 A 
HETATM    6  C   UNL     1      29.720  44.097  55.113  1.00  0.00    -0.036 A 
HETATM    7  C   UNL     1      30.781  43.147  55.587  1.00  0.00     0.050 C 
HETATM    8  S   UNL     1      26.537  46.794  53.664  1.00  0.00    -0.063 SA
HETATM    9  C   UNL     1      26.246  45.740  52.345  1.00  0.00     0.085 A 
HETATM   10  C   UNL     1      27.067  44.628  52.412  1.00  0.00     0.060 A 
HETATM   11  N   UNL     1      27.014  43.614  51.513  1.00  0.00    -0.397 N 
HETATM   12  H   UNL     1      26.189  43.539  50.910  1.00  0.00     0.156 HD
HETATM   13  H   UNL     1      27.412  42.705  51.726  1.00  0.00     0.156 HD
ENDROOT
BRANCH   9  14
HETATM   14  C   UNL     1      25.190  45.994  51.376  1.00  0.00     0.201 C 
HETATM   15  O   UNL     1      24.227  45.234  51.236  1.00  0.00    -0.286 OA
BRANCH  14  16
HETATM   16  C   UNL     1      25.236  47.170  50.465  1.00  0.00     0.018 A 
HETATM   17  C   UNL     1      24.021  47.688  49.990  1.00  0.00     0.055 A 
HETATM   18  C   UNL     1      24.076  48.735  49.096  1.00  0.00     0.106 A 
HETATM   19  C   UNL     1      25.272  49.263  48.669  1.00  0.00     0.105 A 
HETATM   20  O   UNL     1      23.005  49.353  48.530  1.00  0.00    -0.323 OA
HETATM   21  O   UNL     1      25.102  50.278  47.781  1.00  0.00    -0.323 OA
HETATM   22  C   UNL     1      26.483  48.771  49.108  1.00  0.00     0.040 A 
HETATM   23  C   UNL     1      23.663  50.317  47.683  1.00  0.00     0.352 A 
HETATM   24  C   UNL     1      26.463  47.703  50.012  1.00  0.00     0.018 A 
ENDBRANCH  14  16
ENDBRANCH   9  14
BRANCH   1  25
HETATM   25  C   UNL     1      30.125  45.685  57.059  1.00  0.00     0.055 C 
HETATM   26  C   UNL     1      29.160  46.079  58.166  1.00  0.00     0.011 C 
ENDBRANCH   1  25
TORSDOF 3
ENDMDL
MODEL 3
REMARK VINA RESULT:      -9.3      1.187      1.913
REMARK  3 active torsions:
REMARK  status: ('A' for Active; 'I' for Inactive)
REMARK    1  A    between atoms: C_2  and  C_3 
REMARK    2  A    between atoms: C_11  and  C_12 
REMARK    3  A    between atoms: C_12  and  C_13 
ROOT
HETATM    1  C   UNL     1      30.112  44.492  55.615  1.00  0.00     0.041 A 
HETATM    2  N   UNL     1      29.521  43.990  54.504  1.00  0.00    -0.245 NA
HETATM    3  C   UNL     1      28.398  44.621  54.112  1.00  0.00     0.111 A 
HETATM    4  C   UNL     1      27.803  45.711  54.730  1.00  0.00     0.028 A 
HETATM    5  C   UNL     1      28.439  46.196  55.893  1.00  0.00     0.025 A 
HETATM    6  C   UNL     1      29.609  45.574  56.350  1.00  0.00    -0.036 A 
HETATM    7  C   UNL     1      30.290  46.109  57.575  1.00  0.00     0.050 C 
HETATM    8  S   UNL     1      27.557  44.115  52.721  1.00  0.00    -0.063 SA
HETATM    9  C   UNL     1      26.355  45.321  52.917  1.00  0.00     0.085 A 
HETATM   10  C   UNL     1      26.632  46.119  54.013  1.00  0.00     0.060 A 
HETATM   11  N   UNL     1      25.864  47.178  54.371  1.00  0.00    -0.397 N 
HETATM   12  H   UNL     1      25.201  47.554  53.685  1.00  0.00     0.156 HD
HETATM   13  H   UNL     1      26.222  47.899  54.989  1.00  0.00     0.156 HD
ENDROOT
BRANCH   9  14
HETATM   14  C   UNL     1      25.271  45.489  51.962  1.00  0.00     0.201 C 
HETATM   15  O   UNL     1      24.299  44.729  51.928  1.00  0.00    -0.286 OA
BRANCH  14  16
HETATM   16  C   UNL     1      25.297  46.569  50.937  1.00  0.00     0.018 A 
HETATM   17  C   UNL     1      26.518  47.214  50.686  1.00  0.00     0.055 A 
HETATM   18  C   UNL     1      26.519  48.255  49.784  1.00  0.00     0.106 A 
HETATM   19  C   UNL     1      25.370  48.666  49.148  1.00  0.00     0.105 A 
HETATM   20  O   UNL     1      27.602  48.994  49.426  1.00  0.00    -0.323 OA
HETATM   21  O   UNL     1      25.589  49.715  48.311  1.00  0.00    -0.323 OA
HETATM   22  C   UNL     1      24.154  48.061  49.380  1.00  0.00     0.040 A 
HETATM   23  C   UNL     1      27.002  49.930  48.506  1.00  0.00     0.352 A 
HETATM   24  C   UNL     1      24.115  47.004  50.295  1.00  0.00     0.018 A 
ENDBRANCH  14  16
ENDBRANCH   9  14
BRANCH   1  25
HETATM   25  C   UNL     1      31.374  43.770  56.028  1.00  0.00     0.055 C 
HETATM   26  C   UNL     1      31.120  42.788  57.161  1.00  0.00     0.011 C 
ENDBRANCH   1  25
TORSDOF 3
ENDMDL
MODEL 4
REMARK VINA RESULT:      -9.0      1.832      2.334
REMARK  3 active torsions:
REMARK  status: ('A' for Active; 'I' for Inactive)
REMARK    1  A    between atoms: C_2  and  C_3 
REMARK    2  A    between atoms: C_11  and  C_12 
REMARK    3  A    between atoms: C_12  and  C_13 
ROOT
HETATM    1  C   UNL     1      30.057  44.871  56.377  1.00  0.00     0.041 A 
HETATM    2  N   UNL     1      29.025  45.283  55.603  1.00  0.00    -0.245 NA
HETATM    3  C   UNL     1      28.806  44.550  54.495  1.00  0.00     0.111 A 
HETATM    4  C   UNL     1      29.527  43.439  54.082  1.00  0.00     0.028 A 
HETATM    5  C   UNL     1      30.604  43.051  54.906  1.00  0.00     0.025 A 
HETATM    6  C   UNL     1      30.882  43.780  56.070  1.00  0.00    -0.036 A 
HETATM    7  C   UNL     1      32.016  43.346  56.951  1.00  0.00     0.050 C 
HETATM    8  S   UNL     1      27.530  44.937  53.436  1.00  0.00    -0.063 SA
HETATM    9  C   UNL     1      27.919  43.646  52.377  1.00  0.00     0.085 A 
HETATM   10  C   UNL     1      28.987  42.914  52.865  1.00  0.00     0.060 A 
HETATM   11  N   UNL     1      29.473  41.811  52.242  1.00  0.00    -0.397 N 
HETATM   12  H   UNL     1      28.893  41.358  51.528  1.00  0.00     0.156 HD
HETATM   13  H   UNL     1      30.054  41.144  52.739  1.00  0.00     0.156 HD
ENDROOT
BRANCH   9  14
HETATM   14  C   UNL     1      27.124  43.358  51.192  1.00  0.00     0.201 C 
HETATM   15  O   UNL     1      27.261  42.316  50.545  1.00  0.00    -0.286 OA
BRANCH  14  16
HETATM   16  C   UNL     1      26.126  44.330  50.669  1.00  0.00     0.018 A 
HETATM   17  C   UNL     1      26.570  45.620  50.337  1.00  0.00     0.055 A 
HETATM   18  C   UNL     1      25.628  46.533  49.915  1.00  0.00     0.106 A 
HETATM   19  C   UNL     1      24.293  46.210  49.824  1.00  0.00     0.105 A 
HETATM   20  O   UNL     1      25.874  47.822  49.561  1.00  0.00    -0.323 OA
HETATM   21  O   UNL     1      23.535  47.256  49.401  1.00  0.00    -0.323 OA
HETATM   22  C   UNL     1      23.824  44.957  50.153  1.00  0.00     0.040 A 
HETATM   23  C   UNL     1      24.541  48.281  49.254  1.00  0.00     0.352 A 
HETATM   24  C   UNL     1      24.753  44.007  50.591  1.00  0.00     0.018 A 
ENDBRANCH  14  16
ENDBRANCH   9  14
BRANCH   1  25
HETATM   25  C   UNL     1      30.276  45.706  57.618  1.00  0.00     0.055 C 
HETATM   26  C   UNL     1      28.966  46.218  58.195  1.00  0.00     0.011 C 
ENDBRANCH   1  25
TORSDOF 3
ENDMDL
MODEL 5
REMARK VINA RESULT:      -8.2      2.998      7.873
REMARK  3 active torsions:
REMARK  status: ('A' for Active; 'I' for Inactive)
REMARK    1  A    between atoms: C_2  and  C_3 
REMARK    2  A    between atoms: C_11  and  C_12 
REMARK    3  A    between atoms: C_12  and  C_13 
ROOT
HETATM    1  C   UNL     1      23.820  48.862  48.658  1.00  0.00     0.041 A 
HETATM    2  N   UNL     1      24.887  48.715  49.480  1.00  0.00    -0.245 NA
HETATM    3  C   UNL     1      24.991  47.516  50.083  1.00  0.00     0.111 A 
HETATM    4  C   UNL     1      24.121  46.443  49.946  1.00  0.00     0.028 A 
HETATM    5  C   UNL     1      23.014  46.640  49.094  1.00  0.00     0.025 A 
HETATM    6  C   UNL     1      22.853  47.871  48.443  1.00  0.00    -0.036 A 
HETATM    7  C   UNL     1      21.684  48.063  47.523  1.00  0.00     0.050 C 
HETATM    8  S   UNL     1      26.291  47.178  51.128  1.00  0.00    -0.063 SA
HETATM    9  C   UNL     1      25.718  45.595  51.451  1.00  0.00     0.085 A 
HETATM   10  C   UNL     1      24.569  45.330  50.727  1.00  0.00     0.060 A 
HETATM   11  N   UNL     1      23.931  44.133  50.764  1.00  0.00    -0.397 N 
HETATM   12  H   UNL     1      24.435  43.323  51.139  1.00  0.00     0.156 HD
HETATM   13  H   UNL     1      23.273  43.869  50.038  1.00  0.00     0.156 HD
ENDROOT
BRANCH   9  14
HETATM   14  C   UNL     1      26.450  44.672  52.305  1.00  0.00     0.201 C 
HETATM   15  O   UNL     1      26.424  43.450  52.130  1.00  0.00    -0.286 OA
BRANCH  14  16
HETATM   16  C   UNL     1      27.241  45.152  53.472  1.00  0.00     0.018 A 
HETATM   17  C   UNL     1      28.384  44.426  53.840  1.00  0.00     0.055 A 
HETATM   18  C   UNL     1      29.072  44.839  54.960  1.00  0.00     0.106 A 
HETATM   19  C   UNL     1      28.664  45.920  55.706  1.00  0.00     0.105 A 
HETATM   20  O   UNL     1      30.191  44.254  55.466  1.00  0.00    -0.323 OA
HETATM   21  O   UNL     1      29.474  46.149  56.773  1.00  0.00    -0.323 OA
HETATM   22  C   UNL     1      27.541  46.648  55.377  1.00  0.00     0.040 A 
HETATM   23  C   UNL     1      30.430  45.078  56.626  1.00  0.00     0.352 A 
HETATM   24  C   UNL     1      26.814  46.252  54.249  1.00  0.00     0.018 A 
ENDBRANCH  14  16
ENDBRANCH   9  14
BRANCH   1  25
HETATM   25  C   UNL     1      23.733  50.214  47.988  1.00  0.00     0.055 C 
HETATM   26  C   UNL     1      22.914  51.200  48.807  1.00  0.00     0.011 C 
ENDBRANCH   1  25
TORSDOF 3
ENDMDL
MODEL 6
REMARK VINA RESULT:      -8.2      4.451      6.154
REMARK  3 active torsions:
REMARK  status: ('A' for Active; 'I' for Inactive)
REMARK    1  A    between atoms: C_2  and  C_3 
REMARK    2  A    between atoms: C_11  and  C_12 
REMARK    3  A    between atoms: C_12  and  C_13 
ROOT
HETATM    1  C   UNL     1      30.035  44.161  55.299  1.00  0.00     0.041 A 
HETATM    2  N   UNL     1      29.906  43.243  54.312  1.00  0.00    -0.245 NA
HETATM    3  C   UNL     1      28.732  43.267  53.651  1.00  0.00     0.111 A 
HETATM    4  C   UNL     1      27.667  44.124  53.887  1.00  0.00     0.028 A 
HETATM    5  C   UNL     1      27.833  45.055  54.934  1.00  0.00     0.025 A 
HETATM    6  C   UNL     1      29.033  45.072  55.659  1.00  0.00    -0.036 A 
HETATM    7  C   UNL     1      29.209  46.081  56.756  1.00  0.00     0.050 C 
HETATM    8  S   UNL     1      28.433  42.185  52.371  1.00  0.00    -0.063 SA
HETATM    9  C   UNL     1      26.859  42.811  52.110  1.00  0.00     0.085 A 
HETATM   10  C   UNL     1      26.598  43.862  52.971  1.00  0.00     0.060 A 
HETATM   11  N   UNL     1      25.439  44.567  52.949  1.00  0.00    -0.397 N 
HETATM   12  H   UNL     1      24.837  44.489  52.123  1.00  0.00     0.156 HD
HETATM   13  H   UNL     1      25.376  45.482  53.381  1.00  0.00     0.156 HD
ENDROOT
BRANCH   9  14
HETATM   14  C   UNL     1      26.005  42.321  51.039  1.00  0.00     0.201 C 
HETATM   15  O   UNL     1      24.817  42.644  50.943  1.00  0.00    -0.286 OA
BRANCH  14  16
HETATM   16  C   UNL     1      26.509  41.361  50.019  1.00  0.00     0.018 A 
HETATM   17  C   UNL     1      26.365  39.988  50.274  1.00  0.00     0.055 A 
HETATM   18  C   UNL     1      26.893  39.107  49.355  1.00  0.00     0.106 A 
HETATM   19  C   UNL     1      27.547  39.542  48.225  1.00  0.00     0.105 A 
HETATM   20  O   UNL     1      26.854  37.751  49.442  1.00  0.00    -0.323 OA
HETATM   21  O   UNL     1      28.000  38.512  47.461  1.00  0.00    -0.323 OA
HETATM   22  C   UNL     1      27.713  40.882  47.951  1.00  0.00     0.040 A 
HETATM   23  C   UNL     1      27.574  37.380  48.248  1.00  0.00     0.352 A 
HETATM   24  C   UNL     1      27.195  41.804  48.866  1.00  0.00     0.018 A 
ENDBRANCH  14  16
ENDBRANCH   9  14
BRANCH   1  25
HETATM   25  C   UNL     1      31.364  44.118  56.019  1.00  0.00     0.055 C 
HETATM   26  C   UNL     1      31.376  43.072  57.122  1.00  0.00     0.011 C 
ENDBRANCH   1  25
TORSDOF 3
ENDMDL
MODEL 7
REMARK VINA RESULT:      -8.2      2.100      3.181
REMARK  3 active torsions:
REMARK  status: ('A' for Active; 'I' for Inactive)
REMARK    1  A    between atoms: C_2  and  C_3 
REMARK    2  A    between atoms: C_11  and  C_12 
REMARK    3  A    between atoms: C_12  and  C_13 
ROOT
HETATM    1  C   UNL     1      28.331  44.530  53.998  1.00  0.00     0.041 A 
HETATM    2  N   UNL     1      27.287  45.367  53.790  1.00  0.00    -0.245 NA
HETATM    3  C   UNL     1      26.725  45.295  52.568  1.00  0.00     0.111 A 
HETATM    4  C   UNL     1      27.112  44.464  51.527  1.00  0.00     0.028 A 
HETATM    5  C   UNL     1      28.213  43.619  51.777  1.00  0.00     0.025 A 
HETATM    6  C   UNL     1      28.841  43.654  53.030  1.00  0.00    -0.036 A 
HETATM    7  C   UNL     1      29.997  42.736  53.294  1.00  0.00     0.050 C 
HETATM    8  S   UNL     1      25.390  46.274  52.167  1.00  0.00    -0.063 SA
HETATM    9  C   UNL     1      25.305  45.635  50.579  1.00  0.00     0.085 A 
HETATM   10  C   UNL     1      26.265  44.657  50.389  1.00  0.00     0.060 A 
HETATM   11  N   UNL     1      26.390  43.958  49.233  1.00  0.00    -0.397 N 
HETATM   12  H   UNL     1      25.611  43.972  48.567  1.00  0.00     0.156 HD
HETATM   13  H   UNL     1      26.898  43.080  49.205  1.00  0.00     0.156 HD
ENDROOT
BRANCH   9  14
HETATM   14  C   UNL     1      24.269  46.043  49.641  1.00  0.00     0.201 C 
HETATM   15  O   UNL     1      23.598  45.226  49.004  1.00  0.00    -0.286 OA
BRANCH  14  16
HETATM   16  C   UNL     1      23.990  47.479  49.366  1.00  0.00     0.018 A 
HETATM   17  C   UNL     1      22.650  47.887  49.270  1.00  0.00     0.055 A 
HETATM   18  C   UNL     1      22.402  49.203  48.951  1.00  0.00     0.106 A 
HETATM   19  C   UNL     1      23.421  50.100  48.724  1.00  0.00     0.105 A 
HETATM   20  O   UNL     1      21.174  49.769  48.809  1.00  0.00    -0.323 OA
HETATM   21  O   UNL     1      22.959  51.340  48.412  1.00  0.00    -0.323 OA
HETATM   22  C   UNL     1      24.746  49.730  48.800  1.00  0.00     0.040 A 
HETATM   23  C   UNL     1      21.534  51.119  48.449  1.00  0.00     0.352 A 
HETATM   24  C   UNL     1      25.034  48.397  49.116  1.00  0.00     0.018 A 
ENDBRANCH  14  16
ENDBRANCH   9  14
BRANCH   1  25
HETATM   25  C   UNL     1      28.938  44.625  55.380  1.00  0.00     0.055 C 
HETATM   26  C   UNL     1      29.478  46.017  55.667  1.00  0.00     0.011 C 
ENDBRANCH   1  25
TORSDOF 3
ENDMDL
MODEL 8
REMARK VINA RESULT:      -8.1      4.705      7.748
REMARK  3 active torsions:
REMARK  status: ('A' for Active; 'I' for Inactive)
REMARK    1  A    between atoms: C_2  and  C_3 
REMARK    2  A    between atoms: C_11  and  C_12 
REMARK    3  A    between atoms: C_12  and  C_13 
ROOT
HETATM    1  C   UNL     1      27.899  40.694  47.751  1.00  0.00     0.041 A 
HETATM    2  N   UNL     1      27.486  41.913  48.173  1.00  0.00    -0.245 NA
HETATM    3  C   UNL     1      27.268  42.021  49.498  1.00  0.00     0.111 A 
HETATM    4  C   UNL     1      27.421  41.020  50.446  1.00  0.00     0.028 A 
HETATM    5  C   UNL     1      27.838  39.761  49.966  1.00  0.00     0.025 A 
HETATM    6  C   UNL     1      28.075  39.589  48.595  1.00  0.00    -0.036 A 
HETATM    7  C   UNL     1      28.539  38.252  48.096  1.00  0.00     0.050 C 
HETATM    8  S   UNL     1      26.764  43.498  50.177  1.00  0.00    -0.063 SA
HETATM    9  C   UNL     1      26.709  42.839  51.758  1.00  0.00     0.085 A 
HETATM   10  C   UNL     1      27.115  41.516  51.754  1.00  0.00     0.060 A 
HETATM   11  N   UNL     1      27.206  40.767  52.881  1.00  0.00    -0.397 N 
HETATM   12  H   UNL     1      27.213  41.246  53.787  1.00  0.00     0.156 HD
HETATM   13  H   UNL     1      27.754  39.913  52.899  1.00  0.00     0.156 HD
ENDROOT
BRANCH   9  14
HETATM   14  C   UNL     1      26.368  43.649  52.918  1.00  0.00     0.201 C 
HETATM   15  O   UNL     1      25.200  43.904  53.224  1.00  0.00    -0.286 OA
BRANCH  14  16
HETATM   16  C   UNL     1      27.420  44.254  53.779  1.00  0.00     0.018 A 
HETATM   17  C   UNL     1      28.557  43.486  54.075  1.00  0.00     0.055 A 
HETATM   18  C   UNL     1      29.495  44.029  54.926  1.00  0.00     0.106 A 
HETATM   19  C   UNL     1      29.335  45.279  55.480  1.00  0.00     0.105 A 
HETATM   20  O   UNL     1      30.647  43.428  55.327  1.00  0.00    -0.323 OA
HETATM   21  O   UNL     1      30.366  45.618  56.298  1.00  0.00    -0.323 OA
HETATM   22  C   UNL     1      28.226  46.054  55.218  1.00  0.00     0.040 A 
HETATM   23  C   UNL     1      31.186  44.433  56.211  1.00  0.00     0.352 A 
HETATM   24  C   UNL     1      27.251  45.530  54.363  1.00  0.00     0.018 A 
ENDBRANCH  14  16
ENDBRANCH   9  14
BRANCH   1  25
HETATM   25  C   UNL     1      28.144  40.601  46.262  1.00  0.00     0.055 C 
HETATM   26  C   UNL     1      26.846  40.485  45.480  1.00  0.00     0.011 C 
ENDBRANCH   1  25
TORSDOF 3
ENDMDL
MODEL 9
REMARK VINA RESULT:      -7.9      4.845      5.785
REMARK  3 active torsions:
REMARK  status: ('A' for Active; 'I' for Inactive)
REMARK    1  A    between atoms: C_2  and  C_3 
REMARK    2  A    between atoms: C_11  and  C_12 
REMARK    3  A    between atoms: C_12  and  C_13 
ROOT
HETATM    1  C   UNL     1      28.793  44.700  54.716  1.00  0.00     0.041 A 
HETATM    2  N   UNL     1      27.767  44.561  53.842  1.00  0.00    -0.245 NA
HETATM    3  C   UNL     1      27.774  43.425  53.120  1.00  0.00     0.111 A 
HETATM    4  C   UNL     1      28.716  42.408  53.185  1.00  0.00     0.028 A 
HETATM    5  C   UNL     1      29.778  42.596  54.095  1.00  0.00     0.025 A 
HETATM    6  C   UNL     1      29.824  43.763  54.870  1.00  0.00    -0.036 A 
HETATM    7  C   UNL     1      30.945  43.944  55.852  1.00  0.00     0.050 C 
HETATM    8  S   UNL     1      26.538  43.103  51.995  1.00  0.00    -0.063 SA
HETATM    9  C   UNL     1      27.238  41.607  51.540  1.00  0.00     0.085 A 
HETATM   10  C   UNL     1      28.379  41.352  52.279  1.00  0.00     0.060 A 
HETATM   11  N   UNL     1      29.106  40.214  52.150  1.00  0.00    -0.397 N 
HETATM   12  H   UNL     1      28.677  39.412  51.676  1.00  0.00     0.156 HD
HETATM   13  H   UNL     1      29.758  39.925  52.872  1.00  0.00     0.156 HD
ENDROOT
BRANCH   9  14
HETATM   14  C   UNL     1      26.606  40.725  50.569  1.00  0.00     0.201 C 
HETATM   15  O   UNL     1      25.826  39.828  50.903  1.00  0.00    -0.286 OA
BRANCH  14  16
HETATM   16  C   UNL     1      26.901  40.831  49.114  1.00  0.00     0.018 A 
HETATM   17  C   UNL     1      25.819  40.900  48.222  1.00  0.00     0.055 A 
HETATM   18  C   UNL     1      26.101  40.932  46.874  1.00  0.00     0.106 A 
HETATM   19  C   UNL     1      27.393  40.891  46.401  1.00  0.00     0.105 A 
HETATM   20  O   UNL     1      25.184  40.992  45.872  1.00  0.00    -0.323 OA
HETATM   21  O   UNL     1      27.447  40.920  45.043  1.00  0.00    -0.323 OA
HETATM   22  C   UNL     1      28.476  40.812  47.249  1.00  0.00     0.040 A 
HETATM   23  C   UNL     1      26.043  40.965  44.713  1.00  0.00     0.352 A 
HETATM   24  C   UNL     1      28.225  40.772  48.625  1.00  0.00     0.018 A 
ENDBRANCH  14  16
ENDBRANCH   9  14
BRANCH   1  25
HETATM   25  C   UNL     1      28.757  45.979  55.520  1.00  0.00     0.055 C 
HETATM   26  C   UNL     1      28.099  47.113  54.750  1.00  0.00     0.011 C 
ENDBRANCH   1  25
TORSDOF 3
ENDMDL
MODEL 10
REMARK VINA RESULT:      -7.7      3.883      7.906
REMARK  3 active torsions:
REMARK  status: ('A' for Active; 'I' for Inactive)
REMARK    1  A    between atoms: C_2  and  C_3 
REMARK    2  A    between atoms: C_11  and  C_12 
REMARK    3  A    between atoms: C_12  and  C_13 
ROOT
HETATM    1  C   UNL     1      24.191  43.977  49.780  1.00  0.00     0.041 A 
HETATM    2  N   UNL     1      25.129  44.657  50.483  1.00  0.00    -0.245 NA
HETATM    3  C   UNL     1      26.067  43.897  51.079  1.00  0.00     0.111 A 
HETATM    4  C   UNL     1      26.155  42.512  51.043  1.00  0.00     0.028 A 
HETATM    5  C   UNL     1      25.152  41.839  50.315  1.00  0.00     0.025 A 
HETATM    6  C   UNL     1      24.147  42.580  49.678  1.00  0.00    -0.036 A 
HETATM    7  C   UNL     1      23.096  41.857  48.887  1.00  0.00     0.050 C 
HETATM    8  S   UNL     1      27.321  44.612  51.980  1.00  0.00    -0.063 SA
HETATM    9  C   UNL     1      28.008  43.092  52.373  1.00  0.00     0.085 A 
HETATM   10  C   UNL     1      27.298  42.063  51.779  1.00  0.00     0.060 A 
HETATM   11  N   UNL     1      27.653  40.758  51.893  1.00  0.00    -0.397 N 
HETATM   12  H   UNL     1      28.599  40.536  52.217  1.00  0.00     0.156 HD
HETATM   13  H   UNL     1      27.300  40.062  51.244  1.00  0.00     0.156 HD
ENDROOT
BRANCH   9  14
HETATM   14  C   UNL     1      29.233  42.979  53.149  1.00  0.00     0.201 C 
HETATM   15  O   UNL     1      30.112  42.155  52.879  1.00  0.00    -0.286 OA
BRANCH  14  16
HETATM   16  C   UNL     1      29.477  43.829  54.347  1.00  0.00     0.018 A 
HETATM   17  C   UNL     1      30.480  43.435  55.246  1.00  0.00     0.055 A 
HETATM   18  C   UNL     1      30.654  44.191  56.384  1.00  0.00     0.106 A 
HETATM   19  C   UNL     1      29.875  45.294  56.650  1.00  0.00     0.105 A 
HETATM   20  O   UNL     1      31.568  43.955  57.363  1.00  0.00    -0.323 OA
HETATM   21  O   UNL     1      30.203  45.888  57.828  1.00  0.00    -0.323 OA
HETATM   22  C   UNL     1      28.876  45.702  55.793  1.00  0.00     0.040 A 
HETATM   23  C   UNL     1      31.264  45.023  58.284  1.00  0.00     0.352 A 
HETATM   24  C   UNL     1      28.667  44.952  54.630  1.00  0.00     0.018 A 
ENDBRANCH  14  16
ENDBRANCH   9  14
BRANCH   1  25
HETATM   25  C   UNL     1      23.155  44.854  49.115  1.00  0.00     0.055 C 
HETATM   26  C   UNL     1      23.539  46.324  49.168  1.00  0.00     0.011 C 
ENDBRANCH   1  25
TORSDOF 3
ENDMDL
