MODEL 1
REMARK VINA RESULT:     -10.8      0.000      0.000
REMARK  5 active torsions:
REMARK  status: ('A' for Active; 'I' for Inactive)
REMARK    1  A    between atoms: C_4  and  C_5 
REMARK    2  A    between atoms: N_7  and  C_8 
REMARK    3  A    between atoms: C_8  and  C_9 
REMARK    4  A    between atoms: C_9  and  N_10 
REMARK       I    between atoms: N_10  and  C_11 
REMARK    5  A    between atoms: C_11  and  C_12 
ROOT
HETATM    1  N   UNL     1      28.687  42.543  53.576  1.00  0.00    -0.359 N 
HETATM    2  C   UNL     1      28.053  43.487  54.356  1.00  0.00     0.230 C 
HETATM    3  O   UNL     1      26.928  43.310  54.824  1.00  0.00    -0.272 OA
HETATM    4  H   UNL     1      29.538  42.817  53.098  1.00  0.00     0.162 HD
ENDROOT
BRANCH   1   5
HETATM    5  C   UNL     1      28.019  41.337  53.111  1.00  0.00     0.144 C 
BRANCH   5   6
HETATM    6  C   UNL     1      28.102  41.091  51.602  1.00  0.00     0.174 C 
BRANCH   6   7
HETATM    7  N   UNL     1      26.954  41.666  50.904  1.00  0.00    -0.233 N 
HETATM    8  N   UNL     1      26.915  43.043  50.840  1.00  0.00    -0.169 NA
HETATM    9  C   UNL     1      25.942  43.599  50.185  1.00  0.00     0.087 A 
HETATM   10  C   UNL     1      24.849  42.841  49.537  1.00  0.00     0.040 A 
HETATM   11  C   UNL     1      24.934  41.511  49.570  1.00  0.00     0.078 A 
HETATM   12  C   UNL     1      26.064  40.836  50.239  1.00  0.00     0.263 A 
HETATM   13  O   UNL     1      26.144  39.611  50.183  1.00  0.00    -0.267 OA
BRANCH   9  14
HETATM   14  C   UNL     1      25.891  45.088  50.089  1.00  0.00    -0.006 A 
HETATM   15  C   UNL     1      26.982  45.841  49.637  1.00  0.00     0.014 A 
HETATM   16  C   UNL     1      26.895  47.235  49.575  1.00  0.00     0.001 A 
HETATM   17  C   UNL     1      25.726  47.882  49.971  1.00  0.00     0.000 A 
HETATM   18  C   UNL     1      24.642  47.139  50.438  1.00  0.00     0.001 A 
HETATM   19  C   UNL     1      24.725  45.748  50.502  1.00  0.00     0.014 A 
ENDBRANCH   9  14
ENDBRANCH   6   7
ENDBRANCH   5   6
ENDBRANCH   1   5
BRANCH   2  20
HETATM   20  C   UNL     1      28.800  44.819  54.561  1.00  0.00     0.149 C 
HETATM   21  C   UNL     1      29.721  44.724  55.755  1.00  0.00    -0.007 A 
HETATM   22  C   UNL     1      29.495  45.515  56.883  1.00  0.00     0.083 A 
HETATM   23  C   UNL     1      30.805  43.829  55.756  1.00  0.00     0.011 A 
HETATM   24  C   UNL     1      30.324  45.405  58.001  1.00  0.00     0.038 A 
HETATM   25  O   UNL     1      28.472  46.426  56.975  1.00  0.00    -0.310 OA
HETATM   26  C   UNL     1      31.394  44.511  57.996  1.00  0.00     0.003 A 
HETATM   27  C   UNL     1      31.636  43.724  56.872  1.00  0.00     0.001 A 
HETATM   28  C   UNL     1      27.767  46.734  55.838  1.00  0.00     0.083 A 
HETATM   29  C   UNL     1      27.878  46.017  54.643  1.00  0.00    -0.007 A 
HETATM   30  C   UNL     1      26.897  47.823  55.931  1.00  0.00     0.038 A 
HETATM   31  C   UNL     1      27.114  46.416  53.534  1.00  0.00     0.011 A 
HETATM   32  C   UNL     1      26.250  47.508  53.628  1.00  0.00     0.001 A 
HETATM   33  C   UNL     1      26.141  48.211  54.826  1.00  0.00     0.003 A 
ENDBRANCH   2  20
TORSDOF 5
ENDMDL
MODEL 2
REMARK VINA RESULT:     -10.0      3.667      6.604
REMARK  5 active torsions:
REMARK  status: ('A' for Active; 'I' for Inactive)
REMARK    1  A    between atoms: C_4  and  C_5 
REMARK    2  A    between atoms: N_7  and  C_8 
REMARK    3  A    between atoms: C_8  and  C_9 
REMARK    4  A    between atoms: C_9  and  N_10 
REMARK       I    between atoms: N_10  and  C_11 
REMARK    5  A    between atoms: C_11  and  C_12 
ROOT
HETATM    1  N   UNL     1      25.670  45.150  51.266  1.00  0.00    -0.359 N 
HETATM    2  C   UNL     1      26.773  44.339  51.095  1.00  0.00     0.230 C 
HETATM    3  O   UNL     1      27.612  44.541  50.217  1.00  0.00    -0.272 OA
HETATM    4  H   UNL     1      24.945  44.835  51.901  1.00  0.00     0.162 HD
ENDROOT
BRANCH   1   5
HETATM    5  C   UNL     1      25.324  46.206  50.328  1.00  0.00     0.144 C 
BRANCH   5   6
HETATM    6  C   UNL     1      26.002  47.554  50.592  1.00  0.00     0.174 C 
BRANCH   6   7
HETATM    7  N   UNL     1      25.621  48.547  49.589  1.00  0.00    -0.233 N 
HETATM    8  N   UNL     1      24.297  48.929  49.590  1.00  0.00    -0.169 NA
HETATM    9  C   UNL     1      23.922  49.847  48.752  1.00  0.00     0.087 A 
HETATM   10  C   UNL     1      24.827  50.478  47.767  1.00  0.00     0.040 A 
HETATM   11  C   UNL     1      26.112  50.128  47.815  1.00  0.00     0.078 A 
HETATM   12  C   UNL     1      26.597  49.143  48.803  1.00  0.00     0.263 A 
HETATM   13  O   UNL     1      27.800  48.904  48.865  1.00  0.00    -0.267 OA
BRANCH   9  14
HETATM   14  C   UNL     1      22.496  50.287  48.751  1.00  0.00    -0.006 A 
HETATM   15  C   UNL     1      21.877  50.807  49.895  1.00  0.00     0.014 A 
HETATM   16  C   UNL     1      20.535  51.196  49.853  1.00  0.00     0.001 A 
HETATM   17  C   UNL     1      19.804  51.060  48.674  1.00  0.00     0.000 A 
HETATM   18  C   UNL     1      20.409  50.528  47.535  1.00  0.00     0.001 A 
HETATM   19  C   UNL     1      21.748  50.138  47.574  1.00  0.00     0.014 A 
ENDBRANCH   9  14
ENDBRANCH   6   7
ENDBRANCH   5   6
ENDBRANCH   1   5
BRANCH   2  20
HETATM   20  C   UNL     1      26.871  43.112  52.023  1.00  0.00     0.149 C 
HETATM   21  C   UNL     1      27.963  43.318  53.047  1.00  0.00    -0.007 A 
HETATM   22  C   UNL     1      29.093  42.498  53.045  1.00  0.00     0.083 A 
HETATM   23  C   UNL     1      27.868  44.345  54.002  1.00  0.00     0.011 A 
HETATM   24  C   UNL     1      30.120  42.706  53.968  1.00  0.00     0.038 A 
HETATM   25  O   UNL     1      29.275  41.462  52.162  1.00  0.00    -0.310 OA
HETATM   26  C   UNL     1      30.020  43.730  54.910  1.00  0.00     0.003 A 
HETATM   27  C   UNL     1      28.892  44.549  54.928  1.00  0.00     0.001 A 
HETATM   28  C   UNL     1      28.212  41.074  51.384  1.00  0.00     0.083 A 
HETATM   29  C   UNL     1      27.027  41.806  51.275  1.00  0.00    -0.007 A 
HETATM   30  C   UNL     1      28.375  39.881  50.675  1.00  0.00     0.038 A 
HETATM   31  C   UNL     1      25.997  41.318  50.453  1.00  0.00     0.011 A 
HETATM   32  C   UNL     1      26.160  40.124  49.750  1.00  0.00     0.001 A 
HETATM   33  C   UNL     1      27.349  39.406  49.859  1.00  0.00     0.003 A 
ENDBRANCH   2  20
TORSDOF 5
ENDMDL
MODEL 3
REMARK VINA RESULT:     -10.0      3.594      7.971
REMARK  5 active torsions:
REMARK  status: ('A' for Active; 'I' for Inactive)
REMARK    1  A    between atoms: C_4  and  C_5 
REMARK    2  A    between atoms: N_7  and  C_8 
REMARK    3  A    between atoms: C_8  and  C_9 
REMARK    4  A    between atoms: C_9  and  N_10 
REMARK       I    between atoms: N_10  and  C_11 
REMARK    5  A    between atoms: C_11  and  C_12 
ROOT
HETATM    1  N   UNL     1      23.153  45.489  49.679  1.00  0.00    -0.359 N 
HETATM    2  C   UNL     1      23.049  46.553  48.808  1.00  0.00     0.230 C 
HETATM    3  O   UNL     1      22.844  46.403  47.603  1.00  0.00    -0.272 OA
HETATM    4  H   UNL     1      23.478  45.677  50.621  1.00  0.00     0.162 HD
ENDROOT
BRANCH   1   5
HETATM    5  C   UNL     1      23.191  44.107  49.224  1.00  0.00     0.144 C 
BRANCH   5   6
HETATM    6  C   UNL     1      23.392  43.066  50.329  1.00  0.00     0.174 C 
BRANCH   6   7
HETATM    7  N   UNL     1      24.752  43.111  50.862  1.00  0.00    -0.233 N 
HETATM    8  N   UNL     1      25.032  44.157  51.715  1.00  0.00    -0.169 NA
HETATM    9  C   UNL     1      26.211  44.210  52.255  1.00  0.00     0.087 A 
HETATM   10  C   UNL     1      27.287  43.234  51.975  1.00  0.00     0.040 A 
HETATM   11  C   UNL     1      26.980  42.205  51.185  1.00  0.00     0.078 A 
HETATM   12  C   UNL     1      25.627  42.065  50.610  1.00  0.00     0.263 A 
HETATM   13  O   UNL     1      25.363  41.064  49.949  1.00  0.00    -0.267 OA
BRANCH   9  14
HETATM   14  C   UNL     1      26.528  45.325  53.196  1.00  0.00    -0.006 A 
HETATM   15  C   UNL     1      25.777  46.508  53.227  1.00  0.00     0.014 A 
HETATM   16  C   UNL     1      26.115  47.532  54.116  1.00  0.00     0.001 A 
HETATM   17  C   UNL     1      27.208  47.385  54.969  1.00  0.00     0.000 A 
HETATM   18  C   UNL     1      27.971  46.218  54.931  1.00  0.00     0.001 A 
HETATM   19  C   UNL     1      27.636  45.194  54.045  1.00  0.00     0.014 A 
ENDBRANCH   9  14
ENDBRANCH   6   7
ENDBRANCH   5   6
ENDBRANCH   1   5
BRANCH   2  20
HETATM   20  C   UNL     1      23.274  47.954  49.408  1.00  0.00     0.149 C 
HETATM   21  C   UNL     1      22.228  48.917  48.894  1.00  0.00    -0.007 A 
HETATM   22  C   UNL     1      22.601  49.996  48.092  1.00  0.00     0.083 A 
HETATM   23  C   UNL     1      20.869  48.731  49.197  1.00  0.00     0.011 A 
HETATM   24  C   UNL     1      21.635  50.869  47.586  1.00  0.00     0.038 A 
HETATM   25  O   UNL     1      23.902  50.271  47.748  1.00  0.00    -0.310 OA
HETATM   26  C   UNL     1      20.288  50.675  47.889  1.00  0.00     0.003 A 
HETATM   27  C   UNL     1      19.905  49.606  48.697  1.00  0.00     0.001 A 
HETATM   28  C   UNL     1      24.905  49.586  48.389  1.00  0.00     0.083 A 
HETATM   29  C   UNL     1      24.680  48.474  49.207  1.00  0.00    -0.007 A 
HETATM   30  C   UNL     1      26.203  50.056  48.175  1.00  0.00     0.038 A 
HETATM   31  C   UNL     1      25.777  47.846  49.820  1.00  0.00     0.011 A 
HETATM   32  C   UNL     1      27.072  48.321  49.609  1.00  0.00     0.001 A 
HETATM   33  C   UNL     1      27.285  49.424  48.786  1.00  0.00     0.003 A 
ENDBRANCH   2  20
TORSDOF 5
ENDMDL
MODEL 4
REMARK VINA RESULT:      -9.9      1.318      3.527
REMARK  5 active torsions:
REMARK  status: ('A' for Active; 'I' for Inactive)
REMARK    1  A    between atoms: C_4  and  C_5 
REMARK    2  A    between atoms: N_7  and  C_8 
REMARK    3  A    between atoms: C_8  and  C_9 
REMARK    4  A    between atoms: C_9  and  N_10 
REMARK       I    between atoms: N_10  and  C_11 
REMARK    5  A    between atoms: C_11  and  C_12 
ROOT
HETATM    1  N   UNL     1      27.929  41.700  52.453  1.00  0.00    -0.359 N 
HETATM    2  C   UNL     1      28.644  42.795  52.891  1.00  0.00     0.230 C 
HETATM    3  O   UNL     1      29.634  43.220  52.294  1.00  0.00    -0.272 OA
HETATM    4  H   UNL     1      27.227  41.314  53.073  1.00  0.00     0.162 HD
ENDROOT
BRANCH   1   5
HETATM    5  C   UNL     1      28.377  40.865  51.349  1.00  0.00     0.144 C 
BRANCH   5   6
HETATM    6  C   UNL     1      28.151  41.456  49.955  1.00  0.00     0.174 C 
BRANCH   6   7
HETATM    7  N   UNL     1      26.821  42.052  49.838  1.00  0.00    -0.233 N 
HETATM    8  N   UNL     1      26.776  43.430  49.827  1.00  0.00    -0.169 NA
HETATM    9  C   UNL     1      25.622  44.005  49.673  1.00  0.00     0.087 A 
HETATM   10  C   UNL     1      24.347  43.266  49.548  1.00  0.00     0.040 A 
HETATM   11  C   UNL     1      24.420  41.935  49.512  1.00  0.00     0.078 A 
HETATM   12  C   UNL     1      25.719  41.241  49.609  1.00  0.00     0.263 A 
HETATM   13  O   UNL     1      25.751  40.018  49.497  1.00  0.00    -0.267 OA
BRANCH   9  14
HETATM   14  C   UNL     1      25.555  45.495  49.641  1.00  0.00    -0.006 A 
HETATM   15  C   UNL     1      26.703  46.294  49.731  1.00  0.00     0.014 A 
HETATM   16  C   UNL     1      26.592  47.687  49.709  1.00  0.00     0.001 A 
HETATM   17  C   UNL     1      25.339  48.289  49.606  1.00  0.00     0.000 A 
HETATM   18  C   UNL     1      24.191  47.500  49.533  1.00  0.00     0.001 A 
HETATM   19  C   UNL     1      24.297  46.109  49.555  1.00  0.00     0.014 A 
ENDBRANCH   9  14
ENDBRANCH   6   7
ENDBRANCH   5   6
ENDBRANCH   1   5
BRANCH   2  20
HETATM   20  C   UNL     1      28.181  43.430  54.216  1.00  0.00     0.149 C 
HETATM   21  C   UNL     1      27.266  44.601  53.944  1.00  0.00    -0.007 A 
HETATM   22  C   UNL     1      27.653  45.894  54.301  1.00  0.00     0.083 A 
HETATM   23  C   UNL     1      26.025  44.412  53.312  1.00  0.00     0.011 A 
HETATM   24  C   UNL     1      26.826  46.983  54.021  1.00  0.00     0.038 A 
HETATM   25  O   UNL     1      28.839  46.182  54.932  1.00  0.00    -0.310 OA
HETATM   26  C   UNL     1      25.598  46.787  53.390  1.00  0.00     0.003 A 
HETATM   27  C   UNL     1      25.197  45.500  53.037  1.00  0.00     0.001 A 
HETATM   28  C   UNL     1      29.585  45.141  55.427  1.00  0.00     0.083 A 
HETATM   29  C   UNL     1      29.325  43.798  55.136  1.00  0.00    -0.007 A 
HETATM   30  C   UNL     1      30.656  45.492  56.252  1.00  0.00     0.038 A 
HETATM   31  C   UNL     1      30.148  42.808  55.697  1.00  0.00     0.011 A 
HETATM   32  C   UNL     1      31.214  43.161  56.526  1.00  0.00     0.001 A 
HETATM   33  C   UNL     1      31.469  44.502  56.802  1.00  0.00     0.003 A 
ENDBRANCH   2  20
TORSDOF 5
ENDMDL
MODEL 5
REMARK VINA RESULT:      -9.2      2.292      3.833
REMARK  5 active torsions:
REMARK  status: ('A' for Active; 'I' for Inactive)
REMARK    1  A    between atoms: C_4  and  C_5 
REMARK    2  A    between atoms: N_7  and  C_8 
REMARK    3  A    between atoms: C_8  and  C_9 
REMARK    4  A    between atoms: C_9  and  N_10 
REMARK       I    between atoms: N_10  and  C_11 
REMARK    5  A    between atoms: C_11  and  C_12 
ROOT
HETATM    1  N   UNL     1      28.845  41.042  50.857  1.00  0.00    -0.359 N 
HETATM    2  C   UNL     1      28.110  41.859  51.691  1.00  0.00     0.230 C 
HETATM    3  O   UNL     1      27.116  41.459  52.298  1.00  0.00    -0.272 OA
HETATM    4  H   UNL     1      29.550  41.474  50.272  1.00  0.00     0.162 HD
ENDROOT
BRANCH   1   5
HETATM    5  C   UNL     1      28.417  39.697  50.504  1.00  0.00     0.144 C 
BRANCH   5   6
HETATM    6  C   UNL     1      28.685  39.292  49.052  1.00  0.00     0.174 C 
BRANCH   6   7
HETATM    7  N   UNL     1      27.558  39.634  48.186  1.00  0.00    -0.233 N 
HETATM    8  N   UNL     1      26.623  40.492  48.724  1.00  0.00    -0.169 NA
HETATM    9  C   UNL     1      25.631  40.865  47.975  1.00  0.00     0.087 A 
HETATM   10  C   UNL     1      25.424  40.390  46.589  1.00  0.00     0.040 A 
HETATM   11  C   UNL     1      26.366  39.600  46.074  1.00  0.00     0.078 A 
HETATM   12  C   UNL     1      27.550  39.211  46.865  1.00  0.00     0.263 A 
HETATM   13  O   UNL     1      28.430  38.543  46.329  1.00  0.00    -0.267 OA
BRANCH   9  14
HETATM   14  C   UNL     1      24.617  41.808  48.533  1.00  0.00    -0.006 A 
HETATM   15  C   UNL     1      23.836  42.632  47.712  1.00  0.00     0.014 A 
HETATM   16  C   UNL     1      22.906  43.509  48.277  1.00  0.00     0.001 A 
HETATM   17  C   UNL     1      22.759  43.575  49.661  1.00  0.00     0.000 A 
HETATM   18  C   UNL     1      23.545  42.771  50.486  1.00  0.00     0.001 A 
HETATM   19  C   UNL     1      24.474  41.894  49.925  1.00  0.00     0.014 A 
ENDBRANCH   9  14
ENDBRANCH   6   7
ENDBRANCH   5   6
ENDBRANCH   1   5
BRANCH   2  20
HETATM   20  C   UNL     1      28.554  43.331  51.773  1.00  0.00     0.149 C 
HETATM   21  C   UNL     1      29.081  43.641  53.155  1.00  0.00    -0.007 A 
HETATM   22  C   UNL     1      28.414  44.554  53.974  1.00  0.00     0.083 A 
HETATM   23  C   UNL     1      30.236  43.005  53.643  1.00  0.00     0.011 A 
HETATM   24  C   UNL     1      28.878  44.818  55.264  1.00  0.00     0.038 A 
HETATM   25  O   UNL     1      27.287  45.235  53.586  1.00  0.00    -0.310 OA
HETATM   26  C   UNL     1      30.022  44.179  55.743  1.00  0.00     0.003 A 
HETATM   27  C   UNL     1      30.702  43.274  54.930  1.00  0.00     0.001 A 
HETATM   28  C   UNL     1      26.915  45.184  52.265  1.00  0.00     0.083 A 
HETATM   29  C   UNL     1      27.483  44.307  51.337  1.00  0.00    -0.007 A 
HETATM   30  C   UNL     1      25.905  46.068  51.877  1.00  0.00     0.038 A 
HETATM   31  C   UNL     1      27.033  44.337  50.007  1.00  0.00     0.011 A 
HETATM   32  C   UNL     1      26.028  45.225  49.620  1.00  0.00     0.001 A 
HETATM   33  C   UNL     1      25.463  46.089  50.555  1.00  0.00     0.003 A 
ENDBRANCH   2  20
TORSDOF 5
ENDMDL
MODEL 6
REMARK VINA RESULT:      -9.2      2.906      8.320
REMARK  5 active torsions:
REMARK  status: ('A' for Active; 'I' for Inactive)
REMARK    1  A    between atoms: C_4  and  C_5 
REMARK    2  A    between atoms: N_7  and  C_8 
REMARK    3  A    between atoms: C_8  and  C_9 
REMARK    4  A    between atoms: C_9  and  N_10 
REMARK       I    between atoms: N_10  and  C_11 
REMARK    5  A    between atoms: C_11  and  C_12 
ROOT
HETATM    1  N   UNL     1      25.138  46.601  51.577  1.00  0.00    -0.359 N 
HETATM    2  C   UNL     1      25.623  47.323  50.506  1.00  0.00     0.230 C 
HETATM    3  O   UNL     1      26.592  48.077  50.602  1.00  0.00    -0.272 OA
HETATM    4  H   UNL     1      24.249  46.127  51.465  1.00  0.00     0.162 HD
ENDROOT
BRANCH   1   5
HETATM    5  C   UNL     1      25.625  46.794  52.934  1.00  0.00     0.144 C 
BRANCH   5   6
HETATM    6  C   UNL     1      25.697  45.521  53.783  1.00  0.00     0.174 C 
BRANCH   6   7
HETATM    7  N   UNL     1      27.001  44.873  53.663  1.00  0.00    -0.233 N 
HETATM    8  N   UNL     1      27.835  44.988  54.754  1.00  0.00    -0.169 NA
HETATM    9  C   UNL     1      28.984  44.385  54.715  1.00  0.00     0.087 A 
HETATM   10  C   UNL     1      29.467  43.614  53.549  1.00  0.00     0.040 A 
HETATM   11  C   UNL     1      28.625  43.476  52.524  1.00  0.00     0.078 A 
HETATM   12  C   UNL     1      27.279  44.082  52.558  1.00  0.00     0.263 A 
HETATM   13  O   UNL     1      26.507  43.869  51.626  1.00  0.00    -0.267 OA
BRANCH   9  14
HETATM   14  C   UNL     1      29.894  44.483  55.894  1.00  0.00    -0.006 A 
HETATM   15  C   UNL     1      30.916  43.552  56.124  1.00  0.00     0.014 A 
HETATM   16  C   UNL     1      31.738  43.675  57.248  1.00  0.00     0.001 A 
HETATM   17  C   UNL     1      31.538  44.718  58.150  1.00  0.00     0.000 A 
HETATM   18  C   UNL     1      30.512  45.638  57.937  1.00  0.00     0.001 A 
HETATM   19  C   UNL     1      29.689  45.519  56.816  1.00  0.00     0.014 A 
ENDBRANCH   9  14
ENDBRANCH   6   7
ENDBRANCH   5   6
ENDBRANCH   1   5
BRANCH   2  20
HETATM   20  C   UNL     1      24.844  47.192  49.183  1.00  0.00     0.149 C 
HETATM   21  C   UNL     1      23.911  48.368  49.008  1.00  0.00    -0.007 A 
HETATM   22  C   UNL     1      22.529  48.174  48.999  1.00  0.00     0.083 A 
HETATM   23  C   UNL     1      24.417  49.673  48.871  1.00  0.00     0.011 A 
HETATM   24  C   UNL     1      21.662  49.262  48.871  1.00  0.00     0.038 A 
HETATM   25  O   UNL     1      21.937  46.940  49.114  1.00  0.00    -0.310 OA
HETATM   26  C   UNL     1      22.172  50.553  48.740  1.00  0.00     0.003 A 
HETATM   27  C   UNL     1      23.551  50.758  48.738  1.00  0.00     0.001 A 
HETATM   28  C   UNL     1      22.732  45.824  49.020  1.00  0.00     0.083 A 
HETATM   29  C   UNL     1      24.129  45.867  49.037  1.00  0.00    -0.007 A 
HETATM   30  C   UNL     1      22.062  44.602  48.915  1.00  0.00     0.038 A 
HETATM   31  C   UNL     1      24.849  44.666  48.932  1.00  0.00     0.011 A 
HETATM   32  C   UNL     1      24.178  43.447  48.820  1.00  0.00     0.001 A 
HETATM   33  C   UNL     1      22.786  43.415  48.813  1.00  0.00     0.003 A 
ENDBRANCH   2  20
TORSDOF 5
ENDMDL
MODEL 7
REMARK VINA RESULT:      -9.0      3.873      7.513
REMARK  5 active torsions:
REMARK  status: ('A' for Active; 'I' for Inactive)
REMARK    1  A    between atoms: C_4  and  C_5 
REMARK    2  A    between atoms: N_7  and  C_8 
REMARK    3  A    between atoms: C_8  and  C_9 
REMARK    4  A    between atoms: C_9  and  N_10 
REMARK       I    between atoms: N_10  and  C_11 
REMARK    5  A    between atoms: C_11  and  C_12 
ROOT
HETATM    1  N   UNL     1      25.582  44.950  49.588  1.00  0.00    -0.359 N 
HETATM    2  C   UNL     1      25.730  43.875  50.439  1.00  0.00     0.230 C 
HETATM    3  O   UNL     1      24.884  43.580  51.284  1.00  0.00    -0.272 OA
HETATM    4  H   UNL     1      26.382  45.226  49.030  1.00  0.00     0.162 HD
ENDROOT
BRANCH   1   5
HETATM    5  C   UNL     1      24.501  45.913  49.725  1.00  0.00     0.144 C 
BRANCH   5   6
HETATM    6  C   UNL     1      24.892  47.237  50.386  1.00  0.00     0.174 C 
BRANCH   6   7
HETATM    7  N   UNL     1      24.503  48.380  49.562  1.00  0.00    -0.233 N 
HETATM    8  N   UNL     1      23.194  48.795  49.686  1.00  0.00    -0.169 NA
HETATM    9  C   UNL     1      22.815  49.838  49.013  1.00  0.00     0.087 A 
HETATM   10  C   UNL     1      23.697  50.584  48.089  1.00  0.00     0.040 A 
HETATM   11  C   UNL     1      24.971  50.195  48.022  1.00  0.00     0.078 A 
HETATM   12  C   UNL     1      25.463  49.060  48.827  1.00  0.00     0.263 A 
HETATM   13  O   UNL     1      26.659  48.780  48.793  1.00  0.00    -0.267 OA
BRANCH   9  14
HETATM   14  C   UNL     1      21.407  50.314  49.147  1.00  0.00    -0.006 A 
HETATM   15  C   UNL     1      20.442  49.591  49.863  1.00  0.00     0.014 A 
HETATM   16  C   UNL     1      19.132  50.068  49.953  1.00  0.00     0.001 A 
HETATM   17  C   UNL     1      18.775  51.259  49.323  1.00  0.00     0.000 A 
HETATM   18  C   UNL     1      19.725  51.974  48.594  1.00  0.00     0.001 A 
HETATM   19  C   UNL     1      21.035  51.502  48.502  1.00  0.00     0.014 A 
ENDBRANCH   9  14
ENDBRANCH   6   7
ENDBRANCH   5   6
ENDBRANCH   1   5
BRANCH   2  20
HETATM   20  C   UNL     1      27.052  43.091  50.329  1.00  0.00     0.149 C 
HETATM   21  C   UNL     1      26.817  41.764  49.644  1.00  0.00    -0.007 A 
HETATM   22  C   UNL     1      27.009  40.569  50.340  1.00  0.00     0.083 A 
HETATM   23  C   UNL     1      26.384  41.712  48.307  1.00  0.00     0.011 A 
HETATM   24  C   UNL     1      26.760  39.342  49.721  1.00  0.00     0.038 A 
HETATM   25  O   UNL     1      27.441  40.513  51.642  1.00  0.00    -0.310 OA
HETATM   26  C   UNL     1      26.327  39.300  48.396  1.00  0.00     0.003 A 
HETATM   27  C   UNL     1      26.141  40.486  47.688  1.00  0.00     0.001 A 
HETATM   28  C   UNL     1      27.908  41.665  52.226  1.00  0.00     0.083 A 
HETATM   29  C   UNL     1      27.768  42.932  51.653  1.00  0.00    -0.007 A 
HETATM   30  C   UNL     1      28.542  41.513  53.461  1.00  0.00     0.038 A 
HETATM   31  C   UNL     1      28.286  44.048  52.330  1.00  0.00     0.011 A 
HETATM   32  C   UNL     1      28.924  43.893  53.562  1.00  0.00     0.001 A 
HETATM   33  C   UNL     1      29.051  42.627  54.127  1.00  0.00     0.003 A 
ENDBRANCH   2  20
TORSDOF 5
ENDMDL
MODEL 8
REMARK VINA RESULT:      -8.9      4.335      6.765
REMARK  5 active torsions:
REMARK  status: ('A' for Active; 'I' for Inactive)
REMARK    1  A    between atoms: C_4  and  C_5 
REMARK    2  A    between atoms: N_7  and  C_8 
REMARK    3  A    between atoms: C_8  and  C_9 
REMARK    4  A    between atoms: C_9  and  N_10 
REMARK       I    between atoms: N_10  and  C_11 
REMARK    5  A    between atoms: C_11  and  C_12 
ROOT
HETATM    1  N   UNL     1      25.034  45.862  50.823  1.00  0.00    -0.359 N 
HETATM    2  C   UNL     1      26.251  45.305  51.158  1.00  0.00     0.230 C 
HETATM    3  O   UNL     1      27.189  45.241  50.363  1.00  0.00    -0.272 OA
HETATM    4  H   UNL     1      24.263  45.740  51.469  1.00  0.00     0.162 HD
ENDROOT
BRANCH   1   5
HETATM    5  C   UNL     1      24.709  46.270  49.465  1.00  0.00     0.144 C 
BRANCH   5   6
HETATM    6  C   UNL     1      23.293  46.822  49.276  1.00  0.00     0.174 C 
BRANCH   6   7
HETATM    7  N   UNL     1      23.318  48.225  48.868  1.00  0.00    -0.233 N 
HETATM    8  N   UNL     1      22.094  48.792  48.581  1.00  0.00    -0.169 NA
HETATM    9  C   UNL     1      22.060  50.050  48.264  1.00  0.00     0.087 A 
HETATM   10  C   UNL     1      23.264  50.902  48.154  1.00  0.00     0.040 A 
HETATM   11  C   UNL     1      24.430  50.347  48.482  1.00  0.00     0.078 A 
HETATM   12  C   UNL     1      24.506  48.939  48.920  1.00  0.00     0.263 A 
HETATM   13  O   UNL     1      25.589  48.487  49.285  1.00  0.00    -0.267 OA
BRANCH   9  14
HETATM   14  C   UNL     1      20.742  50.687  47.968  1.00  0.00    -0.006 A 
HETATM   15  C   UNL     1      20.276  51.799  48.682  1.00  0.00     0.014 A 
HETATM   16  C   UNL     1      19.031  52.356  48.379  1.00  0.00     0.001 A 
HETATM   17  C   UNL     1      18.242  51.802  47.372  1.00  0.00     0.000 A 
HETATM   18  C   UNL     1      18.692  50.685  46.669  1.00  0.00     0.001 A 
HETATM   19  C   UNL     1      19.935  50.126  46.968  1.00  0.00     0.014 A 
ENDBRANCH   9  14
ENDBRANCH   6   7
ENDBRANCH   5   6
ENDBRANCH   1   5
BRANCH   2  20
HETATM   20  C   UNL     1      26.359  44.696  52.569  1.00  0.00     0.149 C 
HETATM   21  C   UNL     1      26.725  45.765  53.573  1.00  0.00    -0.007 A 
HETATM   22  C   UNL     1      27.947  45.710  54.245  1.00  0.00     0.083 A 
HETATM   23  C   UNL     1      25.852  46.836  53.831  1.00  0.00     0.011 A 
HETATM   24  C   UNL     1      28.303  46.714  55.148  1.00  0.00     0.038 A 
HETATM   25  O   UNL     1      28.861  44.701  54.072  1.00  0.00    -0.310 OA
HETATM   26  C   UNL     1      27.433  47.776  55.396  1.00  0.00     0.003 A 
HETATM   27  C   UNL     1      26.206  47.836  54.738  1.00  0.00     0.001 A 
HETATM   28  C   UNL     1      28.477  43.584  53.371  1.00  0.00     0.083 A 
HETATM   29  C   UNL     1      27.290  43.504  52.637  1.00  0.00    -0.007 A 
HETATM   30  C   UNL     1      29.355  42.499  53.417  1.00  0.00     0.038 A 
HETATM   31  C   UNL     1      26.987  42.313  51.958  1.00  0.00     0.011 A 
HETATM   32  C   UNL     1      27.863  41.228  52.010  1.00  0.00     0.001 A 
HETATM   33  C   UNL     1      29.047  41.321  52.737  1.00  0.00     0.003 A 
ENDBRANCH   2  20
TORSDOF 5
ENDMDL
MODEL 9
REMARK VINA RESULT:      -8.8      2.405      8.490
REMARK  5 active torsions:
REMARK  status: ('A' for Active; 'I' for Inactive)
REMARK    1  A    between atoms: C_4  and  C_5 
REMARK    2  A    between atoms: N_7  and  C_8 
REMARK    3  A    between atoms: C_8  and  C_9 
REMARK    4  A    between atoms: C_9  and  N_10 
REMARK       I    between atoms: N_10  and  C_11 
REMARK    5  A    between atoms: C_11  and  C_12 
ROOT
HETATM    1  N   UNL     1      26.209  42.370  51.571  1.00  0.00    -0.359 N 
HETATM    2  C   UNL     1      26.375  42.098  50.229  1.00  0.00     0.230 C 
HETATM    3  O   UNL     1      27.274  42.606  49.558  1.00  0.00    -0.272 OA
HETATM    4  H   UNL     1      25.361  42.043  52.020  1.00  0.00     0.162 HD
ENDROOT
BRANCH   1   5
HETATM    5  C   UNL     1      26.976  43.396  52.261  1.00  0.00     0.144 C 
BRANCH   5   6
HETATM    6  C   UNL     1      26.350  44.793  52.246  1.00  0.00     0.174 C 
BRANCH   6   7
HETATM    7  N   UNL     1      26.845  45.612  53.351  1.00  0.00    -0.233 N 
HETATM    8  N   UNL     1      27.842  45.048  54.120  1.00  0.00    -0.169 NA
HETATM    9  C   UNL     1      28.350  45.757  55.081  1.00  0.00     0.087 A 
HETATM   10  C   UNL     1      27.892  47.121  55.426  1.00  0.00     0.040 A 
HETATM   11  C   UNL     1      26.962  47.664  54.640  1.00  0.00     0.078 A 
HETATM   12  C   UNL     1      26.410  46.921  53.489  1.00  0.00     0.263 A 
HETATM   13  O   UNL     1      25.610  47.484  52.746  1.00  0.00    -0.267 OA
BRANCH   9  14
HETATM   14  C   UNL     1      29.442  45.172  55.913  1.00  0.00    -0.006 A 
HETATM   15  C   UNL     1      30.167  44.045  55.503  1.00  0.00     0.014 A 
HETATM   16  C   UNL     1      31.174  43.523  56.319  1.00  0.00     0.001 A 
HETATM   17  C   UNL     1      31.456  44.114  57.549  1.00  0.00     0.000 A 
HETATM   18  C   UNL     1      30.727  45.226  57.972  1.00  0.00     0.001 A 
HETATM   19  C   UNL     1      29.721  45.750  57.159  1.00  0.00     0.014 A 
ENDBRANCH   9  14
ENDBRANCH   6   7
ENDBRANCH   5   6
ENDBRANCH   1   5
BRANCH   2  20
HETATM   20  C   UNL     1      25.328  41.170  49.585  1.00  0.00     0.149 C 
HETATM   21  C   UNL     1      26.012  40.043  48.846  1.00  0.00    -0.007 A 
HETATM   22  C   UNL     1      25.895  39.938  47.459  1.00  0.00     0.083 A 
HETATM   23  C   UNL     1      26.789  39.098  49.538  1.00  0.00     0.011 A 
HETATM   24  C   UNL     1      26.554  38.919  46.768  1.00  0.00     0.038 A 
HETATM   25  O   UNL     1      25.151  40.803  46.694  1.00  0.00    -0.310 OA
HETATM   26  C   UNL     1      27.326  37.987  47.462  1.00  0.00     0.003 A 
HETATM   27  C   UNL     1      27.442  38.077  48.848  1.00  0.00     0.001 A 
HETATM   28  C   UNL     1      24.312  41.683  47.333  1.00  0.00     0.083 A 
HETATM   29  C   UNL     1      24.332  41.904  48.713  1.00  0.00    -0.007 A 
HETATM   30  C   UNL     1      23.416  42.377  46.517  1.00  0.00     0.038 A 
HETATM   31  C   UNL     1      23.428  42.825  49.268  1.00  0.00     0.011 A 
HETATM   32  C   UNL     1      22.529  43.513  48.452  1.00  0.00     0.001 A 
HETATM   33  C   UNL     1      22.524  43.290  47.077  1.00  0.00     0.003 A 
ENDBRANCH   2  20
TORSDOF 5
ENDMDL
MODEL 10
REMARK VINA RESULT:      -8.7      9.055     12.475
REMARK  5 active torsions:
REMARK  status: ('A' for Active; 'I' for Inactive)
REMARK    1  A    between atoms: C_4  and  C_5 
REMARK    2  A    between atoms: N_7  and  C_8 
REMARK    3  A    between atoms: C_8  and  C_9 
REMARK    4  A    between atoms: C_9  and  N_10 
REMARK       I    between atoms: N_10  and  C_11 
REMARK    5  A    between atoms: C_11  and  C_12 
ROOT
HETATM    1  N   UNL     1      19.603  48.104  47.231  1.00  0.00    -0.359 N 
HETATM    2  C   UNL     1      19.873  47.841  48.558  1.00  0.00     0.230 C 
HETATM    3  O   UNL     1      19.619  46.756  49.081  1.00  0.00    -0.272 OA
HETATM    4  H   UNL     1      19.691  49.062  46.911  1.00  0.00     0.162 HD
ENDROOT
BRANCH   1   5
HETATM    5  C   UNL     1      18.853  47.185  46.389  1.00  0.00     0.144 C 
BRANCH   5   6
HETATM    6  C   UNL     1      17.331  47.271  46.531  1.00  0.00     0.174 C 
BRANCH   6   7
HETATM    7  N   UNL     1      16.851  48.633  46.305  1.00  0.00    -0.233 N 
HETATM    8  N   UNL     1      17.373  49.283  45.208  1.00  0.00    -0.169 NA
HETATM    9  C   UNL     1      16.938  50.476  44.937  1.00  0.00     0.087 A 
HETATM   10  C   UNL     1      15.943  51.194  45.762  1.00  0.00     0.040 A 
HETATM   11  C   UNL     1      15.416  50.529  46.791  1.00  0.00     0.078 A 
HETATM   12  C   UNL     1      15.827  49.143  47.090  1.00  0.00     0.263 A 
HETATM   13  O   UNL     1      15.264  48.539  48.000  1.00  0.00    -0.267 OA
BRANCH   9  14
HETATM   14  C   UNL     1      17.478  51.189  43.742  1.00  0.00    -0.006 A 
HETATM   15  C   UNL     1      16.992  52.441  43.340  1.00  0.00     0.014 A 
HETATM   16  C   UNL     1      17.518  53.068  42.208  1.00  0.00     0.001 A 
HETATM   17  C   UNL     1      18.522  52.447  41.467  1.00  0.00     0.000 A 
HETATM   18  C   UNL     1      18.999  51.194  41.851  1.00  0.00     0.001 A 
HETATM   19  C   UNL     1      18.476  50.565  42.981  1.00  0.00     0.014 A 
ENDBRANCH   9  14
ENDBRANCH   6   7
ENDBRANCH   5   6
ENDBRANCH   1   5
BRANCH   2  20
HETATM   20  C   UNL     1      20.451  49.007  49.383  1.00  0.00     0.149 C 
HETATM   21  C   UNL     1      19.530  50.203  49.315  1.00  0.00    -0.007 A 
HETATM   22  C   UNL     1      19.954  51.383  48.701  1.00  0.00     0.083 A 
HETATM   23  C   UNL     1      18.231  50.142  49.848  1.00  0.00     0.011 A 
HETATM   24  C   UNL     1      19.095  52.480  48.605  1.00  0.00     0.038 A 
HETATM   25  O   UNL     1      21.206  51.548  48.161  1.00  0.00    -0.310 OA
HETATM   26  C   UNL     1      17.806  52.409  49.134  1.00  0.00     0.003 A 
HETATM   27  C   UNL     1      17.375  51.239  49.757  1.00  0.00     0.001 A 
HETATM   28  C   UNL     1      22.159  50.592  48.418  1.00  0.00     0.083 A 
HETATM   29  C   UNL     1      21.875  49.358  49.009  1.00  0.00    -0.007 A 
HETATM   30  C   UNL     1      23.466  50.914  48.043  1.00  0.00     0.038 A 
HETATM   31  C   UNL     1      22.924  48.451  49.232  1.00  0.00     0.011 A 
HETATM   32  C   UNL     1      24.229  48.777  48.862  1.00  0.00     0.001 A 
HETATM   33  C   UNL     1      24.500  50.006  48.267  1.00  0.00     0.003 A 
ENDBRANCH   2  20
TORSDOF 5
ENDMDL
