MODEL 1
REMARK VINA RESULT:      -7.6      0.000      0.000
REMARK  14 active torsions:
REMARK  status: ('A' for Active; 'I' for Inactive)
REMARK    1  A    between atoms: C_2  and  N_3 
REMARK    2  A    between atoms: N_3  and  C_5 
REMARK    3  A    between atoms: N_3  and  C_37 
REMARK    4  A    between atoms: C_5  and  C_6 
REMARK    5  A    between atoms: C_6  and  N_7 
REMARK    6  A    between atoms: C_10  and  O_11 
REMARK    7  A    between atoms: C_12  and  C_13 
REMARK    8  A    between atoms: C_13  and  C_14 
REMARK    9  A    between atoms: C_18  and  O_19 
REMARK   10  A    between atoms: O_19  and  C_20 
REMARK   11  A    between atoms: C_26  and  C_27 
REMARK   12  A    between atoms: C_29  and  O_30 
REMARK   13  A    between atoms: O_30  and  C_31 
REMARK   14  A    between atoms: C_33  and  O_34 
ROOT
HETATM    1  N   UNL     1      22.811  49.157  49.206  1.00  0.00    -0.332 N 
HETATM    2  C   UNL     1      23.350  50.109  48.372  1.00  0.00     0.278 C 
HETATM    3  O   UNL     1      22.808  51.113  47.944  1.00  0.00    -0.265 OA
HETATM    4  C   UNL     1      24.765  49.759  48.145  1.00  0.00     0.146 C 
HETATM    5  C   UNL     1      25.033  48.705  48.927  1.00  0.00     0.059 C 
HETATM    6  C   UNL     1      23.800  48.152  49.580  1.00  0.00     0.161 C 
ENDROOT
BRANCH   5   7
HETATM    7  C   UNL     1      26.343  48.102  49.262  1.00  0.00     0.193 C 
HETATM    8  O   UNL     1      27.343  48.426  48.628  1.00  0.00    -0.287 OA
BRANCH   7   9
HETATM    9  C   UNL     1      26.445  47.040  50.292  1.00  0.00     0.015 A 
HETATM   10  C   UNL     1      26.101  47.274  51.627  1.00  0.00     0.025 A 
HETATM   11  C   UNL     1      26.239  46.262  52.588  1.00  0.00    -0.028 A 
HETATM   12  C   UNL     1      25.936  46.557  54.033  1.00  0.00     0.051 C 
HETATM   13  C   UNL     1      26.693  44.990  52.196  1.00  0.00     0.075 A 
HETATM   14  C   UNL     1      26.956  44.738  50.847  1.00  0.00     0.038 A 
HETATM   15  C   UNL     1      26.835  45.759  49.897  1.00  0.00     0.018 A 
BRANCH  13  16
HETATM   16  O   UNL     1      26.829  44.083  53.211  1.00  0.00    -0.346 OA
BRANCH  16  17
HETATM   17  C   UNL     1      28.106  43.495  53.480  1.00  0.00     0.121 C 
HETATM   18  C   UNL     1      28.780  44.176  54.671  1.00  0.00     0.040 C 
HETATM   19  C   UNL     1      27.838  42.030  53.816  1.00  0.00     0.040 C 
ENDBRANCH  16  17
ENDBRANCH  13  16
ENDBRANCH   7   9
ENDBRANCH   5   7
BRANCH   4  20
HETATM   20  O   UNL     1      25.601  50.503  47.373  1.00  0.00    -0.355 OA
HETATM   21  H   UNL     1      25.043  51.125  46.863  1.00  0.00     0.218 HD
ENDBRANCH   4  20
BRANCH   6  22
HETATM   22  C   UNL     1      23.342  46.787  49.090  1.00  0.00    -0.028 A 
HETATM   23  C   UNL     1      23.384  45.678  49.961  1.00  0.00     0.049 A 
HETATM   24  C   UNL     1      22.911  44.431  49.548  1.00  0.00     0.102 A 
HETATM   25  C   UNL     1      22.398  44.296  48.254  1.00  0.00     0.099 A 
HETATM   26  C   UNL     1      22.366  45.364  47.370  1.00  0.00     0.040 A 
HETATM   27  C   UNL     1      22.839  46.606  47.785  1.00  0.00     0.012 A 
BRANCH  24  28
HETATM   28  O   UNL     1      22.873  43.287  50.299  1.00  0.00    -0.349 OA
BRANCH  28  29
HETATM   29  C   UNL     1      24.117  42.792  50.795  1.00  0.00     0.171 C 
HETATM   30  C   UNL     1      24.751  41.953  49.699  1.00  0.00     0.034 C 
ENDBRANCH  28  29
ENDBRANCH  24  28
BRANCH  25  31
HETATM   31  O   UNL     1      21.916  43.091  47.822  1.00  0.00    -0.358 OA
HETATM   32  H   UNL     1      22.156  42.451  48.520  1.00  0.00     0.218 HD
ENDBRANCH  25  31
ENDBRANCH   6  22
BRANCH   1  33
HETATM   33  C   UNL     1      21.573  49.349  49.940  1.00  0.00     0.155 C 
BRANCH  33  34
HETATM   34  C   UNL     1      20.339  48.784  49.213  1.00  0.00     0.254 C 
BRANCH  34  35
HETATM   35  N   UNL     1      19.335  49.854  48.793  1.00  0.00    -0.070 N 
HETATM   36  H   UNL     1      19.514  50.005  47.790  1.00  0.00     0.279 HD
BRANCH  35  37
HETATM   37  C   UNL     1      19.546  51.214  49.445  1.00  0.00     0.230 C 
HETATM   38  C   UNL     1      19.356  52.352  48.459  1.00  0.00     0.034 C 
ENDBRANCH  35  37
BRANCH  35  39
HETATM   39  C   UNL     1      17.877  49.438  48.890  1.00  0.00     0.230 C 
HETATM   40  C   UNL     1      17.738  47.977  49.270  1.00  0.00     0.034 C 
ENDBRANCH  35  39
ENDBRANCH  34  35
ENDBRANCH  33  34
ENDBRANCH   1  33
TORSDOF 14
ENDMDL
MODEL 2
REMARK VINA RESULT:      -7.6      2.631      5.736
REMARK  14 active torsions:
REMARK  status: ('A' for Active; 'I' for Inactive)
REMARK    1  A    between atoms: C_2  and  N_3 
REMARK    2  A    between atoms: N_3  and  C_5 
REMARK    3  A    between atoms: N_3  and  C_37 
REMARK    4  A    between atoms: C_5  and  C_6 
REMARK    5  A    between atoms: C_6  and  N_7 
REMARK    6  A    between atoms: C_10  and  O_11 
REMARK    7  A    between atoms: C_12  and  C_13 
REMARK    8  A    between atoms: C_13  and  C_14 
REMARK    9  A    between atoms: C_18  and  O_19 
REMARK   10  A    between atoms: O_19  and  C_20 
REMARK   11  A    between atoms: C_26  and  C_27 
REMARK   12  A    between atoms: C_29  and  O_30 
REMARK   13  A    between atoms: O_30  and  C_31 
REMARK   14  A    between atoms: C_33  and  O_34 
ROOT
HETATM    1  N   UNL     1      20.031  50.202  49.312  1.00  0.00    -0.332 N 
HETATM    2  C   UNL     1      19.155  49.343  49.936  1.00  0.00     0.278 C 
HETATM    3  O   UNL     1      18.415  49.589  50.871  1.00  0.00    -0.265 OA
HETATM    4  C   UNL     1      19.191  48.060  49.209  1.00  0.00     0.146 C 
HETATM    5  C   UNL     1      19.978  48.242  48.141  1.00  0.00     0.059 C 
HETATM    6  C   UNL     1      20.675  49.570  48.167  1.00  0.00     0.161 C 
ENDROOT
BRANCH   5   7
HETATM    7  C   UNL     1      20.171  47.364  46.964  1.00  0.00     0.193 C 
HETATM    8  O   UNL     1      19.533  47.574  45.936  1.00  0.00    -0.287 OA
BRANCH   7   9
HETATM    9  C   UNL     1      21.053  46.176  47.044  1.00  0.00     0.015 A 
HETATM   10  C   UNL     1      21.803  45.740  45.946  1.00  0.00     0.025 A 
HETATM   11  C   UNL     1      22.604  44.593  46.038  1.00  0.00    -0.028 A 
HETATM   12  C   UNL     1      23.343  44.098  44.823  1.00  0.00     0.051 C 
HETATM   13  C   UNL     1      22.682  43.897  47.258  1.00  0.00     0.075 A 
HETATM   14  C   UNL     1      21.997  44.383  48.374  1.00  0.00     0.038 A 
HETATM   15  C   UNL     1      21.183  45.518  48.269  1.00  0.00     0.018 A 
BRANCH  13  16
HETATM   16  O   UNL     1      23.460  42.772  47.236  1.00  0.00    -0.346 OA
BRANCH  16  17
HETATM   17  C   UNL     1      23.222  41.718  48.176  1.00  0.00     0.121 C 
HETATM   18  C   UNL     1      22.607  40.501  47.486  1.00  0.00     0.040 C 
HETATM   19  C   UNL     1      24.588  41.344  48.749  1.00  0.00     0.040 C 
ENDBRANCH  16  17
ENDBRANCH  13  16
ENDBRANCH   7   9
ENDBRANCH   5   7
BRANCH   4  20
HETATM   20  O   UNL     1      18.430  46.988  49.556  1.00  0.00    -0.355 OA
HETATM   21  H   UNL     1      17.895  47.254  50.331  1.00  0.00     0.218 HD
ENDBRANCH   4  20
BRANCH   6  22
HETATM   22  C   UNL     1      22.180  49.529  48.394  1.00  0.00    -0.028 A 
HETATM   23  C   UNL     1      22.722  48.638  49.343  1.00  0.00     0.049 A 
HETATM   24  C   UNL     1      24.104  48.544  49.521  1.00  0.00     0.102 A 
HETATM   25  C   UNL     1      24.943  49.350  48.746  1.00  0.00     0.099 A 
HETATM   26  C   UNL     1      24.435  50.251  47.822  1.00  0.00     0.040 A 
HETATM   27  C   UNL     1      23.057  50.343  47.647  1.00  0.00     0.012 A 
BRANCH  24  28
HETATM   28  O   UNL     1      24.755  47.707  50.387  1.00  0.00    -0.349 OA
BRANCH  28  29
HETATM   29  C   UNL     1      24.410  46.322  50.339  1.00  0.00     0.171 C 
HETATM   30  C   UNL     1      25.501  45.600  49.567  1.00  0.00     0.034 C 
ENDBRANCH  28  29
ENDBRANCH  24  28
BRANCH  25  31
HETATM   31  O   UNL     1      26.301  49.273  48.888  1.00  0.00    -0.358 OA
HETATM   32  H   UNL     1      26.540  48.366  48.617  1.00  0.00     0.218 HD
ENDBRANCH  25  31
ENDBRANCH   6  22
BRANCH   1  33
HETATM   33  C   UNL     1      20.006  51.642  49.502  1.00  0.00     0.155 C 
BRANCH  33  34
HETATM   34  C   UNL     1      19.469  52.408  48.279  1.00  0.00     0.254 C 
BRANCH  34  35
HETATM   35  N   UNL     1      17.966  52.670  48.334  1.00  0.00    -0.070 N 
HETATM   36  H   UNL     1      17.853  53.631  47.980  1.00  0.00     0.279 HD
BRANCH  35  37
HETATM   37  C   UNL     1      17.376  52.692  49.738  1.00  0.00     0.230 C 
HETATM   38  C   UNL     1      15.926  52.246  49.751  1.00  0.00     0.034 C 
ENDBRANCH  35  37
BRANCH  35  39
HETATM   39  C   UNL     1      17.129  51.795  47.418  1.00  0.00     0.230 C 
HETATM   40  C   UNL     1      17.981  51.113  46.365  1.00  0.00     0.034 C 
ENDBRANCH  35  39
ENDBRANCH  34  35
ENDBRANCH  33  34
ENDBRANCH   1  33
TORSDOF 14
ENDMDL
MODEL 3
REMARK VINA RESULT:      -7.1      2.357      8.342
REMARK  14 active torsions:
REMARK  status: ('A' for Active; 'I' for Inactive)
REMARK    1  A    between atoms: C_2  and  N_3 
REMARK    2  A    between atoms: N_3  and  C_5 
REMARK    3  A    between atoms: N_3  and  C_37 
REMARK    4  A    between atoms: C_5  and  C_6 
REMARK    5  A    between atoms: C_6  and  N_7 
REMARK    6  A    between atoms: C_10  and  O_11 
REMARK    7  A    between atoms: C_12  and  C_13 
REMARK    8  A    between atoms: C_13  and  C_14 
REMARK    9  A    between atoms: C_18  and  O_19 
REMARK   10  A    between atoms: O_19  and  C_20 
REMARK   11  A    between atoms: C_26  and  C_27 
REMARK   12  A    between atoms: C_29  and  O_30 
REMARK   13  A    between atoms: O_30  and  C_31 
REMARK   14  A    between atoms: C_33  and  O_34 
ROOT
HETATM    1  N   UNL     1      25.056  44.474  51.098  1.00  0.00    -0.332 N 
HETATM    2  C   UNL     1      25.203  43.175  50.665  1.00  0.00     0.278 C 
HETATM    3  O   UNL     1      25.630  42.227  51.299  1.00  0.00    -0.265 OA
HETATM    4  C   UNL     1      24.657  43.094  49.298  1.00  0.00     0.146 C 
HETATM    5  C   UNL     1      24.115  44.288  49.025  1.00  0.00     0.059 C 
HETATM    6  C   UNL     1      24.419  45.306  50.085  1.00  0.00     0.161 C 
ENDROOT
BRANCH   5   7
HETATM    7  C   UNL     1      23.238  44.678  47.898  1.00  0.00     0.193 C 
HETATM    8  O   UNL     1      23.533  44.347  46.753  1.00  0.00    -0.287 OA
BRANCH   7   9
HETATM    9  C   UNL     1      22.058  45.546  48.124  1.00  0.00     0.015 A 
HETATM   10  C   UNL     1      21.995  46.849  47.620  1.00  0.00     0.025 A 
HETATM   11  C   UNL     1      20.880  47.662  47.877  1.00  0.00    -0.028 A 
HETATM   12  C   UNL     1      20.866  49.085  47.389  1.00  0.00     0.051 C 
HETATM   13  C   UNL     1      19.802  47.147  48.619  1.00  0.00     0.075 A 
HETATM   14  C   UNL     1      19.835  45.818  49.050  1.00  0.00     0.038 A 
HETATM   15  C   UNL     1      20.959  45.019  48.806  1.00  0.00     0.018 A 
BRANCH  13  16
HETATM   16  O   UNL     1      18.781  48.027  48.847  1.00  0.00    -0.346 OA
BRANCH  16  17
HETATM   17  C   UNL     1      18.930  49.057  49.830  1.00  0.00     0.121 C 
HETATM   18  C   UNL     1      18.016  50.242  49.521  1.00  0.00     0.040 C 
HETATM   19  C   UNL     1      18.523  48.434  51.164  1.00  0.00     0.040 C 
ENDBRANCH  16  17
ENDBRANCH  13  16
ENDBRANCH   7   9
ENDBRANCH   5   7
BRANCH   4  20
HETATM   20  O   UNL     1      24.632  41.942  48.575  1.00  0.00    -0.355 OA
HETATM   21  H   UNL     1      24.899  41.219  49.177  1.00  0.00     0.218 HD
ENDBRANCH   4  20
BRANCH   6  22
HETATM   22  C   UNL     1      25.368  46.425  49.681  1.00  0.00    -0.028 A 
HETATM   23  C   UNL     1      24.869  47.729  49.477  1.00  0.00     0.049 A 
HETATM   24  C   UNL     1      25.734  48.780  49.166  1.00  0.00     0.102 A 
HETATM   25  C   UNL     1      27.103  48.520  49.056  1.00  0.00     0.099 A 
HETATM   26  C   UNL     1      27.617  47.244  49.230  1.00  0.00     0.040 A 
HETATM   27  C   UNL     1      26.752  46.197  49.539  1.00  0.00     0.012 A 
BRANCH  24  28
HETATM   28  O   UNL     1      25.382  50.088  48.968  1.00  0.00    -0.349 OA
BRANCH  28  29
HETATM   29  C   UNL     1      24.257  50.341  48.127  1.00  0.00     0.171 C 
HETATM   30  C   UNL     1      23.226  51.096  48.947  1.00  0.00     0.034 C 
ENDBRANCH  28  29
ENDBRANCH  24  28
BRANCH  25  31
HETATM   31  O   UNL     1      27.978  49.530  48.764  1.00  0.00    -0.358 OA
HETATM   32  H   UNL     1      27.568  50.340  49.123  1.00  0.00     0.218 HD
ENDBRANCH  25  31
ENDBRANCH   6  22
BRANCH   1  33
HETATM   33  C   UNL     1      25.135  44.862  52.495  1.00  0.00     0.155 C 
BRANCH  33  34
HETATM   34  C   UNL     1      26.552  45.270  52.936  1.00  0.00     0.254 C 
BRANCH  34  35
HETATM   35  N   UNL     1      27.458  44.083  53.255  1.00  0.00    -0.070 N 
HETATM   36  H   UNL     1      26.826  43.270  53.286  1.00  0.00     0.279 HD
BRANCH  35  37
HETATM   37  C   UNL     1      28.109  44.133  54.631  1.00  0.00     0.230 C 
HETATM   38  C   UNL     1      28.187  45.548  55.171  1.00  0.00     0.034 C 
ENDBRANCH  35  37
BRANCH  35  39
HETATM   39  C   UNL     1      28.489  43.759  52.188  1.00  0.00     0.230 C 
HETATM   40  C   UNL     1      29.683  43.026  52.769  1.00  0.00     0.034 C 
ENDBRANCH  35  39
ENDBRANCH  34  35
ENDBRANCH  33  34
ENDBRANCH   1  33
TORSDOF 14
ENDMDL
MODEL 4
REMARK VINA RESULT:      -7.1      3.860      8.665
REMARK  14 active torsions:
REMARK  status: ('A' for Active; 'I' for Inactive)
REMARK    1  A    between atoms: C_2  and  N_3 
REMARK    2  A    between atoms: N_3  and  C_5 
REMARK    3  A    between atoms: N_3  and  C_37 
REMARK    4  A    between atoms: C_5  and  C_6 
REMARK    5  A    between atoms: C_6  and  N_7 
REMARK    6  A    between atoms: C_10  and  O_11 
REMARK    7  A    between atoms: C_12  and  C_13 
REMARK    8  A    between atoms: C_13  and  C_14 
REMARK    9  A    between atoms: C_18  and  O_19 
REMARK   10  A    between atoms: O_19  and  C_20 
REMARK   11  A    between atoms: C_26  and  C_27 
REMARK   12  A    between atoms: C_29  and  O_30 
REMARK   13  A    between atoms: O_30  and  C_31 
REMARK   14  A    between atoms: C_33  and  O_34 
ROOT
HETATM    1  N   UNL     1      21.944  46.285  47.902  1.00  0.00    -0.332 N 
HETATM    2  C   UNL     1      22.867  46.487  48.903  1.00  0.00     0.278 C 
HETATM    3  O   UNL     1      23.564  45.650  49.449  1.00  0.00    -0.265 OA
HETATM    4  C   UNL     1      22.946  47.938  49.155  1.00  0.00     0.146 C 
HETATM    5  C   UNL     1      22.174  48.533  48.237  1.00  0.00     0.059 C 
HETATM    6  C   UNL     1      21.377  47.545  47.436  1.00  0.00     0.161 C 
ENDROOT
BRANCH   5   7
HETATM    7  C   UNL     1      22.077  49.969  47.889  1.00  0.00     0.193 C 
HETATM    8  O   UNL     1      23.052  50.550  47.420  1.00  0.00    -0.287 OA
BRANCH   7   9
HETATM    9  C   UNL     1      20.846  50.738  48.189  1.00  0.00     0.015 A 
HETATM   10  C   UNL     1      19.894  51.019  47.202  1.00  0.00     0.025 A 
HETATM   11  C   UNL     1      18.754  51.778  47.505  1.00  0.00    -0.028 A 
HETATM   12  C   UNL     1      17.782  52.133  46.413  1.00  0.00     0.051 C 
HETATM   13  C   UNL     1      18.550  52.228  48.822  1.00  0.00     0.075 A 
HETATM   14  C   UNL     1      19.461  51.875  49.821  1.00  0.00     0.038 A 
HETATM   15  C   UNL     1      20.607  51.133  49.506  1.00  0.00     0.018 A 
BRANCH  13  16
HETATM   16  O   UNL     1      17.429  52.990  49.008  1.00  0.00    -0.346 OA
BRANCH  16  17
HETATM   17  C   UNL     1      16.441  52.590  49.962  1.00  0.00     0.121 C 
HETATM   18  C   UNL     1      15.567  53.775  50.373  1.00  0.00     0.040 C 
HETATM   19  C   UNL     1      15.579  51.538  49.266  1.00  0.00     0.040 C 
ENDBRANCH  16  17
ENDBRANCH  13  16
ENDBRANCH   7   9
ENDBRANCH   5   7
BRANCH   4  20
HETATM   20  O   UNL     1      23.778  48.488  50.080  1.00  0.00    -0.355 OA
HETATM   21  H   UNL     1      24.131  49.315  49.693  1.00  0.00     0.218 HD
ENDBRANCH   4  20
BRANCH   6  22
HETATM   22  C   UNL     1      19.876  47.544  47.682  1.00  0.00    -0.028 A 
HETATM   23  C   UNL     1      18.985  47.578  46.589  1.00  0.00     0.049 A 
HETATM   24  C   UNL     1      17.605  47.517  46.793  1.00  0.00     0.102 A 
HETATM   25  C   UNL     1      17.118  47.426  48.101  1.00  0.00     0.099 A 
HETATM   26  C   UNL     1      17.970  47.413  49.194  1.00  0.00     0.040 A 
HETATM   27  C   UNL     1      19.346  47.475  48.987  1.00  0.00     0.012 A 
BRANCH  24  28
HETATM   28  O   UNL     1      16.640  47.517  45.822  1.00  0.00    -0.349 OA
BRANCH  28  29
HETATM   29  C   UNL     1      16.500  48.705  45.043  1.00  0.00     0.171 C 
HETATM   30  C   UNL     1      15.268  49.442  45.540  1.00  0.00     0.034 C 
ENDBRANCH  28  29
ENDBRANCH  24  28
BRANCH  25  31
HETATM   31  O   UNL     1      15.773  47.352  48.335  1.00  0.00    -0.358 OA
HETATM   32  H   UNL     1      15.349  47.567  47.482  1.00  0.00     0.218 HD
ENDBRANCH  25  31
ENDBRANCH   6  22
BRANCH   1  33
HETATM   33  C   UNL     1      21.856  45.055  47.136  1.00  0.00     0.155 C 
BRANCH  33  34
HETATM   34  C   UNL     1      21.859  45.283  45.614  1.00  0.00     0.254 C 
BRANCH  34  35
HETATM   35  N   UNL     1      20.590  44.795  44.920  1.00  0.00    -0.070 N 
HETATM   36  H   UNL     1      20.070  45.653  44.688  1.00  0.00     0.279 HD
BRANCH  35  37
HETATM   37  C   UNL     1      19.651  43.988  45.807  1.00  0.00     0.230 C 
HETATM   38  C   UNL     1      18.204  44.124  45.372  1.00  0.00     0.034 C 
ENDBRANCH  35  37
BRANCH  35  39
HETATM   39  C   UNL     1      20.816  44.083  43.597  1.00  0.00     0.230 C 
HETATM   40  C   UNL     1      21.595  42.795  43.782  1.00  0.00     0.034 C 
ENDBRANCH  35  39
ENDBRANCH  34  35
ENDBRANCH  33  34
ENDBRANCH   1  33
TORSDOF 14
ENDMDL
MODEL 5
REMARK VINA RESULT:      -7.1      5.827     10.945
REMARK  14 active torsions:
REMARK  status: ('A' for Active; 'I' for Inactive)
REMARK    1  A    between atoms: C_2  and  N_3 
REMARK    2  A    between atoms: N_3  and  C_5 
REMARK    3  A    between atoms: N_3  and  C_37 
REMARK    4  A    between atoms: C_5  and  C_6 
REMARK    5  A    between atoms: C_6  and  N_7 
REMARK    6  A    between atoms: C_10  and  O_11 
REMARK    7  A    between atoms: C_12  and  C_13 
REMARK    8  A    between atoms: C_13  and  C_14 
REMARK    9  A    between atoms: C_18  and  O_19 
REMARK   10  A    between atoms: O_19  and  C_20 
REMARK   11  A    between atoms: C_26  and  C_27 
REMARK   12  A    between atoms: C_29  and  O_30 
REMARK   13  A    between atoms: O_30  and  C_31 
REMARK   14  A    between atoms: C_33  and  O_34 
ROOT
HETATM    1  N   UNL     1      19.385  48.286  47.523  1.00  0.00    -0.332 N 
HETATM    2  C   UNL     1      18.984  47.138  48.168  1.00  0.00     0.278 C 
HETATM    3  O   UNL     1      19.685  46.337  48.760  1.00  0.00    -0.265 OA
HETATM    4  C   UNL     1      17.512  47.079  48.105  1.00  0.00     0.146 C 
HETATM    5  C   UNL     1      17.101  48.223  47.543  1.00  0.00     0.059 C 
HETATM    6  C   UNL     1      18.245  49.039  47.015  1.00  0.00     0.161 C 
ENDROOT
BRANCH   5   7
HETATM    7  C   UNL     1      15.733  48.779  47.452  1.00  0.00     0.193 C 
HETATM    8  O   UNL     1      14.789  48.037  47.193  1.00  0.00    -0.287 OA
BRANCH   7   9
HETATM    9  C   UNL     1      15.500  50.238  47.575  1.00  0.00     0.015 A 
HETATM   10  C   UNL     1      15.700  50.916  48.782  1.00  0.00     0.025 A 
HETATM   11  C   UNL     1      15.439  52.291  48.881  1.00  0.00    -0.028 A 
HETATM   12  C   UNL     1      15.588  52.986  50.207  1.00  0.00     0.051 C 
HETATM   13  C   UNL     1      15.009  52.999  47.744  1.00  0.00     0.075 A 
HETATM   14  C   UNL     1      14.891  52.333  46.521  1.00  0.00     0.038 A 
HETATM   15  C   UNL     1      15.133  50.957  46.436  1.00  0.00     0.018 A 
BRANCH  13  16
HETATM   16  O   UNL     1      14.747  54.325  47.951  1.00  0.00    -0.346 OA
BRANCH  16  17
HETATM   17  C   UNL     1      13.438  54.845  47.695  1.00  0.00     0.121 C 
HETATM   18  C   UNL     1      12.531  54.662  48.911  1.00  0.00     0.040 C 
HETATM   19  C   UNL     1      13.620  56.335  47.414  1.00  0.00     0.040 C 
ENDBRANCH  16  17
ENDBRANCH  13  16
ENDBRANCH   7   9
ENDBRANCH   5   7
BRANCH   4  20
HETATM   20  O   UNL     1      16.784  46.073  48.661  1.00  0.00    -0.355 OA
HETATM   21  H   UNL     1      16.189  45.730  47.963  1.00  0.00     0.218 HD
ENDBRANCH   4  20
BRANCH   6  22
HETATM   22  C   UNL     1      18.345  49.146  45.500  1.00  0.00    -0.028 A 
HETATM   23  C   UNL     1      18.288  50.411  44.880  1.00  0.00     0.049 A 
HETATM   24  C   UNL     1      18.439  50.533  43.498  1.00  0.00     0.102 A 
HETATM   25  C   UNL     1      18.644  49.379  42.735  1.00  0.00     0.099 A 
HETATM   26  C   UNL     1      18.682  48.121  43.316  1.00  0.00     0.040 A 
HETATM   27  C   UNL     1      18.530  48.003  44.695  1.00  0.00     0.012 A 
BRANCH  24  28
HETATM   28  O   UNL     1      18.427  51.699  42.779  1.00  0.00    -0.349 OA
BRANCH  28  29
HETATM   29  C   UNL     1      17.152  52.263  42.473  1.00  0.00     0.171 C 
HETATM   30  C   UNL     1      16.988  53.519  43.312  1.00  0.00     0.034 C 
ENDBRANCH  28  29
ENDBRANCH  24  28
BRANCH  25  31
HETATM   31  O   UNL     1      18.807  49.465  41.380  1.00  0.00    -0.358 OA
HETATM   32  H   UNL     1      19.682  49.879  41.249  1.00  0.00     0.218 HD
ENDBRANCH  25  31
ENDBRANCH   6  22
BRANCH   1  33
HETATM   33  C   UNL     1      20.703  48.874  47.688  1.00  0.00     0.155 C 
BRANCH  33  34
HETATM   34  C   UNL     1      21.018  49.266  49.143  1.00  0.00     0.254 C 
BRANCH  34  35
HETATM   35  N   UNL     1      20.447  50.623  49.547  1.00  0.00    -0.070 N 
HETATM   36  H   UNL     1      21.104  50.986  50.252  1.00  0.00     0.279 HD
BRANCH  35  37
HETATM   37  C   UNL     1      19.099  50.560  50.254  1.00  0.00     0.230 C 
HETATM   38  C   UNL     1      18.897  49.240  50.974  1.00  0.00     0.034 C 
ENDBRANCH  35  37
BRANCH  35  39
HETATM   39  C   UNL     1      20.419  51.662  48.440  1.00  0.00     0.230 C 
HETATM   40  C   UNL     1      19.104  52.416  48.413  1.00  0.00     0.034 C 
ENDBRANCH  35  39
ENDBRANCH  34  35
ENDBRANCH  33  34
ENDBRANCH   1  33
TORSDOF 14
ENDMDL
MODEL 6
REMARK VINA RESULT:      -7.0      3.506      9.257
REMARK  14 active torsions:
REMARK  status: ('A' for Active; 'I' for Inactive)
REMARK    1  A    between atoms: C_2  and  N_3 
REMARK    2  A    between atoms: N_3  and  C_5 
REMARK    3  A    between atoms: N_3  and  C_37 
REMARK    4  A    between atoms: C_5  and  C_6 
REMARK    5  A    between atoms: C_6  and  N_7 
REMARK    6  A    between atoms: C_10  and  O_11 
REMARK    7  A    between atoms: C_12  and  C_13 
REMARK    8  A    between atoms: C_13  and  C_14 
REMARK    9  A    between atoms: C_18  and  O_19 
REMARK   10  A    between atoms: O_19  and  C_20 
REMARK   11  A    between atoms: C_26  and  C_27 
REMARK   12  A    between atoms: C_29  and  O_30 
REMARK   13  A    between atoms: O_30  and  C_31 
REMARK   14  A    between atoms: C_33  and  O_34 
ROOT
HETATM    1  N   UNL     1      25.753  41.299  49.908  1.00  0.00    -0.332 N 
HETATM    2  C   UNL     1      25.683  41.526  48.553  1.00  0.00     0.278 C 
HETATM    3  O   UNL     1      26.241  40.903  47.667  1.00  0.00    -0.265 OA
HETATM    4  C   UNL     1      24.723  42.623  48.331  1.00  0.00     0.146 C 
HETATM    5  C   UNL     1      24.186  42.917  49.522  1.00  0.00     0.059 C 
HETATM    6  C   UNL     1      24.868  42.193  50.646  1.00  0.00     0.161 C 
ENDROOT
BRANCH   5   7
HETATM    7  C   UNL     1      23.016  43.767  49.834  1.00  0.00     0.193 C 
HETATM    8  O   UNL     1      22.088  43.308  50.494  1.00  0.00    -0.287 OA
BRANCH   7   9
HETATM    9  C   UNL     1      22.906  45.137  49.278  1.00  0.00     0.015 A 
HETATM   10  C   UNL     1      21.901  45.484  48.369  1.00  0.00     0.025 A 
HETATM   11  C   UNL     1      21.840  46.779  47.831  1.00  0.00    -0.028 A 
HETATM   12  C   UNL     1      20.796  47.109  46.799  1.00  0.00     0.051 C 
HETATM   13  C   UNL     1      22.778  47.744  48.239  1.00  0.00     0.075 A 
HETATM   14  C   UNL     1      23.729  47.415  49.209  1.00  0.00     0.038 A 
HETATM   15  C   UNL     1      23.795  46.115  49.726  1.00  0.00     0.018 A 
BRANCH  13  16
HETATM   16  O   UNL     1      22.657  48.963  47.631  1.00  0.00    -0.346 OA
BRANCH  16  17
HETATM   17  C   UNL     1      22.351  50.125  48.410  1.00  0.00     0.121 C 
HETATM   18  C   UNL     1      23.443  51.184  48.262  1.00  0.00     0.040 C 
HETATM   19  C   UNL     1      21.034  50.670  47.861  1.00  0.00     0.040 C 
ENDBRANCH  16  17
ENDBRANCH  13  16
ENDBRANCH   7   9
ENDBRANCH   5   7
BRANCH   4  20
HETATM   20  O   UNL     1      24.405  43.094  47.095  1.00  0.00    -0.355 OA
HETATM   21  H   UNL     1      24.606  44.052  47.092  1.00  0.00     0.218 HD
ENDBRANCH   4  20
BRANCH   6  22
HETATM   22  C   UNL     1      25.695  43.055  51.589  1.00  0.00    -0.028 A 
HETATM   23  C   UNL     1      27.101  42.941  51.594  1.00  0.00     0.049 A 
HETATM   24  C   UNL     1      27.878  43.767  52.409  1.00  0.00     0.102 A 
HETATM   25  C   UNL     1      27.241  44.707  53.225  1.00  0.00     0.099 A 
HETATM   26  C   UNL     1      25.860  44.825  53.256  1.00  0.00     0.040 A 
HETATM   27  C   UNL     1      25.087  44.000  52.443  1.00  0.00     0.012 A 
BRANCH  24  28
HETATM   28  O   UNL     1      29.245  43.774  52.489  1.00  0.00    -0.349 OA
BRANCH  28  29
HETATM   29  C   UNL     1      29.869  42.633  53.080  1.00  0.00     0.171 C 
HETATM   30  C   UNL     1      30.476  43.071  54.402  1.00  0.00     0.034 C 
ENDBRANCH  28  29
ENDBRANCH  24  28
BRANCH  25  31
HETATM   31  O   UNL     1      27.974  45.539  54.026  1.00  0.00    -0.358 OA
HETATM   32  H   UNL     1      28.143  46.335  53.487  1.00  0.00     0.218 HD
ENDBRANCH  25  31
ENDBRANCH   6  22
BRANCH   1  33
HETATM   33  C   UNL     1      26.297  40.083  50.486  1.00  0.00     0.155 C 
BRANCH  33  34
HETATM   34  C   UNL     1      27.797  39.891  50.200  1.00  0.00     0.254 C 
BRANCH  34  35
HETATM   35  N   UNL     1      28.193  38.435  49.964  1.00  0.00    -0.070 N 
HETATM   36  H   UNL     1      27.737  37.911  50.724  1.00  0.00     0.279 HD
BRANCH  35  37
HETATM   37  C   UNL     1      29.680  38.148  50.120  1.00  0.00     0.230 C 
HETATM   38  C   UNL     1      29.969  37.293  51.339  1.00  0.00     0.034 C 
ENDBRANCH  35  37
BRANCH  35  39
HETATM   39  C   UNL     1      27.665  37.829  48.675  1.00  0.00     0.230 C 
HETATM   40  C   UNL     1      26.735  36.663  48.946  1.00  0.00     0.034 C 
ENDBRANCH  35  39
ENDBRANCH  34  35
ENDBRANCH  33  34
ENDBRANCH   1  33
TORSDOF 14
ENDMDL
MODEL 7
REMARK VINA RESULT:      -7.0      3.758      8.486
REMARK  14 active torsions:
REMARK  status: ('A' for Active; 'I' for Inactive)
REMARK    1  A    between atoms: C_2  and  N_3 
REMARK    2  A    between atoms: N_3  and  C_5 
REMARK    3  A    between atoms: N_3  and  C_37 
REMARK    4  A    between atoms: C_5  and  C_6 
REMARK    5  A    between atoms: C_6  and  N_7 
REMARK    6  A    between atoms: C_10  and  O_11 
REMARK    7  A    between atoms: C_12  and  C_13 
REMARK    8  A    between atoms: C_13  and  C_14 
REMARK    9  A    between atoms: C_18  and  O_19 
REMARK   10  A    between atoms: O_19  and  C_20 
REMARK   11  A    between atoms: C_26  and  C_27 
REMARK   12  A    between atoms: C_29  and  O_30 
REMARK   13  A    between atoms: O_30  and  C_31 
REMARK   14  A    between atoms: C_33  and  O_34 
ROOT
HETATM    1  N   UNL     1      20.016  50.067  49.455  1.00  0.00    -0.332 N 
HETATM    2  C   UNL     1      19.237  49.101  50.050  1.00  0.00     0.278 C 
HETATM    3  O   UNL     1      18.536  49.220  51.039  1.00  0.00    -0.265 OA
HETATM    4  C   UNL     1      19.317  47.885  49.219  1.00  0.00     0.146 C 
HETATM    5  C   UNL     1      20.027  48.205  48.130  1.00  0.00     0.059 C 
HETATM    6  C   UNL     1      20.635  49.574  48.230  1.00  0.00     0.161 C 
ENDROOT
BRANCH   5   7
HETATM    7  C   UNL     1      20.211  47.438  46.877  1.00  0.00     0.193 C 
HETATM    8  O   UNL     1      21.342  47.129  46.512  1.00  0.00    -0.287 OA
BRANCH   7   9
HETATM    9  C   UNL     1      19.052  47.121  46.008  1.00  0.00     0.015 A 
HETATM   10  C   UNL     1      18.518  45.830  45.935  1.00  0.00     0.025 A 
HETATM   11  C   UNL     1      17.443  45.549  45.079  1.00  0.00    -0.028 A 
HETATM   12  C   UNL     1      16.933  44.139  44.959  1.00  0.00     0.051 C 
HETATM   13  C   UNL     1      16.875  46.585  44.316  1.00  0.00     0.075 A 
HETATM   14  C   UNL     1      17.359  47.889  44.455  1.00  0.00     0.038 A 
HETATM   15  C   UNL     1      18.445  48.157  45.297  1.00  0.00     0.018 A 
BRANCH  13  16
HETATM   16  O   UNL     1      15.857  46.204  43.486  1.00  0.00    -0.346 OA
BRANCH  16  17
HETATM   17  C   UNL     1      14.527  46.678  43.719  1.00  0.00     0.121 C 
HETATM   18  C   UNL     1      14.080  47.620  42.602  1.00  0.00     0.040 C 
HETATM   19  C   UNL     1      13.631  45.441  43.733  1.00  0.00     0.040 C 
ENDBRANCH  16  17
ENDBRANCH  13  16
ENDBRANCH   7   9
ENDBRANCH   5   7
BRANCH   4  20
HETATM   20  O   UNL     1      18.650  46.737  49.515  1.00  0.00    -0.355 OA
HETATM   21  H   UNL     1      18.470  46.750  50.477  1.00  0.00     0.218 HD
ENDBRANCH   4  20
BRANCH   6  22
HETATM   22  C   UNL     1      22.149  49.622  48.375  1.00  0.00    -0.028 A 
HETATM   23  C   UNL     1      22.796  48.755  49.280  1.00  0.00     0.049 A 
HETATM   24  C   UNL     1      24.188  48.744  49.383  1.00  0.00     0.102 A 
HETATM   25  C   UNL     1      24.934  49.608  48.575  1.00  0.00     0.099 A 
HETATM   26  C   UNL     1      24.323  50.486  47.692  1.00  0.00     0.040 A 
HETATM   27  C   UNL     1      22.934  50.496  47.593  1.00  0.00     0.012 A 
BRANCH  24  28
HETATM   28  O   UNL     1      24.935  47.939  50.200  1.00  0.00    -0.349 OA
BRANCH  28  29
HETATM   29  C   UNL     1      24.631  46.544  50.196  1.00  0.00     0.171 C 
HETATM   30  C   UNL     1      24.983  45.989  51.566  1.00  0.00     0.034 C 
ENDBRANCH  28  29
ENDBRANCH  24  28
BRANCH  25  31
HETATM   31  O   UNL     1      26.300  49.613  48.642  1.00  0.00    -0.358 OA
HETATM   32  H   UNL     1      26.585  48.802  48.179  1.00  0.00     0.218 HD
ENDBRANCH  25  31
ENDBRANCH   6  22
BRANCH   1  33
HETATM   33  C   UNL     1      19.906  51.482  49.762  1.00  0.00     0.155 C 
BRANCH  33  34
HETATM   34  C   UNL     1      19.443  52.332  48.565  1.00  0.00     0.254 C 
BRANCH  34  35
HETATM   35  N   UNL     1      17.926  52.379  48.400  1.00  0.00    -0.070 N 
HETATM   36  H   UNL     1      17.724  53.344  48.101  1.00  0.00     0.279 HD
BRANCH  35  37
HETATM   37  C   UNL     1      17.140  52.190  49.691  1.00  0.00     0.230 C 
HETATM   38  C   UNL     1      16.222  53.364  49.974  1.00  0.00     0.034 C 
ENDBRANCH  35  37
BRANCH  35  39
HETATM   39  C   UNL     1      17.372  51.486  47.304  1.00  0.00     0.230 C 
HETATM   40  C   UNL     1      16.578  50.327  47.875  1.00  0.00     0.034 C 
ENDBRANCH  35  39
ENDBRANCH  34  35
ENDBRANCH  33  34
ENDBRANCH   1  33
TORSDOF 14
ENDMDL
MODEL 8
REMARK VINA RESULT:      -6.9      2.674      4.685
REMARK  14 active torsions:
REMARK  status: ('A' for Active; 'I' for Inactive)
REMARK    1  A    between atoms: C_2  and  N_3 
REMARK    2  A    between atoms: N_3  and  C_5 
REMARK    3  A    between atoms: N_3  and  C_37 
REMARK    4  A    between atoms: C_5  and  C_6 
REMARK    5  A    between atoms: C_6  and  N_7 
REMARK    6  A    between atoms: C_10  and  O_11 
REMARK    7  A    between atoms: C_12  and  C_13 
REMARK    8  A    between atoms: C_13  and  C_14 
REMARK    9  A    between atoms: C_18  and  O_19 
REMARK   10  A    between atoms: O_19  and  C_20 
REMARK   11  A    between atoms: C_26  and  C_27 
REMARK   12  A    between atoms: C_29  and  O_30 
REMARK   13  A    between atoms: O_30  and  C_31 
REMARK   14  A    between atoms: C_33  and  O_34 
ROOT
HETATM    1  N   UNL     1      20.141  49.490  49.113  1.00  0.00    -0.332 N 
HETATM    2  C   UNL     1      21.083  50.326  48.559  1.00  0.00     0.278 C 
HETATM    3  O   UNL     1      21.118  51.542  48.612  1.00  0.00    -0.265 OA
HETATM    4  C   UNL     1      22.128  49.483  47.948  1.00  0.00     0.146 C 
HETATM    5  C   UNL     1      21.833  48.214  48.259  1.00  0.00     0.059 C 
HETATM    6  C   UNL     1      20.492  48.088  48.921  1.00  0.00     0.161 C 
ENDROOT
BRANCH   5   7
HETATM    7  C   UNL     1      22.662  46.998  48.101  1.00  0.00     0.193 C 
HETATM    8  O   UNL     1      22.584  46.336  47.070  1.00  0.00    -0.287 OA
BRANCH   7   9
HETATM    9  C   UNL     1      23.516  46.516  49.213  1.00  0.00     0.015 A 
HETATM   10  C   UNL     1      23.632  45.154  49.515  1.00  0.00     0.025 A 
HETATM   11  C   UNL     1      24.420  44.727  50.594  1.00  0.00    -0.028 A 
HETATM   12  C   UNL     1      24.471  43.265  50.947  1.00  0.00     0.051 C 
HETATM   13  C   UNL     1      25.127  45.675  51.355  1.00  0.00     0.075 A 
HETATM   14  C   UNL     1      25.073  47.025  50.998  1.00  0.00     0.038 A 
HETATM   15  C   UNL     1      24.269  47.445  49.932  1.00  0.00     0.018 A 
BRANCH  13  16
HETATM   16  O   UNL     1      25.836  45.162  52.407  1.00  0.00    -0.346 OA
BRANCH  16  17
HETATM   17  C   UNL     1      25.465  45.493  53.749  1.00  0.00     0.121 C 
HETATM   18  C   UNL     1      25.222  44.229  54.574  1.00  0.00     0.040 C 
HETATM   19  C   UNL     1      26.643  46.267  54.337  1.00  0.00     0.040 C 
ENDBRANCH  16  17
ENDBRANCH  13  16
ENDBRANCH   7   9
ENDBRANCH   5   7
BRANCH   4  20
HETATM   20  O   UNL     1      23.222  49.992  47.320  1.00  0.00    -0.355 OA
HETATM   21  H   UNL     1      23.142  49.762  46.372  1.00  0.00     0.218 HD
ENDBRANCH   4  20
BRANCH   6  22
HETATM   22  C   UNL     1      19.406  47.404  48.102  1.00  0.00    -0.028 A 
HETATM   23  C   UNL     1      19.376  47.565  46.701  1.00  0.00     0.049 A 
HETATM   24  C   UNL     1      18.424  46.898  45.929  1.00  0.00     0.102 A 
HETATM   25  C   UNL     1      17.496  46.068  46.566  1.00  0.00     0.099 A 
HETATM   26  C   UNL     1      17.488  45.910  47.943  1.00  0.00     0.040 A 
HETATM   27  C   UNL     1      18.439  46.578  48.711  1.00  0.00     0.012 A 
BRANCH  24  28
HETATM   28  O   UNL     1      18.304  46.950  44.566  1.00  0.00    -0.349 OA
BRANCH  28  29
HETATM   29  C   UNL     1      18.146  48.239  43.974  1.00  0.00     0.171 C 
HETATM   30  C   UNL     1      16.664  48.574  43.981  1.00  0.00     0.034 C 
ENDBRANCH  28  29
ENDBRANCH  24  28
BRANCH  25  31
HETATM   31  O   UNL     1      16.558  45.391  45.836  1.00  0.00    -0.358 OA
HETATM   32  H   UNL     1      16.324  45.986  45.098  1.00  0.00     0.218 HD
ENDBRANCH  25  31
ENDBRANCH   6  22
BRANCH   1  33
HETATM   33  C   UNL     1      19.171  49.927  50.102  1.00  0.00     0.155 C 
BRANCH  33  34
HETATM   34  C   UNL     1      17.850  50.419  49.484  1.00  0.00     0.254 C 
BRANCH  34  35
HETATM   35  N   UNL     1      17.881  51.887  49.068  1.00  0.00    -0.070 N 
HETATM   36  H   UNL     1      18.824  52.214  49.322  1.00  0.00     0.279 HD
BRANCH  35  37
HETATM   37  C   UNL     1      16.926  52.787  49.841  1.00  0.00     0.230 C 
HETATM   38  C   UNL     1      15.484  52.582  49.417  1.00  0.00     0.034 C 
ENDBRANCH  35  37
BRANCH  35  39
HETATM   39  C   UNL     1      17.752  52.133  47.574  1.00  0.00     0.230 C 
HETATM   40  C   UNL     1      17.687  50.832  46.798  1.00  0.00     0.034 C 
ENDBRANCH  35  39
ENDBRANCH  34  35
ENDBRANCH  33  34
ENDBRANCH   1  33
TORSDOF 14
ENDMDL
MODEL 9
REMARK VINA RESULT:      -6.9      9.863     12.981
REMARK  14 active torsions:
REMARK  status: ('A' for Active; 'I' for Inactive)
REMARK    1  A    between atoms: C_2  and  N_3 
REMARK    2  A    between atoms: N_3  and  C_5 
REMARK    3  A    between atoms: N_3  and  C_37 
REMARK    4  A    between atoms: C_5  and  C_6 
REMARK    5  A    between atoms: C_6  and  N_7 
REMARK    6  A    between atoms: C_10  and  O_11 
REMARK    7  A    between atoms: C_12  and  C_13 
REMARK    8  A    between atoms: C_13  and  C_14 
REMARK    9  A    between atoms: C_18  and  O_19 
REMARK   10  A    between atoms: O_19  and  C_20 
REMARK   11  A    between atoms: C_26  and  C_27 
REMARK   12  A    between atoms: C_29  and  O_30 
REMARK   13  A    between atoms: O_30  and  C_31 
REMARK   14  A    between atoms: C_33  and  O_34 
ROOT
HETATM    1  N   UNL     1      27.283  47.474  40.099  1.00  0.00    -0.332 N 
HETATM    2  C   UNL     1      26.761  47.246  38.846  1.00  0.00     0.278 C 
HETATM    3  O   UNL     1      26.076  46.304  38.488  1.00  0.00    -0.265 OA
HETATM    4  C   UNL     1      27.098  48.407  38.001  1.00  0.00     0.146 C 
HETATM    5  C   UNL     1      27.689  49.307  38.798  1.00  0.00     0.059 C 
HETATM    6  C   UNL     1      27.968  48.759  40.167  1.00  0.00     0.161 C 
ENDROOT
BRANCH   5   7
HETATM    7  C   UNL     1      28.013  50.725  38.523  1.00  0.00     0.193 C 
HETATM    8  O   UNL     1      27.194  51.437  37.947  1.00  0.00    -0.287 OA
BRANCH   7   9
HETATM    9  C   UNL     1      29.351  51.272  38.850  1.00  0.00     0.015 A 
HETATM   10  C   UNL     1      29.529  52.239  39.845  1.00  0.00     0.025 A 
HETATM   11  C   UNL     1      30.802  52.765  40.111  1.00  0.00    -0.028 A 
HETATM   12  C   UNL     1      30.960  53.859  41.132  1.00  0.00     0.051 C 
HETATM   13  C   UNL     1      31.914  52.287  39.394  1.00  0.00     0.075 A 
HETATM   14  C   UNL     1      31.743  51.262  38.460  1.00  0.00     0.038 A 
HETATM   15  C   UNL     1      30.466  50.756  38.186  1.00  0.00     0.018 A 
BRANCH  13  16
HETATM   16  O   UNL     1      33.104  52.887  39.700  1.00  0.00    -0.346 OA
BRANCH  16  17
HETATM   17  C   UNL     1      34.332  52.170  39.535  1.00  0.00     0.121 C 
HETATM   18  C   UNL     1      35.517  53.131  39.444  1.00  0.00     0.040 C 
HETATM   19  C   UNL     1      34.481  51.292  40.776  1.00  0.00     0.040 C 
ENDBRANCH  16  17
ENDBRANCH  13  16
ENDBRANCH   7   9
ENDBRANCH   5   7
BRANCH   4  20
HETATM   20  O   UNL     1      26.720  48.514  36.699  1.00  0.00    -0.355 OA
HETATM   21  H   UNL     1      27.332  49.148  36.274  1.00  0.00     0.218 HD
ENDBRANCH   4  20
BRANCH   6  22
HETATM   22  C   UNL     1      29.434  48.532  40.507  1.00  0.00    -0.028 A 
HETATM   23  C   UNL     1      30.025  49.240  41.574  1.00  0.00     0.049 A 
HETATM   24  C   UNL     1      31.351  49.000  41.939  1.00  0.00     0.102 A 
HETATM   25  C   UNL     1      32.087  48.048  41.227  1.00  0.00     0.099 A 
HETATM   26  C   UNL     1      31.538  47.354  40.159  1.00  0.00     0.040 A 
HETATM   27  C   UNL     1      30.216  47.596  39.797  1.00  0.00     0.012 A 
BRANCH  24  28
HETATM   28  O   UNL     1      32.032  49.599  42.965  1.00  0.00    -0.349 OA
BRANCH  28  29
HETATM   29  C   UNL     1      31.728  50.967  43.237  1.00  0.00     0.171 C 
HETATM   30  C   UNL     1      32.825  51.514  44.134  1.00  0.00     0.034 C 
ENDBRANCH  28  29
ENDBRANCH  24  28
BRANCH  25  31
HETATM   31  O   UNL     1      33.385  47.781  41.566  1.00  0.00    -0.358 OA
HETATM   32  H   UNL     1      33.336  47.107  42.271  1.00  0.00     0.218 HD
ENDBRANCH  25  31
ENDBRANCH   6  22
BRANCH   1  33
HETATM   33  C   UNL     1      26.858  46.748  41.283  1.00  0.00     0.155 C 
BRANCH  33  34
HETATM   34  C   UNL     1      27.246  45.259  41.257  1.00  0.00     0.254 C 
BRANCH  34  35
HETATM   35  N   UNL     1      26.206  44.346  41.901  1.00  0.00    -0.070 N 
HETATM   36  H   UNL     1      26.391  44.407  42.912  1.00  0.00     0.279 HD
BRANCH  35  37
HETATM   37  C   UNL     1      26.357  42.870  41.558  1.00  0.00     0.230 C 
HETATM   38  C   UNL     1      27.617  42.274  42.158  1.00  0.00     0.034 C 
ENDBRANCH  35  37
BRANCH  35  39
HETATM   39  C   UNL     1      24.765  44.789  41.721  1.00  0.00     0.230 C 
HETATM   40  C   UNL     1      24.033  44.862  43.047  1.00  0.00     0.034 C 
ENDBRANCH  35  39
ENDBRANCH  34  35
ENDBRANCH  33  34
ENDBRANCH   1  33
TORSDOF 14
ENDMDL
MODEL 10
REMARK VINA RESULT:      -6.7      5.588     10.555
REMARK  14 active torsions:
REMARK  status: ('A' for Active; 'I' for Inactive)
REMARK    1  A    between atoms: C_2  and  N_3 
REMARK    2  A    between atoms: N_3  and  C_5 
REMARK    3  A    between atoms: N_3  and  C_37 
REMARK    4  A    between atoms: C_5  and  C_6 
REMARK    5  A    between atoms: C_6  and  N_7 
REMARK    6  A    between atoms: C_10  and  O_11 
REMARK    7  A    between atoms: C_12  and  C_13 
REMARK    8  A    between atoms: C_13  and  C_14 
REMARK    9  A    between atoms: C_18  and  O_19 
REMARK   10  A    between atoms: O_19  and  C_20 
REMARK   11  A    between atoms: C_26  and  C_27 
REMARK   12  A    between atoms: C_29  and  O_30 
REMARK   13  A    between atoms: O_30  and  C_31 
REMARK   14  A    between atoms: C_33  and  O_34 
ROOT
HETATM    1  N   UNL     1      19.474  48.124  47.521  1.00  0.00    -0.332 N 
HETATM    2  C   UNL     1      19.081  46.920  48.059  1.00  0.00     0.278 C 
HETATM    3  O   UNL     1      19.787  46.075  48.580  1.00  0.00    -0.265 OA
HETATM    4  C   UNL     1      17.609  46.855  47.985  1.00  0.00     0.146 C 
HETATM    5  C   UNL     1      17.191  48.041  47.526  1.00  0.00     0.059 C 
HETATM    6  C   UNL     1      18.329  48.911  47.078  1.00  0.00     0.161 C 
ENDROOT
BRANCH   5   7
HETATM    7  C   UNL     1      15.818  48.593  47.480  1.00  0.00     0.193 C 
HETATM    8  O   UNL     1      14.865  47.840  47.299  1.00  0.00    -0.287 OA
BRANCH   7   9
HETATM    9  C   UNL     1      15.588  50.055  47.555  1.00  0.00     0.015 A 
HETATM   10  C   UNL     1      15.811  50.776  48.733  1.00  0.00     0.025 A 
HETATM   11  C   UNL     1      15.553  52.154  48.787  1.00  0.00    -0.028 A 
HETATM   12  C   UNL     1      15.727  52.896  50.085  1.00  0.00     0.051 C 
HETATM   13  C   UNL     1      15.100  52.821  47.635  1.00  0.00     0.075 A 
HETATM   14  C   UNL     1      14.958  52.112  46.439  1.00  0.00     0.038 A 
HETATM   15  C   UNL     1      15.199  50.733  46.398  1.00  0.00     0.018 A 
BRANCH  13  16
HETATM   16  O   UNL     1      14.842  54.154  47.799  1.00  0.00    -0.346 OA
BRANCH  16  17
HETATM   17  C   UNL     1      13.521  54.660  47.581  1.00  0.00     0.121 C 
HETATM   18  C   UNL     1      12.718  54.666  48.881  1.00  0.00     0.040 C 
HETATM   19  C   UNL     1      13.691  56.093  47.080  1.00  0.00     0.040 C 
ENDBRANCH  16  17
ENDBRANCH  13  16
ENDBRANCH   7   9
ENDBRANCH   5   7
BRANCH   4  20
HETATM   20  O   UNL     1      16.888  45.798  48.446  1.00  0.00    -0.355 OA
HETATM   21  H   UNL     1      17.107  45.692  49.394  1.00  0.00     0.218 HD
ENDBRANCH   4  20
BRANCH   6  22
HETATM   22  C   UNL     1      18.433  49.154  45.579  1.00  0.00    -0.028 A 
HETATM   23  C   UNL     1      18.449  48.059  44.690  1.00  0.00     0.049 A 
HETATM   24  C   UNL     1      18.483  48.265  43.310  1.00  0.00     0.102 A 
HETATM   25  C   UNL     1      18.506  49.575  42.821  1.00  0.00     0.099 A 
HETATM   26  C   UNL     1      18.514  50.669  43.673  1.00  0.00     0.040 A 
HETATM   27  C   UNL     1      18.480  50.460  45.049  1.00  0.00     0.012 A 
BRANCH  24  28
HETATM   28  O   UNL     1      18.477  47.294  42.344  1.00  0.00    -0.349 OA
BRANCH  28  29
HETATM   29  C   UNL     1      19.476  46.279  42.435  1.00  0.00     0.171 C 
HETATM   30  C   UNL     1      20.726  46.795  41.743  1.00  0.00     0.034 C 
ENDBRANCH  28  29
ENDBRANCH  24  28
BRANCH  25  31
HETATM   31  O   UNL     1      18.527  49.811  41.474  1.00  0.00    -0.358 OA
HETATM   32  H   UNL     1      18.652  48.935  41.059  1.00  0.00     0.218 HD
ENDBRANCH  25  31
ENDBRANCH   6  22
BRANCH   1  33
HETATM   33  C   UNL     1      20.786  48.706  47.743  1.00  0.00     0.155 C 
BRANCH  33  34
HETATM   34  C   UNL     1      21.023  49.137  49.201  1.00  0.00     0.254 C 
BRANCH  34  35
HETATM   35  N   UNL     1      21.329  50.625  49.357  1.00  0.00    -0.070 N 
HETATM   36  H   UNL     1      20.924  50.883  50.268  1.00  0.00     0.279 HD
BRANCH  35  37
HETATM   37  C   UNL     1      20.635  51.525  48.343  1.00  0.00     0.230 C 
HETATM   38  C   UNL     1      19.305  52.041  48.859  1.00  0.00     0.034 C 
ENDBRANCH  35  37
BRANCH  35  39
HETATM   39  C   UNL     1      22.805  50.969  49.452  1.00  0.00     0.230 C 
HETATM   40  C   UNL     1      23.485  50.894  48.099  1.00  0.00     0.034 C 
ENDBRANCH  35  39
ENDBRANCH  34  35
ENDBRANCH  33  34
ENDBRANCH   1  33
TORSDOF 14
ENDMDL
