MODEL 1
REMARK VINA RESULT:     -10.2      0.000      0.000
REMARK  4 active torsions:
REMARK  status: ('A' for Active; 'I' for Inactive)
REMARK    1  A    between atoms: N_2  and  C_4 
REMARK    2  A    between atoms: N_2  and  C_16 
REMARK    3  A    between atoms: C_4  and  C_5 
REMARK    4  A    between atoms: C_16  and  C_17 
ROOT
HETATM    1  C   UNL     1      25.024  43.729  51.044  1.00  0.00     0.270 C 
HETATM    2  N   UNL     1      24.995  44.969  51.895  1.00  0.00    -0.064 N 
HETATM    3  H   UNL     1      24.064  45.392  51.739  1.00  0.00     0.280 HD
ENDROOT
BRANCH   2   4
HETATM    4  C   UNL     1      25.019  44.647  53.385  1.00  0.00     0.312 C 
BRANCH   4   5
HETATM    5  C   UNL     1      26.423  44.285  53.854  1.00  0.00     0.133 A 
HETATM    6  N   UNL     1      27.099  45.160  54.530  1.00  0.00    -0.233 NA
HETATM    7  C   UNL     1      28.397  44.793  54.948  1.00  0.00     0.074 A 
HETATM    8  C   UNL     1      28.956  43.543  54.661  1.00  0.00     0.061 A 
HETATM    9  C   UNL     1      29.157  45.707  55.679  1.00  0.00     0.032 A 
HETATM   10  C   UNL     1      28.136  42.597  53.890  1.00  0.00     0.259 A 
HETATM   11  C   UNL     1      30.241  43.198  55.086  1.00  0.00     0.019 A 
HETATM   12  O   UNL     1      28.518  41.476  53.583  1.00  0.00    -0.267 OA
HETATM   13  N   UNL     1      26.889  43.044  53.529  1.00  0.00    -0.309 N 
HETATM   14  H   UNL     1      26.358  42.372  52.989  1.00  0.00     0.170 HD
HETATM   15  C   UNL     1      30.987  44.122  55.816  1.00  0.00     0.001 A 
HETATM   16  C   UNL     1      30.446  45.374  56.111  1.00  0.00     0.002 A 
ENDBRANCH   4   5
ENDBRANCH   2   4
BRANCH   2  17
HETATM   17  C   UNL     1      26.043  45.987  51.531  1.00  0.00     0.273 C 
BRANCH  17  18
HETATM   18  C   UNL     1      25.583  47.034  50.555  1.00  0.00    -0.028 A 
HETATM   19  C   UNL     1      26.482  47.992  50.060  1.00  0.00     0.035 A 
HETATM   20  C   UNL     1      26.067  48.939  49.118  1.00  0.00     0.070 A 
HETATM   21 CL   UNL     1      27.239  50.058  48.523  1.00  0.00    -0.081 Cl
HETATM   22  C   UNL     1      24.741  48.967  48.676  1.00  0.00     0.123 A 
HETATM   23  C   UNL     1      23.838  48.028  49.182  1.00  0.00     0.104 A 
HETATM   24  O   UNL     1      24.398  49.827  47.670  1.00  0.00    -0.346 OA
HETATM   25  O   UNL     1      22.546  47.920  48.746  1.00  0.00    -0.348 OA
HETATM   26  C   UNL     1      24.258  47.057  50.097  1.00  0.00     0.048 A 
HETATM   27  C   UNL     1      21.778  49.100  49.003  1.00  0.00     0.178 C 
HETATM   28  C   UNL     1      22.005  50.179  47.957  1.00  0.00     0.053 C 
HETATM   29  C   UNL     1      23.401  50.768  48.070  1.00  0.00     0.178 C 
ENDBRANCH  17  18
ENDBRANCH   2  17
TORSDOF 4
ENDMDL
MODEL 2
REMARK VINA RESULT:     -10.0      1.345      1.850
REMARK  4 active torsions:
REMARK  status: ('A' for Active; 'I' for Inactive)
REMARK    1  A    between atoms: N_2  and  C_4 
REMARK    2  A    between atoms: N_2  and  C_16 
REMARK    3  A    between atoms: C_4  and  C_5 
REMARK    4  A    between atoms: C_16  and  C_17 
ROOT
HETATM    1  C   UNL     1      26.042  43.872  50.541  1.00  0.00     0.270 C 
HETATM    2  N   UNL     1      25.432  44.944  51.401  1.00  0.00    -0.064 N 
HETATM    3  H   UNL     1      24.476  45.085  51.033  1.00  0.00     0.280 HD
ENDROOT
BRANCH   2   4
HETATM    4  C   UNL     1      25.221  44.481  52.838  1.00  0.00     0.312 C 
BRANCH   4   5
HETATM    5  C   UNL     1      26.471  44.694  53.682  1.00  0.00     0.133 A 
HETATM    6  N   UNL     1      27.394  43.785  53.670  1.00  0.00    -0.233 NA
HETATM    7  C   UNL     1      28.539  44.013  54.465  1.00  0.00     0.074 A 
HETATM    8  C   UNL     1      28.697  45.163  55.245  1.00  0.00     0.061 A 
HETATM    9  C   UNL     1      29.557  43.058  54.477  1.00  0.00     0.032 A 
HETATM   10  C   UNL     1      27.611  46.155  55.216  1.00  0.00     0.259 A 
HETATM   11  C   UNL     1      29.838  45.372  56.024  1.00  0.00     0.019 A 
HETATM   12  O   UNL     1      27.641  47.198  55.854  1.00  0.00    -0.267 OA
HETATM   13  N   UNL     1      26.542  45.844  54.413  1.00  0.00    -0.309 N 
HETATM   14  H   UNL     1      25.808  46.543  54.428  1.00  0.00     0.170 HD
HETATM   15  C   UNL     1      30.846  44.409  56.024  1.00  0.00     0.001 A 
HETATM   16  C   UNL     1      30.705  43.254  55.252  1.00  0.00     0.002 A 
ENDBRANCH   4   5
ENDBRANCH   2   4
BRANCH   2  17
HETATM   17  C   UNL     1      26.158  46.262  51.345  1.00  0.00     0.273 C 
BRANCH  17  18
HETATM   18  C   UNL     1      25.570  47.258  50.385  1.00  0.00    -0.028 A 
HETATM   19  C   UNL     1      26.375  48.252  49.806  1.00  0.00     0.035 A 
HETATM   20  C   UNL     1      25.839  49.153  48.878  1.00  0.00     0.070 A 
HETATM   21 CL   UNL     1      26.899  50.320  48.177  1.00  0.00    -0.081 Cl
HETATM   22  C   UNL     1      24.486  49.096  48.535  1.00  0.00     0.123 A 
HETATM   23  C   UNL     1      23.676  48.121  49.124  1.00  0.00     0.104 A 
HETATM   24  O   UNL     1      24.022  49.912  47.539  1.00  0.00    -0.346 OA
HETATM   25  O   UNL     1      22.364  47.931  48.787  1.00  0.00    -0.348 OA
HETATM   26  C   UNL     1      24.217  47.197  50.025  1.00  0.00     0.048 A 
HETATM   27  C   UNL     1      21.551  49.073  49.077  1.00  0.00     0.178 C 
HETATM   28  C   UNL     1      21.640  50.138  47.996  1.00  0.00     0.053 C 
HETATM   29  C   UNL     1      23.005  50.806  47.993  1.00  0.00     0.178 C 
ENDBRANCH  17  18
ENDBRANCH   2  17
TORSDOF 4
ENDMDL
MODEL 3
REMARK VINA RESULT:      -9.7      5.276      8.980
REMARK  4 active torsions:
REMARK  status: ('A' for Active; 'I' for Inactive)
REMARK    1  A    between atoms: N_2  and  C_4 
REMARK    2  A    between atoms: N_2  and  C_16 
REMARK    3  A    between atoms: C_4  and  C_5 
REMARK    4  A    between atoms: C_16  and  C_17 
ROOT
HETATM    1  C   UNL     1      20.784  44.630  46.677  1.00  0.00     0.270 C 
HETATM    2  N   UNL     1      20.752  45.747  47.685  1.00  0.00    -0.064 N 
HETATM    3  H   UNL     1      20.932  46.612  47.147  1.00  0.00     0.280 HD
ENDROOT
BRANCH   2   4
HETATM    4  C   UNL     1      19.362  45.950  48.276  1.00  0.00     0.312 C 
BRANCH   4   5
HETATM    5  C   UNL     1      19.157  47.388  48.738  1.00  0.00     0.133 A 
HETATM    6  N   UNL     1      19.150  48.333  47.851  1.00  0.00    -0.233 NA
HETATM    7  C   UNL     1      18.960  49.654  48.312  1.00  0.00     0.074 A 
HETATM    8  C   UNL     1      18.783  49.960  49.666  1.00  0.00     0.061 A 
HETATM    9  C   UNL     1      18.945  50.699  47.388  1.00  0.00     0.032 A 
HETATM   10  C   UNL     1      18.802  48.841  50.621  1.00  0.00     0.259 A 
HETATM   11  C   UNL     1      18.593  51.273  50.103  1.00  0.00     0.019 A 
HETATM   12  O   UNL     1      18.654  48.988  51.826  1.00  0.00    -0.267 OA
HETATM   13  N   UNL     1      18.993  47.596  50.076  1.00  0.00    -0.309 N 
HETATM   14  H   UNL     1      19.013  46.852  50.764  1.00  0.00     0.170 HD
HETATM   15  C   UNL     1      18.580  52.306  49.168  1.00  0.00     0.001 A 
HETATM   16  C   UNL     1      18.755  52.019  47.813  1.00  0.00     0.002 A 
ENDBRANCH   4   5
ENDBRANCH   2   4
BRANCH   2  17
HETATM   17  C   UNL     1      21.799  45.633  48.760  1.00  0.00     0.273 C 
BRANCH  17  18
HETATM   18  C   UNL     1      22.787  46.766  48.792  1.00  0.00    -0.028 A 
HETATM   19  C   UNL     1      22.470  48.005  48.213  1.00  0.00     0.035 A 
HETATM   20  C   UNL     1      23.370  49.074  48.280  1.00  0.00     0.070 A 
HETATM   21 CL   UNL     1      22.893  50.579  47.583  1.00  0.00    -0.081 Cl
HETATM   22  C   UNL     1      24.613  48.917  48.898  1.00  0.00     0.123 A 
HETATM   23  C   UNL     1      24.942  47.680  49.457  1.00  0.00     0.104 A 
HETATM   24  O   UNL     1      25.419  50.013  49.050  1.00  0.00    -0.346 OA
HETATM   25  O   UNL     1      26.095  47.455  50.159  1.00  0.00    -0.348 OA
HETATM   26  C   UNL     1      24.030  46.619  49.424  1.00  0.00     0.048 A 
HETATM   27  C   UNL     1      27.268  47.635  49.359  1.00  0.00     0.178 C 
HETATM   28  C   UNL     1      27.668  49.096  49.235  1.00  0.00     0.053 C 
HETATM   29  C   UNL     1      26.673  49.867  48.383  1.00  0.00     0.178 C 
ENDBRANCH  17  18
ENDBRANCH   2  17
TORSDOF 4
ENDMDL
MODEL 4
REMARK VINA RESULT:      -9.5      2.811      8.681
REMARK  4 active torsions:
REMARK  status: ('A' for Active; 'I' for Inactive)
REMARK    1  A    between atoms: N_2  and  C_4 
REMARK    2  A    between atoms: N_2  and  C_16 
REMARK    3  A    between atoms: C_4  and  C_5 
REMARK    4  A    between atoms: C_16  and  C_17 
ROOT
HETATM    1  C   UNL     1      26.706  43.816  50.702  1.00  0.00     0.270 C 
HETATM    2  N   UNL     1      25.987  44.758  51.629  1.00  0.00    -0.064 N 
HETATM    3  H   UNL     1      26.546  45.629  51.629  1.00  0.00     0.280 HD
ENDROOT
BRANCH   2   4
HETATM    4  C   UNL     1      24.629  45.181  51.082  1.00  0.00     0.312 C 
BRANCH   4   5
HETATM    5  C   UNL     1      24.718  46.497  50.321  1.00  0.00     0.133 A 
HETATM    6  N   UNL     1      23.642  46.983  49.786  1.00  0.00    -0.233 NA
HETATM    7  C   UNL     1      23.760  48.203  49.085  1.00  0.00     0.074 A 
HETATM    8  C   UNL     1      24.976  48.884  48.958  1.00  0.00     0.061 A 
HETATM    9  C   UNL     1      22.624  48.760  48.497  1.00  0.00     0.032 A 
HETATM   10  C   UNL     1      26.159  48.278  49.588  1.00  0.00     0.259 A 
HETATM   11  C   UNL     1      25.073  50.092  48.263  1.00  0.00     0.019 A 
HETATM   12  O   UNL     1      27.272  48.783  49.544  1.00  0.00    -0.267 OA
HETATM   13  N   UNL     1      25.944  47.093  50.245  1.00  0.00    -0.309 N 
HETATM   14  H   UNL     1      26.782  46.698  50.655  1.00  0.00     0.170 HD
HETATM   15  C   UNL     1      23.928  50.634  47.681  1.00  0.00     0.001 A 
HETATM   16  C   UNL     1      22.706  49.969  47.798  1.00  0.00     0.002 A 
ENDBRANCH   4   5
ENDBRANCH   2   4
BRANCH   2  17
HETATM   17  C   UNL     1      25.884  44.262  53.047  1.00  0.00     0.273 C 
BRANCH  17  18
HETATM   18  C   UNL     1      27.144  44.411  53.853  1.00  0.00    -0.028 A 
HETATM   19  C   UNL     1      28.240  43.564  53.626  1.00  0.00     0.035 A 
HETATM   20  C   UNL     1      29.430  43.728  54.344  1.00  0.00     0.070 A 
HETATM   21 CL   UNL     1      30.749  42.677  53.979  1.00  0.00    -0.081 Cl
HETATM   22  C   UNL     1      29.536  44.721  55.323  1.00  0.00     0.123 A 
HETATM   23  C   UNL     1      28.440  45.553  55.567  1.00  0.00     0.104 A 
HETATM   24  O   UNL     1      30.748  44.931  55.921  1.00  0.00    -0.346 OA
HETATM   25  O   UNL     1      28.477  46.605  56.440  1.00  0.00    -0.348 OA
HETATM   26  C   UNL     1      27.261  45.414  54.825  1.00  0.00     0.048 A 
HETATM   27  C   UNL     1      28.724  46.193  57.788  1.00  0.00     0.178 C 
HETATM   28  C   UNL     1      30.201  45.958  58.061  1.00  0.00     0.053 C 
HETATM   29  C   UNL     1      30.704  44.722  57.333  1.00  0.00     0.178 C 
ENDBRANCH  17  18
ENDBRANCH   2  17
TORSDOF 4
ENDMDL
MODEL 5
REMARK VINA RESULT:      -9.3      2.239      2.953
REMARK  4 active torsions:
REMARK  status: ('A' for Active; 'I' for Inactive)
REMARK    1  A    between atoms: N_2  and  C_4 
REMARK    2  A    between atoms: N_2  and  C_16 
REMARK    3  A    between atoms: C_4  and  C_5 
REMARK    4  A    between atoms: C_16  and  C_17 
ROOT
HETATM    1  C   UNL     1      25.294  42.931  51.430  1.00  0.00     0.270 C 
HETATM    2  N   UNL     1      26.402  43.925  51.218  1.00  0.00    -0.064 N 
HETATM    3  H   UNL     1      26.218  44.694  51.885  1.00  0.00     0.280 HD
ENDROOT
BRANCH   2   4
HETATM    4  C   UNL     1      27.760  43.375  51.640  1.00  0.00     0.312 C 
BRANCH   4   5
HETATM    5  C   UNL     1      28.224  43.985  52.957  1.00  0.00     0.133 A 
HETATM    6  N   UNL     1      29.241  43.457  53.564  1.00  0.00    -0.233 NA
HETATM    7  C   UNL     1      29.644  44.045  54.783  1.00  0.00     0.074 A 
HETATM    8  C   UNL     1      28.993  45.152  55.337  1.00  0.00     0.061 A 
HETATM    9  C   UNL     1      30.736  43.507  55.466  1.00  0.00     0.032 A 
HETATM   10  C   UNL     1      27.846  45.702  54.598  1.00  0.00     0.259 A 
HETATM   11  C   UNL     1      29.409  45.722  56.543  1.00  0.00     0.019 A 
HETATM   12  O   UNL     1      27.203  46.669  54.983  1.00  0.00    -0.267 OA
HETATM   13  N   UNL     1      27.531  45.063  53.425  1.00  0.00    -0.309 N 
HETATM   14  H   UNL     1      26.729  45.460  52.950  1.00  0.00     0.170 HD
HETATM   15  C   UNL     1      30.501  45.173  57.213  1.00  0.00     0.001 A 
HETATM   16  C   UNL     1      31.163  44.067  56.675  1.00  0.00     0.002 A 
ENDBRANCH   4   5
ENDBRANCH   2   4
BRANCH   2  17
HETATM   17  C   UNL     1      26.448  44.506  49.829  1.00  0.00     0.273 C 
BRANCH  17  18
HETATM   18  C   UNL     1      25.382  45.527  49.546  1.00  0.00    -0.028 A 
HETATM   19  C   UNL     1      24.090  45.125  49.173  1.00  0.00     0.035 A 
HETATM   20  C   UNL     1      23.083  46.072  48.951  1.00  0.00     0.070 A 
HETATM   21 CL   UNL     1      21.509  45.500  48.538  1.00  0.00    -0.081 Cl
HETATM   22  C   UNL     1      23.358  47.437  49.067  1.00  0.00     0.123 A 
HETATM   23  C   UNL     1      24.648  47.843  49.418  1.00  0.00     0.104 A 
HETATM   24  O   UNL     1      22.326  48.330  48.960  1.00  0.00    -0.346 OA
HETATM   25  O   UNL     1      24.989  49.149  49.641  1.00  0.00    -0.348 OA
HETATM   26  C   UNL     1      25.647  46.898  49.675  1.00  0.00     0.048 A 
HETATM   27  C   UNL     1      24.827  49.967  48.477  1.00  0.00     0.178 C 
HETATM   28  C   UNL     1      23.388  50.412  48.276  1.00  0.00     0.053 C 
HETATM   29  C   UNL     1      22.502  49.243  47.877  1.00  0.00     0.178 C 
ENDBRANCH  17  18
ENDBRANCH   2  17
TORSDOF 4
ENDMDL
MODEL 6
REMARK VINA RESULT:      -9.2      2.568      8.742
REMARK  4 active torsions:
REMARK  status: ('A' for Active; 'I' for Inactive)
REMARK    1  A    between atoms: N_2  and  C_4 
REMARK    2  A    between atoms: N_2  and  C_16 
REMARK    3  A    between atoms: C_4  and  C_5 
REMARK    4  A    between atoms: C_16  and  C_17 
ROOT
HETATM    1  C   UNL     1      26.490  45.224  49.770  1.00  0.00     0.270 C 
HETATM    2  N   UNL     1      25.115  45.500  50.313  1.00  0.00    -0.064 N 
HETATM    3  H   UNL     1      25.089  46.517  50.501  1.00  0.00     0.280 HD
ENDROOT
BRANCH   2   4
HETATM    4  C   UNL     1      24.028  45.280  49.267  1.00  0.00     0.312 C 
BRANCH   4   5
HETATM    5  C   UNL     1      23.193  46.537  49.058  1.00  0.00     0.133 A 
HETATM    6  N   UNL     1      23.790  47.688  49.049  1.00  0.00    -0.233 NA
HETATM    7  C   UNL     1      22.987  48.833  48.855  1.00  0.00     0.074 A 
HETATM    8  C   UNL     1      21.601  48.760  48.676  1.00  0.00     0.061 A 
HETATM    9  C   UNL     1      23.592  50.090  48.837  1.00  0.00     0.032 A 
HETATM   10  C   UNL     1      20.986  47.424  48.697  1.00  0.00     0.259 A 
HETATM   11  C   UNL     1      20.824  49.904  48.482  1.00  0.00     0.019 A 
HETATM   12  O   UNL     1      19.786  47.238  48.549  1.00  0.00    -0.267 OA
HETATM   13  N   UNL     1      21.848  46.374  48.892  1.00  0.00    -0.309 N 
HETATM   14  H   UNL     1      21.389  45.471  48.914  1.00  0.00     0.170 HD
HETATM   15  C   UNL     1      21.444  51.152  48.466  1.00  0.00     0.001 A 
HETATM   16  C   UNL     1      22.826  51.245  48.644  1.00  0.00     0.002 A 
ENDBRANCH   4   5
ENDBRANCH   2   4
BRANCH   2  17
HETATM   17  C   UNL     1      24.805  44.774  51.595  1.00  0.00     0.273 C 
BRANCH  17  18
HETATM   18  C   UNL     1      25.753  45.070  52.724  1.00  0.00    -0.028 A 
HETATM   19  C   UNL     1      25.728  46.316  53.369  1.00  0.00     0.035 A 
HETATM   20  C   UNL     1      26.578  46.578  54.448  1.00  0.00     0.070 A 
HETATM   21 CL   UNL     1      26.460  48.118  55.218  1.00  0.00    -0.081 Cl
HETATM   22  C   UNL     1      27.490  45.612  54.883  1.00  0.00     0.123 A 
HETATM   23  C   UNL     1      27.533  44.377  54.231  1.00  0.00     0.104 A 
HETATM   24  O   UNL     1      28.223  45.856  56.012  1.00  0.00    -0.346 OA
HETATM   25  O   UNL     1      28.327  43.340  54.639  1.00  0.00    -0.348 OA
HETATM   26  C   UNL     1      26.659  44.099  53.174  1.00  0.00     0.048 A 
HETATM   27  C   UNL     1      29.722  43.656  54.570  1.00  0.00     0.178 C 
HETATM   28  C   UNL     1      30.198  44.450  55.775  1.00  0.00     0.053 C 
HETATM   29  C   UNL     1      29.629  45.860  55.763  1.00  0.00     0.178 C 
ENDBRANCH  17  18
ENDBRANCH   2  17
TORSDOF 4
ENDMDL
MODEL 7
REMARK VINA RESULT:      -9.2      4.212      7.105
REMARK  4 active torsions:
REMARK  status: ('A' for Active; 'I' for Inactive)
REMARK    1  A    between atoms: N_2  and  C_4 
REMARK    2  A    between atoms: N_2  and  C_16 
REMARK    3  A    between atoms: C_4  and  C_5 
REMARK    4  A    between atoms: C_16  and  C_17 
ROOT
HETATM    1  C   UNL     1      26.699  45.949  49.744  1.00  0.00     0.270 C 
HETATM    2  N   UNL     1      26.539  44.691  50.552  1.00  0.00    -0.064 N 
HETATM    3  H   UNL     1      27.499  44.382  50.780  1.00  0.00     0.280 HD
ENDROOT
BRANCH   2   4
HETATM    4  C   UNL     1      25.893  44.954  51.908  1.00  0.00     0.312 C 
BRANCH   4   5
HETATM    5  C   UNL     1      26.939  45.083  53.008  1.00  0.00     0.133 A 
HETATM    6  N   UNL     1      27.797  44.125  53.169  1.00  0.00    -0.233 NA
HETATM    7  C   UNL     1      28.752  44.275  54.199  1.00  0.00     0.074 A 
HETATM    8  C   UNL     1      28.795  45.402  55.027  1.00  0.00     0.061 A 
HETATM    9  C   UNL     1      29.693  43.266  54.403  1.00  0.00     0.032 A 
HETATM   10  C   UNL     1      27.792  46.453  54.792  1.00  0.00     0.259 A 
HETATM   11  C   UNL     1      29.749  45.534  56.039  1.00  0.00     0.019 A 
HETATM   12  O   UNL     1      27.735  47.481  55.451  1.00  0.00    -0.267 OA
HETATM   13  N   UNL     1      26.908  46.215  53.770  1.00  0.00    -0.309 N 
HETATM   14  H   UNL     1      26.225  46.953  53.645  1.00  0.00     0.170 HD
HETATM   15  C   UNL     1      30.682  44.517  56.229  1.00  0.00     0.001 A 
HETATM   16  C   UNL     1      30.654  43.385  55.412  1.00  0.00     0.002 A 
ENDBRANCH   4   5
ENDBRANCH   2   4
BRANCH   2  17
HETATM   17  C   UNL     1      25.846  43.574  49.817  1.00  0.00     0.273 C 
BRANCH  17  18
HETATM   18  C   UNL     1      26.590  42.268  49.824  1.00  0.00    -0.028 A 
HETATM   19  C   UNL     1      27.418  41.924  50.903  1.00  0.00     0.035 A 
HETATM   20  C   UNL     1      28.077  40.689  50.932  1.00  0.00     0.070 A 
HETATM   21 CL   UNL     1      29.044  40.320  52.312  1.00  0.00    -0.081 Cl
HETATM   22  C   UNL     1      27.944  39.790  49.871  1.00  0.00     0.123 A 
HETATM   23  C   UNL     1      27.137  40.137  48.784  1.00  0.00     0.104 A 
HETATM   24  O   UNL     1      28.504  38.547  49.984  1.00  0.00    -0.346 OA
HETATM   25  O   UNL     1      26.876  39.289  47.743  1.00  0.00    -0.348 OA
HETATM   26  C   UNL     1      26.449  41.355  48.769  1.00  0.00     0.048 A 
HETATM   27  C   UNL     1      28.056  38.934  47.014  1.00  0.00     0.178 C 
HETATM   28  C   UNL     1      28.837  37.815  47.685  1.00  0.00     0.053 C 
HETATM   29  C   UNL     1      29.482  38.293  48.975  1.00  0.00     0.178 C 
ENDBRANCH  17  18
ENDBRANCH   2  17
TORSDOF 4
ENDMDL
MODEL 8
REMARK VINA RESULT:      -9.1      2.535      9.022
REMARK  4 active torsions:
REMARK  status: ('A' for Active; 'I' for Inactive)
REMARK    1  A    between atoms: N_2  and  C_4 
REMARK    2  A    between atoms: N_2  and  C_16 
REMARK    3  A    between atoms: C_4  and  C_5 
REMARK    4  A    between atoms: C_16  and  C_17 
ROOT
HETATM    1  C   UNL     1      26.236  45.615  49.625  1.00  0.00     0.270 C 
HETATM    2  N   UNL     1      24.919  45.912  50.288  1.00  0.00    -0.064 N 
HETATM    3  H   UNL     1      24.969  46.905  50.573  1.00  0.00     0.280 HD
ENDROOT
BRANCH   2   4
HETATM    4  C   UNL     1      23.755  45.858  49.306  1.00  0.00     0.312 C 
BRANCH   4   5
HETATM    5  C   UNL     1      23.154  47.239  49.076  1.00  0.00     0.133 A 
HETATM    6  N   UNL     1      21.893  47.331  48.789  1.00  0.00    -0.233 NA
HETATM    7  C   UNL     1      21.369  48.625  48.580  1.00  0.00     0.074 A 
HETATM    8  C   UNL     1      22.154  49.780  48.672  1.00  0.00     0.061 A 
HETATM    9  C   UNL     1      20.015  48.767  48.271  1.00  0.00     0.032 A 
HETATM   10  C   UNL     1      23.577  49.606  49.000  1.00  0.00     0.259 A 
HETATM   11  C   UNL     1      21.616  51.052  48.464  1.00  0.00     0.019 A 
HETATM   12  O   UNL     1      24.357  50.541  49.109  1.00  0.00    -0.267 OA
HETATM   13  N   UNL     1      23.992  48.311  49.185  1.00  0.00    -0.309 N 
HETATM   14  H   UNL     1      24.979  48.228  49.396  1.00  0.00     0.170 HD
HETATM   15  C   UNL     1      20.262  51.176  48.157  1.00  0.00     0.001 A 
HETATM   16  C   UNL     1      19.464  50.035  48.060  1.00  0.00     0.002 A 
ENDBRANCH   4   5
ENDBRANCH   2   4
BRANCH   2  17
HETATM   17  C   UNL     1      24.649  45.081  51.514  1.00  0.00     0.273 C 
BRANCH  17  18
HETATM   18  C   UNL     1      25.609  45.312  52.648  1.00  0.00    -0.028 A 
HETATM   19  C   UNL     1      25.634  46.542  53.322  1.00  0.00     0.035 A 
HETATM   20  C   UNL     1      26.496  46.745  54.406  1.00  0.00     0.070 A 
HETATM   21 CL   UNL     1      26.440  48.269  55.212  1.00  0.00    -0.081 Cl
HETATM   22  C   UNL     1      27.368  45.733  54.816  1.00  0.00     0.123 A 
HETATM   23  C   UNL     1      27.361  44.513  54.135  1.00  0.00     0.104 A 
HETATM   24  O   UNL     1      28.111  45.921  55.949  1.00  0.00    -0.346 OA
HETATM   25  O   UNL     1      28.114  43.436  54.516  1.00  0.00    -0.348 OA
HETATM   26  C   UNL     1      26.476  44.295  53.073  1.00  0.00     0.048 A 
HETATM   27  C   UNL     1      29.520  43.697  54.452  1.00  0.00     0.178 C 
HETATM   28  C   UNL     1      30.028  44.443  55.675  1.00  0.00     0.053 C 
HETATM   29  C   UNL     1      29.516  45.874  55.698  1.00  0.00     0.178 C 
ENDBRANCH  17  18
ENDBRANCH   2  17
TORSDOF 4
ENDMDL
MODEL 9
REMARK VINA RESULT:      -9.0      3.065      4.462
REMARK  4 active torsions:
REMARK  status: ('A' for Active; 'I' for Inactive)
REMARK    1  A    between atoms: N_2  and  C_4 
REMARK    2  A    between atoms: N_2  and  C_16 
REMARK    3  A    between atoms: C_4  and  C_5 
REMARK    4  A    between atoms: C_16  and  C_17 
ROOT
HETATM    1  C   UNL     1      28.108  40.857  53.279  1.00  0.00     0.270 C 
HETATM    2  N   UNL     1      28.124  42.122  52.465  1.00  0.00    -0.064 N 
HETATM    3  H   UNL     1      27.440  42.752  52.918  1.00  0.00     0.280 HD
ENDROOT
BRANCH   2   4
HETATM    4  C   UNL     1      29.452  42.862  52.577  1.00  0.00     0.312 C 
BRANCH   4   5
HETATM    5  C   UNL     1      29.538  43.662  53.870  1.00  0.00     0.133 A 
HETATM    6  N   UNL     1      30.443  43.344  54.742  1.00  0.00    -0.233 NA
HETATM    7  C   UNL     1      30.495  44.105  55.930  1.00  0.00     0.074 A 
HETATM    8  C   UNL     1      29.617  45.164  56.185  1.00  0.00     0.061 A 
HETATM    9  C   UNL     1      31.457  43.794  56.892  1.00  0.00     0.032 A 
HETATM   10  C   UNL     1      28.613  45.472  55.156  1.00  0.00     0.259 A 
HETATM   11  C   UNL     1      29.685  45.907  57.366  1.00  0.00     0.019 A 
HETATM   12  O   UNL     1      27.797  46.377  55.268  1.00  0.00    -0.267 OA
HETATM   13  N   UNL     1      28.642  44.678  54.037  1.00  0.00    -0.309 N 
HETATM   14  H   UNL     1      27.929  44.911  53.356  1.00  0.00     0.170 HD
HETATM   15  C   UNL     1      30.652  45.584  58.317  1.00  0.00     0.001 A 
HETATM   16  C   UNL     1      31.537  44.530  58.080  1.00  0.00     0.002 A 
ENDBRANCH   4   5
ENDBRANCH   2   4
BRANCH   2  17
HETATM   17  C   UNL     1      27.715  41.932  51.029  1.00  0.00     0.273 C 
BRANCH  17  18
HETATM   18  C   UNL     1      26.491  42.705  50.623  1.00  0.00    -0.028 A 
HETATM   19  C   UNL     1      25.429  42.065  49.964  1.00  0.00     0.035 A 
HETATM   20  C   UNL     1      24.270  42.772  49.625  1.00  0.00     0.070 A 
HETATM   21 CL   UNL     1      22.990  41.908  48.856  1.00  0.00    -0.081 Cl
HETATM   22  C   UNL     1      24.163  44.136  49.909  1.00  0.00     0.123 A 
HETATM   23  C   UNL     1      25.226  44.782  50.545  1.00  0.00     0.104 A 
HETATM   24  O   UNL     1      22.974  44.769  49.671  1.00  0.00    -0.346 OA
HETATM   25  O   UNL     1      25.180  46.091  50.942  1.00  0.00    -0.348 OA
HETATM   26  C   UNL     1      26.372  44.070  50.918  1.00  0.00     0.048 A 
HETATM   27  C   UNL     1      25.022  46.994  49.843  1.00  0.00     0.178 C 
HETATM   28  C   UNL     1      23.575  47.113  49.393  1.00  0.00     0.053 C 
HETATM   29  C   UNL     1      23.099  45.833  48.727  1.00  0.00     0.178 C 
ENDBRANCH  17  18
ENDBRANCH   2  17
TORSDOF 4
ENDMDL
MODEL 10
REMARK VINA RESULT:      -9.0      4.439      7.482
REMARK  4 active torsions:
REMARK  status: ('A' for Active; 'I' for Inactive)
REMARK    1  A    between atoms: N_2  and  C_4 
REMARK    2  A    between atoms: N_2  and  C_16 
REMARK    3  A    between atoms: C_4  and  C_5 
REMARK    4  A    between atoms: C_16  and  C_17 
ROOT
HETATM    1  C   UNL     1      24.206  42.883  50.753  1.00  0.00     0.270 C 
HETATM    2  N   UNL     1      25.567  43.515  50.857  1.00  0.00    -0.064 N 
HETATM    3  H   UNL     1      26.126  42.876  51.448  1.00  0.00     0.280 HD
ENDROOT
BRANCH   2   4
HETATM    4  C   UNL     1      26.299  43.531  49.520  1.00  0.00     0.312 C 
BRANCH   4   5
HETATM    5  C   UNL     1      27.039  42.222  49.273  1.00  0.00     0.133 A 
HETATM    6  N   UNL     1      27.567  41.605  50.283  1.00  0.00    -0.233 NA
HETATM    7  C   UNL     1      28.248  40.395  50.020  1.00  0.00     0.074 A 
HETATM    8  C   UNL     1      28.363  39.861  48.732  1.00  0.00     0.061 A 
HETATM    9  C   UNL     1      28.828  39.700  51.081  1.00  0.00     0.032 A 
HETATM   10  C   UNL     1      27.743  40.613  47.630  1.00  0.00     0.259 A 
HETATM   11  C   UNL     1      29.039  38.662  48.492  1.00  0.00     0.019 A 
HETATM   12  O   UNL     1      27.777  40.242  46.465  1.00  0.00    -0.267 OA
HETATM   13  N   UNL     1      27.105  41.774  47.986  1.00  0.00    -0.309 N 
HETATM   14  H   UNL     1      26.700  42.271  47.201  1.00  0.00     0.170 HD
HETATM   15  C   UNL     1      29.612  37.980  49.563  1.00  0.00     0.001 A 
HETATM   16  C   UNL     1      29.507  38.497  50.855  1.00  0.00     0.002 A 
ENDBRANCH   4   5
ENDBRANCH   2   4
BRANCH   2  17
HETATM   17  C   UNL     1      25.564  44.875  51.502  1.00  0.00     0.273 C 
BRANCH  17  18
HETATM   18  C   UNL     1      26.488  45.008  52.681  1.00  0.00    -0.028 A 
HETATM   19  C   UNL     1      26.541  46.203  53.415  1.00  0.00     0.035 A 
HETATM   20  C   UNL     1      27.367  46.314  54.539  1.00  0.00     0.070 A 
HETATM   21 CL   UNL     1      27.347  47.800  55.416  1.00  0.00    -0.081 Cl
HETATM   22  C   UNL     1      28.178  45.245  54.931  1.00  0.00     0.123 A 
HETATM   23  C   UNL     1      28.144  44.060  54.191  1.00  0.00     0.104 A 
HETATM   24  O   UNL     1      28.884  45.344  56.099  1.00  0.00    -0.346 OA
HETATM   25  O   UNL     1      28.833  42.933  54.546  1.00  0.00    -0.348 OA
HETATM   26  C   UNL     1      27.292  43.934  53.088  1.00  0.00     0.048 A 
HETATM   27  C   UNL     1      30.251  43.132  54.547  1.00  0.00     0.178 C 
HETATM   28  C   UNL     1      30.743  43.795  55.823  1.00  0.00     0.053 C 
HETATM   29  C   UNL     1      30.294  45.245  55.897  1.00  0.00     0.178 C 
ENDBRANCH  17  18
ENDBRANCH   2  17
TORSDOF 4
ENDMDL
