MODEL 1
REMARK VINA RESULT:      -9.8      0.000      0.000
REMARK  6 active torsions:
REMARK  status: ('A' for Active; 'I' for Inactive)
REMARK    1  A    between atoms: C_4  and  C_5 
REMARK    2  A    between atoms: C_5  and  N_6 
REMARK    3  A    between atoms: C_10  and  C_11 
REMARK    4  A    between atoms: C_11  and  C_12 
REMARK    5  A    between atoms: N_21  and  C_22 
REMARK    6  A    between atoms: C_22  and  C_23 
ROOT
HETATM    1  C   UNL     1      27.337  43.985  53.980  1.00  0.00     0.164 C 
HETATM    2  N   UNL     1      27.081  42.606  54.384  1.00  0.00    -0.319 N 
HETATM    3  C   UNL     1      27.589  41.693  53.492  1.00  0.00     0.326 C 
HETATM    4  O   UNL     1      27.685  40.498  53.708  1.00  0.00    -0.247 OA
HETATM    5  N   UNL     1      27.941  42.352  52.360  1.00  0.00    -0.265 N 
HETATM    6  C   UNL     1      27.831  43.699  52.549  1.00  0.00     0.263 C 
HETATM    7  O   UNL     1      28.045  44.558  51.701  1.00  0.00    -0.270 OA
HETATM    8  H   UNL     1      27.007  42.341  55.362  1.00  0.00     0.166 HD
ENDROOT
BRANCH   1   9
HETATM    9  C   UNL     1      26.004  44.816  54.061  1.00  0.00     0.033 C 
HETATM   10  C   UNL     1      24.900  44.407  53.073  1.00  0.00     0.036 C 
HETATM   11  C   UNL     1      25.090  44.912  51.652  1.00  0.00     0.235 C 
HETATM   12  N   UNL     1      25.405  46.386  51.593  1.00  0.00    -0.067 N 
HETATM   13  H   UNL     1      24.511  46.869  51.736  1.00  0.00     0.280 HD
HETATM   14  C   UNL     1      26.374  46.922  52.619  1.00  0.00     0.235 C 
HETATM   15  C   UNL     1      26.133  46.347  54.001  1.00  0.00     0.036 C 
BRANCH  12  16
HETATM   16  C   UNL     1      25.892  46.802  50.200  1.00  0.00     0.274 C 
BRANCH  16  17
HETATM   17  C   UNL     1      25.082  47.897  49.551  1.00  0.00    -0.026 A 
HETATM   18  C   UNL     1      23.675  47.773  49.545  1.00  0.00     0.016 A 
HETATM   19  C   UNL     1      22.855  48.773  49.017  1.00  0.00    -0.061 A 
HETATM   20  C   UNL     1      21.360  48.641  49.026  1.00  0.00     0.048 C 
HETATM   21  C   UNL     1      23.451  49.904  48.460  1.00  0.00     0.007 A 
HETATM   22  C   UNL     1      24.842  50.032  48.435  1.00  0.00     0.008 A 
HETATM   23  C   UNL     1      25.673  49.044  48.985  1.00  0.00    -0.054 A 
HETATM   24  C   UNL     1      27.163  49.215  48.872  1.00  0.00     0.049 C 
ENDBRANCH  16  17
ENDBRANCH  12  16
ENDBRANCH   1   9
BRANCH   1  25
HETATM   25  C   UNL     1      28.421  44.550  54.901  1.00  0.00     0.072 A 
HETATM   26  N   UNL     1      28.001  45.540  55.738  1.00  0.00    -0.262 NA
HETATM   27  C   UNL     1      28.893  46.054  56.615  1.00  0.00     0.117 A 
HETATM   28  C   UNL     1      30.208  45.641  56.699  1.00  0.00     0.019 A 
HETATM   29  C   UNL     1      30.633  44.637  55.838  1.00  0.00     0.003 A 
HETATM   30  C   UNL     1      29.734  44.080  54.930  1.00  0.00     0.030 A 
ENDBRANCH   1  25
BRANCH   5  31
HETATM   31  C   UNL     1      28.480  41.724  51.166  1.00  0.00     0.168 C 
BRANCH  31  32
HETATM   32  C   UNL     1      27.389  41.361  50.153  1.00  0.00     0.140 C 
HETATM   33  O   UNL     1      27.314  42.368  49.120  1.00  0.00    -0.384 OA
HETATM   34  C   UNL     1      25.966  42.850  49.045  1.00  0.00     0.168 C 
HETATM   35  C   UNL     1      25.106  41.794  49.697  1.00  0.00     0.029 C 
HETATM   36  C   UNL     1      26.009  41.298  50.798  1.00  0.00     0.036 C 
ENDBRANCH  31  32
ENDBRANCH   5  31
TORSDOF 6
ENDMDL
MODEL 2
REMARK VINA RESULT:      -9.7      1.793      6.594
REMARK  6 active torsions:
REMARK  status: ('A' for Active; 'I' for Inactive)
REMARK    1  A    between atoms: C_4  and  C_5 
REMARK    2  A    between atoms: C_5  and  N_6 
REMARK    3  A    between atoms: C_10  and  C_11 
REMARK    4  A    between atoms: C_11  and  C_12 
REMARK    5  A    between atoms: N_21  and  C_22 
REMARK    6  A    between atoms: C_22  and  C_23 
ROOT
HETATM    1  C   UNL     1      25.581  45.554  51.923  1.00  0.00     0.164 C 
HETATM    2  N   UNL     1      26.948  45.042  51.954  1.00  0.00    -0.319 N 
HETATM    3  C   UNL     1      27.069  43.824  51.326  1.00  0.00     0.326 C 
HETATM    4  O   UNL     1      28.129  43.299  51.041  1.00  0.00    -0.247 OA
HETATM    5  N   UNL     1      25.824  43.334  51.103  1.00  0.00    -0.265 N 
HETATM    6  C   UNL     1      24.887  44.274  51.418  1.00  0.00     0.263 C 
HETATM    7  O   UNL     1      23.672  44.118  51.356  1.00  0.00    -0.270 OA
HETATM    8  H   UNL     1      27.751  45.663  51.967  1.00  0.00     0.166 HD
ENDROOT
BRANCH   1   9
HETATM    9  C   UNL     1      25.154  46.006  53.367  1.00  0.00     0.033 C 
HETATM   10  C   UNL     1      25.498  47.456  53.744  1.00  0.00     0.036 C 
HETATM   11  C   UNL     1      26.948  47.691  54.135  1.00  0.00     0.235 C 
HETATM   12  N   UNL     1      27.449  46.693  55.149  1.00  0.00    -0.067 N 
HETATM   13  H   UNL     1      27.067  46.996  56.052  1.00  0.00     0.280 HD
HETATM   14  C   UNL     1      27.044  45.252  54.951  1.00  0.00     0.235 C 
HETATM   15  C   UNL     1      25.593  45.108  54.536  1.00  0.00     0.036 C 
BRANCH  12  16
HETATM   16  C   UNL     1      28.974  46.755  55.293  1.00  0.00     0.274 C 
BRANCH  16  17
HETATM   17  C   UNL     1      29.640  45.420  55.515  1.00  0.00    -0.026 A 
HETATM   18  C   UNL     1      29.640  44.489  54.453  1.00  0.00     0.016 A 
HETATM   19  C   UNL     1      30.288  43.256  54.562  1.00  0.00    -0.061 A 
HETATM   20  C   UNL     1      30.295  42.276  53.425  1.00  0.00     0.048 C 
HETATM   21  C   UNL     1      30.924  42.936  55.761  1.00  0.00     0.007 A 
HETATM   22  C   UNL     1      30.914  43.835  56.830  1.00  0.00     0.008 A 
HETATM   23  C   UNL     1      30.286  45.085  56.722  1.00  0.00    -0.054 A 
HETATM   24  C   UNL     1      30.259  45.981  57.930  1.00  0.00     0.049 C 
ENDBRANCH  16  17
ENDBRANCH  12  16
ENDBRANCH   1   9
BRANCH   1  25
HETATM   25  C   UNL     1      25.536  46.711  50.923  1.00  0.00     0.072 A 
HETATM   26  N   UNL     1      26.754  47.203  50.563  1.00  0.00    -0.262 NA
HETATM   27  C   UNL     1      26.795  48.197  49.646  1.00  0.00     0.117 A 
HETATM   28  C   UNL     1      25.670  48.747  49.065  1.00  0.00     0.019 A 
HETATM   29  C   UNL     1      24.430  48.247  49.441  1.00  0.00     0.003 A 
HETATM   30  C   UNL     1      24.356  47.216  50.377  1.00  0.00     0.030 A 
ENDBRANCH   1  25
BRANCH   5  31
HETATM   31  C   UNL     1      25.536  42.047  50.496  1.00  0.00     0.168 C 
BRANCH  31  32
HETATM   32  C   UNL     1      25.289  42.153  48.986  1.00  0.00     0.140 C 
HETATM   33  O   UNL     1      23.947  41.722  48.670  1.00  0.00    -0.384 OA
HETATM   34  C   UNL     1      24.017  40.691  47.677  1.00  0.00     0.168 C 
HETATM   35  C   UNL     1      25.373  40.826  47.027  1.00  0.00     0.029 C 
HETATM   36  C   UNL     1      26.231  41.258  48.190  1.00  0.00     0.036 C 
ENDBRANCH  31  32
ENDBRANCH   5  31
TORSDOF 6
ENDMDL
MODEL 3
REMARK VINA RESULT:      -9.6      1.583      2.232
REMARK  6 active torsions:
REMARK  status: ('A' for Active; 'I' for Inactive)
REMARK    1  A    between atoms: C_4  and  C_5 
REMARK    2  A    between atoms: C_5  and  N_6 
REMARK    3  A    between atoms: C_10  and  C_11 
REMARK    4  A    between atoms: C_11  and  C_12 
REMARK    5  A    between atoms: N_21  and  C_22 
REMARK    6  A    between atoms: C_22  and  C_23 
ROOT
HETATM    1  C   UNL     1      26.724  43.416  52.038  1.00  0.00     0.164 C 
HETATM    2  N   UNL     1      26.165  42.069  52.102  1.00  0.00    -0.319 N 
HETATM    3  C   UNL     1      26.281  41.393  50.910  1.00  0.00     0.326 C 
HETATM    4  O   UNL     1      26.082  40.200  50.772  1.00  0.00    -0.247 OA
HETATM    5  N   UNL     1      26.637  42.282  49.949  1.00  0.00    -0.265 N 
HETATM    6  C   UNL     1      26.919  43.493  50.511  1.00  0.00     0.263 C 
HETATM    7  O   UNL     1      27.237  44.506  49.899  1.00  0.00    -0.270 OA
HETATM    8  H   UNL     1      26.158  41.533  52.965  1.00  0.00     0.166 HD
ENDROOT
BRANCH   1   9
HETATM    9  C   UNL     1      25.687  44.446  52.619  1.00  0.00     0.033 C 
HETATM   10  C   UNL     1      24.353  44.553  51.861  1.00  0.00     0.036 C 
HETATM   11  C   UNL     1      24.403  45.374  50.583  1.00  0.00     0.235 C 
HETATM   12  N   UNL     1      25.071  46.713  50.776  1.00  0.00    -0.067 N 
HETATM   13  H   UNL     1      24.372  47.310  51.234  1.00  0.00     0.280 HD
HETATM   14  C   UNL     1      26.315  46.743  51.630  1.00  0.00     0.235 C 
HETATM   15  C   UNL     1      26.191  45.877  52.868  1.00  0.00     0.036 C 
BRANCH  12  16
HETATM   16  C   UNL     1      25.385  47.383  49.434  1.00  0.00     0.274 C 
BRANCH  16  17
HETATM   17  C   UNL     1      24.418  48.469  49.031  1.00  0.00    -0.026 A 
HETATM   18  C   UNL     1      23.042  48.262  49.270  1.00  0.00     0.016 A 
HETATM   19  C   UNL     1      22.093  49.245  48.980  1.00  0.00    -0.061 A 
HETATM   20  C   UNL     1      20.633  49.022  49.251  1.00  0.00     0.048 C 
HETATM   21  C   UNL     1      22.522  50.445  48.415  1.00  0.00     0.007 A 
HETATM   22  C   UNL     1      23.876  50.658  48.148  1.00  0.00     0.008 A 
HETATM   23  C   UNL     1      24.840  49.686  48.458  1.00  0.00    -0.054 A 
HETATM   24  C   UNL     1      26.273  49.954  48.091  1.00  0.00     0.049 C 
ENDBRANCH  16  17
ENDBRANCH  12  16
ENDBRANCH   1   9
BRANCH   1  25
HETATM   25  C   UNL     1      28.035  43.417  52.825  1.00  0.00     0.072 A 
HETATM   26  N   UNL     1      27.947  43.934  54.083  1.00  0.00    -0.262 NA
HETATM   27  C   UNL     1      29.057  43.924  54.856  1.00  0.00     0.117 A 
HETATM   28  C   UNL     1      30.277  43.432  54.436  1.00  0.00     0.019 A 
HETATM   29  C   UNL     1      30.363  42.915  53.150  1.00  0.00     0.003 A 
HETATM   30  C   UNL     1      29.234  42.901  52.332  1.00  0.00     0.030 A 
ENDBRANCH   1  25
BRANCH   5  31
HETATM   31  C   UNL     1      26.817  41.958  48.545  1.00  0.00     0.168 C 
BRANCH  31  32
HETATM   32  C   UNL     1      25.491  41.925  47.776  1.00  0.00     0.140 C 
HETATM   33  O   UNL     1      24.489  42.692  48.480  1.00  0.00    -0.384 OA
HETATM   34  C   UNL     1      23.346  41.858  48.704  1.00  0.00     0.168 C 
HETATM   35  C   UNL     1      23.451  40.725  47.711  1.00  0.00     0.029 C 
HETATM   36  C   UNL     1      24.942  40.509  47.647  1.00  0.00     0.036 C 
ENDBRANCH  31  32
ENDBRANCH   5  31
TORSDOF 6
ENDMDL
MODEL 4
REMARK VINA RESULT:      -9.4     11.871     14.832
REMARK  6 active torsions:
REMARK  status: ('A' for Active; 'I' for Inactive)
REMARK    1  A    between atoms: C_4  and  C_5 
REMARK    2  A    between atoms: C_5  and  N_6 
REMARK    3  A    between atoms: C_10  and  C_11 
REMARK    4  A    between atoms: C_11  and  C_12 
REMARK    5  A    between atoms: N_21  and  C_22 
REMARK    6  A    between atoms: C_22  and  C_23 
ROOT
HETATM    1  C   UNL     1      28.394  49.248  39.058  1.00  0.00     0.164 C 
HETATM    2  N   UNL     1      28.454  48.830  40.455  1.00  0.00    -0.319 N 
HETATM    3  C   UNL     1      27.956  49.783  41.312  1.00  0.00     0.326 C 
HETATM    4  O   UNL     1      27.709  49.591  42.488  1.00  0.00    -0.247 OA
HETATM    5  N   UNL     1      27.808  50.941  40.622  1.00  0.00    -0.265 N 
HETATM    6  C   UNL     1      28.040  50.729  39.294  1.00  0.00     0.263 C 
HETATM    7  O   UNL     1      28.017  51.588  38.420  1.00  0.00    -0.270 OA
HETATM    8  H   UNL     1      28.386  47.853  40.724  1.00  0.00     0.166 HD
ENDROOT
BRANCH   1   9
HETATM    9  C   UNL     1      29.790  49.008  38.375  1.00  0.00     0.033 C 
HETATM   10  C   UNL     1      30.401  47.612  38.572  1.00  0.00     0.036 C 
HETATM   11  C   UNL     1      31.060  47.384  39.923  1.00  0.00     0.235 C 
HETATM   12  N   UNL     1      32.009  48.492  40.304  1.00  0.00    -0.067 N 
HETATM   13  H   UNL     1      32.865  48.326  39.762  1.00  0.00     0.280 HD
HETATM   14  C   UNL     1      31.564  49.906  40.017  1.00  0.00     0.235 C 
HETATM   15  C   UNL     1      30.893  50.040  38.664  1.00  0.00     0.036 C 
BRANCH  12  16
HETATM   16  C   UNL     1      32.417  48.401  41.779  1.00  0.00     0.274 C 
BRANCH  16  17
HETATM   17  C   UNL     1      33.023  49.661  42.344  1.00  0.00    -0.026 A 
HETATM   18  C   UNL     1      32.299  50.366  43.331  1.00  0.00     0.016 A 
HETATM   19  C   UNL     1      32.820  51.508  43.945  1.00  0.00    -0.061 A 
HETATM   20  C   UNL     1      32.051  52.244  45.003  1.00  0.00     0.048 C 
HETATM   21  C   UNL     1      34.074  51.969  43.546  1.00  0.00     0.007 A 
HETATM   22  C   UNL     1      34.794  51.300  42.555  1.00  0.00     0.008 A 
HETATM   23  C   UNL     1      34.289  50.138  41.949  1.00  0.00    -0.054 A 
HETATM   24  C   UNL     1      35.087  49.499  40.846  1.00  0.00     0.049 C 
ENDBRANCH  16  17
ENDBRANCH  12  16
ENDBRANCH   1   9
BRANCH   1  25
HETATM   25  C   UNL     1      27.279  48.452  38.377  1.00  0.00     0.072 A 
HETATM   26  N   UNL     1      26.723  49.058  37.291  1.00  0.00    -0.262 NA
HETATM   27  C   UNL     1      25.763  48.392  36.610  1.00  0.00     0.117 A 
HETATM   28  C   UNL     1      25.306  47.138  36.962  1.00  0.00     0.019 A 
HETATM   29  C   UNL     1      25.870  46.527  38.075  1.00  0.00     0.003 A 
HETATM   30  C   UNL     1      26.869  47.185  38.792  1.00  0.00     0.030 A 
ENDBRANCH   1  25
BRANCH   5  31
HETATM   31  C   UNL     1      27.346  52.195  41.192  1.00  0.00     0.168 C 
BRANCH  31  32
HETATM   32  C   UNL     1      28.498  53.154  41.512  1.00  0.00     0.140 C 
HETATM   33  O   UNL     1      28.858  53.910  40.334  1.00  0.00    -0.384 OA
HETATM   34  C   UNL     1      30.258  53.738  40.087  1.00  0.00     0.168 C 
HETATM   35  C   UNL     1      30.860  53.269  41.391  1.00  0.00     0.029 C 
HETATM   36  C   UNL     1      29.754  52.409  41.949  1.00  0.00     0.036 C 
ENDBRANCH  31  32
ENDBRANCH   5  31
TORSDOF 6
ENDMDL
MODEL 5
REMARK VINA RESULT:      -9.4     11.140     13.896
REMARK  6 active torsions:
REMARK  status: ('A' for Active; 'I' for Inactive)
REMARK    1  A    between atoms: C_4  and  C_5 
REMARK    2  A    between atoms: C_5  and  N_6 
REMARK    3  A    between atoms: C_10  and  C_11 
REMARK    4  A    between atoms: C_11  and  C_12 
REMARK    5  A    between atoms: N_21  and  C_22 
REMARK    6  A    between atoms: C_22  and  C_23 
ROOT
HETATM    1  C   UNL     1      32.736  50.481  41.405  1.00  0.00     0.164 C 
HETATM    2  N   UNL     1      32.639  50.319  39.957  1.00  0.00    -0.319 N 
HETATM    3  C   UNL     1      31.998  51.372  39.351  1.00  0.00     0.326 C 
HETATM    4  O   UNL     1      31.978  51.567  38.149  1.00  0.00    -0.247 OA
HETATM    5  N   UNL     1      31.404  52.121  40.313  1.00  0.00    -0.265 N 
HETATM    6  C   UNL     1      31.778  51.679  41.549  1.00  0.00     0.263 C 
HETATM    7  O   UNL     1      31.381  52.130  42.618  1.00  0.00    -0.270 OA
HETATM    8  H   UNL     1      33.341  49.808  39.429  1.00  0.00     0.166 HD
ENDROOT
BRANCH   1   9
HETATM    9  C   UNL     1      32.253  49.165  42.117  1.00  0.00     0.033 C 
HETATM   10  C   UNL     1      32.511  47.856  41.353  1.00  0.00     0.036 C 
HETATM   11  C   UNL     1      31.533  47.566  40.226  1.00  0.00     0.235 C 
HETATM   12  N   UNL     1      30.094  47.717  40.649  1.00  0.00    -0.067 N 
HETATM   13  H   UNL     1      29.867  46.868  41.179  1.00  0.00     0.280 HD
HETATM   14  C   UNL     1      29.756  48.897  41.528  1.00  0.00     0.235 C 
HETATM   15  C   UNL     1      30.795  49.134  42.607  1.00  0.00     0.036 C 
BRANCH  12  16
HETATM   16  C   UNL     1      29.150  47.725  39.440  1.00  0.00     0.274 C 
BRANCH  16  17
HETATM   17  C   UNL     1      27.755  47.229  39.727  1.00  0.00    -0.026 A 
HETATM   18  C   UNL     1      27.567  46.365  40.829  1.00  0.00     0.016 A 
HETATM   19  C   UNL     1      26.296  45.912  41.194  1.00  0.00    -0.061 A 
HETATM   20  C   UNL     1      26.102  45.006  42.374  1.00  0.00     0.048 C 
HETATM   21  C   UNL     1      25.199  46.305  40.428  1.00  0.00     0.007 A 
HETATM   22  C   UNL     1      25.369  47.138  39.321  1.00  0.00     0.008 A 
HETATM   23  C   UNL     1      26.638  47.618  38.961  1.00  0.00    -0.054 A 
HETATM   24  C   UNL     1      26.761  48.463  37.723  1.00  0.00     0.049 C 
ENDBRANCH  16  17
ENDBRANCH  12  16
ENDBRANCH   1   9
BRANCH   1  25
HETATM   25  C   UNL     1      34.190  50.815  41.743  1.00  0.00     0.072 A 
HETATM   26  N   UNL     1      34.353  51.637  42.818  1.00  0.00    -0.262 NA
HETATM   27  C   UNL     1      35.614  51.937  43.206  1.00  0.00     0.117 A 
HETATM   28  C   UNL     1      36.743  51.468  42.565  1.00  0.00     0.019 A 
HETATM   29  C   UNL     1      36.571  50.637  41.465  1.00  0.00     0.003 A 
HETATM   30  C   UNL     1      35.284  50.301  41.047  1.00  0.00     0.030 A 
ENDBRANCH   1  25
BRANCH   5  31
HETATM   31  C   UNL     1      30.592  53.300  40.065  1.00  0.00     0.168 C 
BRANCH  31  32
HETATM   32  C   UNL     1      29.110  52.961  39.870  1.00  0.00     0.140 C 
HETATM   33  O   UNL     1      28.409  53.050  41.130  1.00  0.00    -0.384 OA
HETATM   34  C   UNL     1      27.737  51.807  41.370  1.00  0.00     0.168 C 
HETATM   35  C   UNL     1      27.624  51.124  40.028  1.00  0.00     0.029 C 
HETATM   36  C   UNL     1      28.914  51.536  39.364  1.00  0.00     0.036 C 
ENDBRANCH  31  32
ENDBRANCH   5  31
TORSDOF 6
ENDMDL
MODEL 6
REMARK VINA RESULT:      -9.4     12.001     14.992
REMARK  6 active torsions:
REMARK  status: ('A' for Active; 'I' for Inactive)
REMARK    1  A    between atoms: C_4  and  C_5 
REMARK    2  A    between atoms: C_5  and  N_6 
REMARK    3  A    between atoms: C_10  and  C_11 
REMARK    4  A    between atoms: C_11  and  C_12 
REMARK    5  A    between atoms: N_21  and  C_22 
REMARK    6  A    between atoms: C_22  and  C_23 
ROOT
HETATM    1  C   UNL     1      29.123  48.697  39.177  1.00  0.00     0.164 C 
HETATM    2  N   UNL     1      28.833  48.492  40.593  1.00  0.00    -0.319 N 
HETATM    3  C   UNL     1      28.096  49.519  41.133  1.00  0.00     0.326 C 
HETATM    4  O   UNL     1      27.559  49.481  42.225  1.00  0.00    -0.247 OA
HETATM    5  N   UNL     1      28.092  50.550  40.252  1.00  0.00    -0.265 N 
HETATM    6  C   UNL     1      28.667  50.165  39.077  1.00  0.00     0.263 C 
HETATM    7  O   UNL     1      28.842  50.884  38.099  1.00  0.00    -0.270 OA
HETATM    8  H   UNL     1      28.733  47.562  40.989  1.00  0.00     0.166 HD
ENDROOT
BRANCH   1   9
HETATM    9  C   UNL     1      30.656  48.466  38.914  1.00  0.00     0.033 C 
HETATM   10  C   UNL     1      31.356  47.473  39.856  1.00  0.00     0.036 C 
HETATM   11  C   UNL     1      31.708  48.026  41.227  1.00  0.00     0.235 C 
HETATM   12  N   UNL     1      32.416  49.356  41.155  1.00  0.00    -0.067 N 
HETATM   13  H   UNL     1      33.387  49.142  40.898  1.00  0.00     0.280 HD
HETATM   14  C   UNL     1      31.897  50.358  40.153  1.00  0.00     0.235 C 
HETATM   15  C   UNL     1      31.543  49.720  38.823  1.00  0.00     0.036 C 
BRANCH  12  16
HETATM   16  C   UNL     1      32.483  50.032  42.529  1.00  0.00     0.274 C 
BRANCH  16  17
HETATM   17  C   UNL     1      33.771  50.766  42.808  1.00  0.00    -0.026 A 
HETATM   18  C   UNL     1      34.890  50.486  41.993  1.00  0.00     0.016 A 
HETATM   19  C   UNL     1      36.099  51.167  42.151  1.00  0.00    -0.061 A 
HETATM   20  C   UNL     1      37.280  50.874  41.272  1.00  0.00     0.048 C 
HETATM   21  C   UNL     1      36.201  52.126  43.158  1.00  0.00     0.007 A 
HETATM   22  C   UNL     1      35.114  52.400  43.989  1.00  0.00     0.008 A 
HETATM   23  C   UNL     1      33.887  51.737  43.823  1.00  0.00    -0.054 A 
HETATM   24  C   UNL     1      32.774  52.035  44.790  1.00  0.00     0.049 C 
ENDBRANCH  16  17
ENDBRANCH  12  16
ENDBRANCH   1   9
BRANCH   1  25
HETATM   25  C   UNL     1      28.252  47.728  38.375  1.00  0.00     0.072 A 
HETATM   26  N   UNL     1      26.957  48.119  38.218  1.00  0.00    -0.262 NA
HETATM   27  C   UNL     1      26.138  47.336  37.479  1.00  0.00     0.117 A 
HETATM   28  C   UNL     1      26.541  46.155  36.887  1.00  0.00     0.019 A 
HETATM   29  C   UNL     1      27.860  45.757  37.056  1.00  0.00     0.003 A 
HETATM   30  C   UNL     1      28.731  46.548  37.804  1.00  0.00     0.030 A 
ENDBRANCH   1  25
BRANCH   5  31
HETATM   31  C   UNL     1      27.452  51.834  40.480  1.00  0.00     0.168 C 
BRANCH  31  32
HETATM   32  C   UNL     1      28.400  52.856  41.119  1.00  0.00     0.140 C 
HETATM   33  O   UNL     1      29.065  53.627  40.095  1.00  0.00    -0.384 OA
HETATM   34  C   UNL     1      30.481  53.531  40.293  1.00  0.00     0.168 C 
HETATM   35  C   UNL     1      30.676  53.099  41.727  1.00  0.00     0.029 C 
HETATM   36  C   UNL     1      29.497  52.181  41.935  1.00  0.00     0.036 C 
ENDBRANCH  31  32
ENDBRANCH   5  31
TORSDOF 6
ENDMDL
MODEL 7
REMARK VINA RESULT:      -9.3      3.238      7.378
REMARK  6 active torsions:
REMARK  status: ('A' for Active; 'I' for Inactive)
REMARK    1  A    between atoms: C_4  and  C_5 
REMARK    2  A    between atoms: C_5  and  N_6 
REMARK    3  A    between atoms: C_10  and  C_11 
REMARK    4  A    between atoms: C_11  and  C_12 
REMARK    5  A    between atoms: N_21  and  C_22 
REMARK    6  A    between atoms: C_22  and  C_23 
ROOT
HETATM    1  C   UNL     1      26.559  43.621  51.389  1.00  0.00     0.164 C 
HETATM    2  N   UNL     1      27.201  44.132  50.181  1.00  0.00    -0.319 N 
HETATM    3  C   UNL     1      26.935  45.464  49.967  1.00  0.00     0.326 C 
HETATM    4  O   UNL     1      27.516  46.160  49.155  1.00  0.00    -0.247 OA
HETATM    5  N   UNL     1      25.931  45.837  50.798  1.00  0.00    -0.265 N 
HETATM    6  C   UNL     1      25.642  44.827  51.669  1.00  0.00     0.263 C 
HETATM    7  O   UNL     1      24.759  44.849  52.519  1.00  0.00    -0.270 OA
HETATM    8  H   UNL     1      28.079  43.752  49.841  1.00  0.00     0.166 HD
ENDROOT
BRANCH   1   9
HETATM    9  C   UNL     1      25.801  42.284  51.057  1.00  0.00     0.033 C 
HETATM   10  C   UNL     1      26.583  40.987  51.322  1.00  0.00     0.036 C 
HETATM   11  C   UNL     1      27.611  40.629  50.260  1.00  0.00     0.235 C 
HETATM   12  N   UNL     1      27.052  40.695  48.861  1.00  0.00    -0.067 N 
HETATM   13  H   UNL     1      26.501  39.838  48.739  1.00  0.00     0.280 HD
HETATM   14  C   UNL     1      26.147  41.859  48.537  1.00  0.00     0.235 C 
HETATM   15  C   UNL     1      25.173  42.167  49.658  1.00  0.00     0.036 C 
BRANCH  12  16
HETATM   16  C   UNL     1      28.164  40.636  47.808  1.00  0.00     0.274 C 
BRANCH  16  17
HETATM   17  C   UNL     1      28.123  39.419  46.916  1.00  0.00    -0.026 A 
HETATM   18  C   UNL     1      27.476  39.530  45.665  1.00  0.00     0.016 A 
HETATM   19  C   UNL     1      27.449  38.466  44.760  1.00  0.00    -0.061 A 
HETATM   20  C   UNL     1      26.772  38.595  43.426  1.00  0.00     0.048 C 
HETATM   21  C   UNL     1      28.053  37.263  45.121  1.00  0.00     0.007 A 
HETATM   22  C   UNL     1      28.676  37.127  46.364  1.00  0.00     0.008 A 
HETATM   23  C   UNL     1      28.729  38.198  47.270  1.00  0.00    -0.054 A 
HETATM   24  C   UNL     1      29.362  37.968  48.615  1.00  0.00     0.049 C 
ENDBRANCH  16  17
ENDBRANCH  12  16
ENDBRANCH   1   9
BRANCH   1  25
HETATM   25  C   UNL     1      27.645  43.417  52.447  1.00  0.00     0.072 A 
HETATM   26  N   UNL     1      28.905  43.265  51.952  1.00  0.00    -0.262 NA
HETATM   27  C   UNL     1      29.924  43.128  52.831  1.00  0.00     0.117 A 
HETATM   28  C   UNL     1      29.755  43.121  54.201  1.00  0.00     0.019 A 
HETATM   29  C   UNL     1      28.467  43.268  54.701  1.00  0.00     0.003 A 
HETATM   30  C   UNL     1      27.398  43.421  53.820  1.00  0.00     0.030 A 
ENDBRANCH   1  25
BRANCH   5  31
HETATM   31  C   UNL     1      25.337  47.163  50.840  1.00  0.00     0.168 C 
BRANCH  31  32
HETATM   32  C   UNL     1      24.659  47.543  49.519  1.00  0.00     0.140 C 
HETATM   33  O   UNL     1      24.152  48.894  49.590  1.00  0.00    -0.384 OA
HETATM   34  C   UNL     1      22.757  48.878  49.264  1.00  0.00     0.168 C 
HETATM   35  C   UNL     1      22.514  47.588  48.518  1.00  0.00     0.029 C 
HETATM   36  C   UNL     1      23.465  46.646  49.213  1.00  0.00     0.036 C 
ENDBRANCH  31  32
ENDBRANCH   5  31
TORSDOF 6
ENDMDL
MODEL 8
REMARK VINA RESULT:      -9.2      6.234     11.299
REMARK  6 active torsions:
REMARK  status: ('A' for Active; 'I' for Inactive)
REMARK    1  A    between atoms: C_4  and  C_5 
REMARK    2  A    between atoms: C_5  and  N_6 
REMARK    3  A    between atoms: C_10  and  C_11 
REMARK    4  A    between atoms: C_11  and  C_12 
REMARK    5  A    between atoms: N_21  and  C_22 
REMARK    6  A    between atoms: C_22  and  C_23 
ROOT
HETATM    1  C   UNL     1      17.591  50.496  48.693  1.00  0.00     0.164 C 
HETATM    2  N   UNL     1      18.537  50.802  47.625  1.00  0.00    -0.319 N 
HETATM    3  C   UNL     1      18.271  50.106  46.470  1.00  0.00     0.326 C 
HETATM    4  O   UNL     1      18.783  50.341  45.390  1.00  0.00    -0.247 OA
HETATM    5  N   UNL     1      17.368  49.135  46.755  1.00  0.00    -0.265 N 
HETATM    6  C   UNL     1      16.910  49.282  48.032  1.00  0.00     0.263 C 
HETATM    7  O   UNL     1      16.111  48.540  48.593  1.00  0.00    -0.270 OA
HETATM    8  H   UNL     1      18.985  51.710  47.552  1.00  0.00     0.166 HD
ENDROOT
BRANCH   1   9
HETATM    9  C   UNL     1      18.376  50.167  50.016  1.00  0.00     0.033 C 
HETATM   10  C   UNL     1      19.705  50.915  50.209  1.00  0.00     0.036 C 
HETATM   11  C   UNL     1      20.876  50.360  49.415  1.00  0.00     0.235 C 
HETATM   12  N   UNL     1      21.024  48.866  49.560  1.00  0.00    -0.067 N 
HETATM   13  H   UNL     1      21.463  48.716  50.476  1.00  0.00     0.280 HD
HETATM   14  C   UNL     1      19.758  48.045  49.530  1.00  0.00     0.235 C 
HETATM   15  C   UNL     1      18.633  48.682  50.322  1.00  0.00     0.036 C 
BRANCH  12  16
HETATM   16  C   UNL     1      22.000  48.294  48.525  1.00  0.00     0.274 C 
BRANCH  16  17
HETATM   17  C   UNL     1      23.452  48.352  48.929  1.00  0.00    -0.026 A 
HETATM   18  C   UNL     1      23.953  47.333  49.769  1.00  0.00     0.016 A 
HETATM   19  C   UNL     1      25.300  47.285  50.137  1.00  0.00    -0.061 A 
HETATM   20  C   UNL     1      25.828  46.190  51.018  1.00  0.00     0.048 C 
HETATM   21  C   UNL     1      26.155  48.288  49.682  1.00  0.00     0.007 A 
HETATM   22  C   UNL     1      25.672  49.318  48.872  1.00  0.00     0.008 A 
HETATM   23  C   UNL     1      24.326  49.361  48.477  1.00  0.00    -0.054 A 
HETATM   24  C   UNL     1      23.857  50.529  47.654  1.00  0.00     0.049 C 
ENDBRANCH  16  17
ENDBRANCH  12  16
ENDBRANCH   1   9
BRANCH   1  25
HETATM   25  C   UNL     1      16.666  51.702  48.860  1.00  0.00     0.072 A 
HETATM   26  N   UNL     1      15.869  51.966  47.787  1.00  0.00    -0.262 NA
HETATM   27  C   UNL     1      14.990  52.990  47.881  1.00  0.00     0.117 A 
HETATM   28  C   UNL     1      14.866  53.791  48.999  1.00  0.00     0.019 A 
HETATM   29  C   UNL     1      15.686  53.523  50.087  1.00  0.00     0.003 A 
HETATM   30  C   UNL     1      16.595  52.468  50.025  1.00  0.00     0.030 A 
ENDBRANCH   1  25
BRANCH   5  31
HETATM   31  C   UNL     1      16.866  48.162  45.801  1.00  0.00     0.168 C 
BRANCH  31  32
HETATM   32  C   UNL     1      17.783  46.940  45.673  1.00  0.00     0.140 C 
HETATM   33  O   UNL     1      17.558  46.279  44.408  1.00  0.00    -0.384 OA
HETATM   34  C   UNL     1      17.252  44.902  44.658  1.00  0.00     0.168 C 
HETATM   35  C   UNL     1      17.766  44.602  46.045  1.00  0.00     0.029 C 
HETATM   36  C   UNL     1      17.507  45.905  46.758  1.00  0.00     0.036 C 
ENDBRANCH  31  32
ENDBRANCH   5  31
TORSDOF 6
ENDMDL
MODEL 9
REMARK VINA RESULT:      -9.0      3.247      7.210
REMARK  6 active torsions:
REMARK  status: ('A' for Active; 'I' for Inactive)
REMARK    1  A    between atoms: C_4  and  C_5 
REMARK    2  A    between atoms: C_5  and  N_6 
REMARK    3  A    between atoms: C_10  and  C_11 
REMARK    4  A    between atoms: C_11  and  C_12 
REMARK    5  A    between atoms: N_21  and  C_22 
REMARK    6  A    between atoms: C_22  and  C_23 
ROOT
HETATM    1  C   UNL     1      25.707  41.748  48.980  1.00  0.00     0.164 C 
HETATM    2  N   UNL     1      26.803  41.971  48.041  1.00  0.00    -0.319 N 
HETATM    3  C   UNL     1      27.859  41.117  48.251  1.00  0.00     0.326 C 
HETATM    4  O   UNL     1      28.789  40.968  47.479  1.00  0.00    -0.247 OA
HETATM    5  N   UNL     1      27.679  40.502  49.446  1.00  0.00    -0.265 N 
HETATM    6  C   UNL     1      26.448  40.807  49.950  1.00  0.00     0.263 C 
HETATM    7  O   UNL     1      26.005  40.431  51.029  1.00  0.00    -0.270 OA
HETATM    8  H   UNL     1      26.638  42.317  47.100  1.00  0.00     0.166 HD
ENDROOT
BRANCH   1   9
HETATM    9  C   UNL     1      25.263  43.119  49.608  1.00  0.00     0.033 C 
HETATM   10  C   UNL     1      26.291  44.260  49.523  1.00  0.00     0.036 C 
HETATM   11  C   UNL     1      27.413  44.191  50.547  1.00  0.00     0.235 C 
HETATM   12  N   UNL     1      26.909  43.967  51.951  1.00  0.00    -0.067 N 
HETATM   13  H   UNL     1      26.557  44.877  52.270  1.00  0.00     0.280 HD
HETATM   14  C   UNL     1      25.792  42.967  52.128  1.00  0.00     0.235 C 
HETATM   15  C   UNL     1      24.731  43.085  51.051  1.00  0.00     0.036 C 
BRANCH  12  16
HETATM   16  C   UNL     1      28.050  43.596  52.906  1.00  0.00     0.274 C 
BRANCH  16  17
HETATM   17  C   UNL     1      28.303  44.599  54.004  1.00  0.00    -0.026 A 
HETATM   18  C   UNL     1      27.446  45.718  54.097  1.00  0.00     0.016 A 
HETATM   19  C   UNL     1      27.580  46.658  55.122  1.00  0.00    -0.061 A 
HETATM   20  C   UNL     1      26.657  47.838  55.223  1.00  0.00     0.048 C 
HETATM   21  C   UNL     1      28.604  46.493  56.053  1.00  0.00     0.007 A 
HETATM   22  C   UNL     1      29.476  45.406  55.962  1.00  0.00     0.008 A 
HETATM   23  C   UNL     1      29.335  44.444  54.951  1.00  0.00    -0.054 A 
HETATM   24  C   UNL     1      30.343  43.330  54.873  1.00  0.00     0.049 C 
ENDBRANCH  16  17
ENDBRANCH  12  16
ENDBRANCH   1   9
BRANCH   1  25
HETATM   25  C   UNL     1      24.567  41.071  48.218  1.00  0.00     0.072 A 
HETATM   26  N   UNL     1      24.951  40.047  47.405  1.00  0.00    -0.262 NA
HETATM   27  C   UNL     1      23.990  39.369  46.735  1.00  0.00     0.117 A 
HETATM   28  C   UNL     1      22.645  39.667  46.821  1.00  0.00     0.019 A 
HETATM   29  C   UNL     1      22.259  40.716  47.645  1.00  0.00     0.003 A 
HETATM   30  C   UNL     1      23.225  41.428  48.355  1.00  0.00     0.030 A 
ENDBRANCH   1  25
BRANCH   5  31
HETATM   31  C   UNL     1      28.606  39.556  50.041  1.00  0.00     0.168 C 
BRANCH  31  32
HETATM   32  C   UNL     1      28.383  38.124  49.542  1.00  0.00     0.140 C 
HETATM   33  O   UNL     1      29.004  37.944  48.250  1.00  0.00    -0.384 OA
HETATM   34  C   UNL     1      28.017  37.462  47.329  1.00  0.00     0.168 C 
HETATM   35  C   UNL     1      26.906  36.881  48.169  1.00  0.00     0.029 C 
HETATM   36  C   UNL     1      26.902  37.809  49.359  1.00  0.00     0.036 C 
ENDBRANCH  31  32
ENDBRANCH   5  31
TORSDOF 6
ENDMDL
MODEL 10
REMARK VINA RESULT:      -8.7      1.919      2.807
REMARK  6 active torsions:
REMARK  status: ('A' for Active; 'I' for Inactive)
REMARK    1  A    between atoms: C_4  and  C_5 
REMARK    2  A    between atoms: C_5  and  N_6 
REMARK    3  A    between atoms: C_10  and  C_11 
REMARK    4  A    between atoms: C_11  and  C_12 
REMARK    5  A    between atoms: N_21  and  C_22 
REMARK    6  A    between atoms: C_22  and  C_23 
ROOT
HETATM    1  C   UNL     1      26.912  43.677  52.127  1.00  0.00     0.164 C 
HETATM    2  N   UNL     1      26.234  42.385  52.177  1.00  0.00    -0.319 N 
HETATM    3  C   UNL     1      26.253  41.733  50.967  1.00  0.00     0.326 C 
HETATM    4  O   UNL     1      25.942  40.566  50.808  1.00  0.00    -0.247 OA
HETATM    5  N   UNL     1      26.662  42.610  50.017  1.00  0.00    -0.265 N 
HETATM    6  C   UNL     1      27.070  43.775  50.598  1.00  0.00     0.263 C 
HETATM    7  O   UNL     1      27.462  44.771  50.000  1.00  0.00    -0.270 OA
HETATM    8  H   UNL     1      26.203  41.830  53.027  1.00  0.00     0.166 HD
ENDROOT
BRANCH   1   9
HETATM    9  C   UNL     1      25.991  44.781  52.764  1.00  0.00     0.033 C 
HETATM   10  C   UNL     1      24.501  44.705  52.394  1.00  0.00     0.036 C 
HETATM   11  C   UNL     1      24.151  45.252  51.020  1.00  0.00     0.235 C 
HETATM   12  N   UNL     1      24.743  46.615  50.766  1.00  0.00    -0.067 N 
HETATM   13  H   UNL     1      24.148  47.278  51.276  1.00  0.00     0.280 HD
HETATM   14  C   UNL     1      26.163  46.843  51.225  1.00  0.00     0.235 C 
HETATM   15  C   UNL     1      26.436  46.243  52.591  1.00  0.00     0.036 C 
BRANCH  12  16
HETATM   16  C   UNL     1      24.641  47.006  49.287  1.00  0.00     0.274 C 
BRANCH  16  17
HETATM   17  C   UNL     1      23.317  47.607  48.885  1.00  0.00    -0.026 A 
HETATM   18  C   UNL     1      23.046  48.941  49.262  1.00  0.00     0.016 A 
HETATM   19  C   UNL     1      21.869  49.586  48.875  1.00  0.00    -0.061 A 
HETATM   20  C   UNL     1      21.594  51.008  49.267  1.00  0.00     0.048 C 
HETATM   21  C   UNL     1      20.933  48.877  48.122  1.00  0.00     0.007 A 
HETATM   22  C   UNL     1      21.172  47.549  47.762  1.00  0.00     0.008 A 
HETATM   23  C   UNL     1      22.363  46.901  48.125  1.00  0.00    -0.054 A 
HETATM   24  C   UNL     1      22.532  45.453  47.756  1.00  0.00     0.049 C 
ENDBRANCH  16  17
ENDBRANCH  12  16
ENDBRANCH   1   9
BRANCH   1  25
HETATM   25  C   UNL     1      28.240  43.538  52.873  1.00  0.00     0.072 A 
HETATM   26  N   UNL     1      28.258  44.093  54.118  1.00  0.00    -0.262 NA
HETATM   27  C   UNL     1      29.385  43.968  54.856  1.00  0.00     0.117 A 
HETATM   28  C   UNL     1      30.521  43.321  54.413  1.00  0.00     0.019 A 
HETATM   29  C   UNL     1      30.500  42.763  53.141  1.00  0.00     0.003 A 
HETATM   30  C   UNL     1      29.350  42.867  52.360  1.00  0.00     0.030 A 
ENDBRANCH   1  25
BRANCH   5  31
HETATM   31  C   UNL     1      26.771  42.307  48.600  1.00  0.00     0.168 C 
BRANCH  31  32
HETATM   32  C   UNL     1      27.600  41.046  48.333  1.00  0.00     0.140 C 
HETATM   33  O   UNL     1      28.541  41.286  47.264  1.00  0.00    -0.384 OA
HETATM   34  C   UNL     1      28.352  40.289  46.252  1.00  0.00     0.168 C 
HETATM   35  C   UNL     1      27.625  39.147  46.919  1.00  0.00     0.029 C 
HETATM   36  C   UNL     1      26.729  39.876  47.889  1.00  0.00     0.036 C 
ENDBRANCH  31  32
ENDBRANCH   5  31
TORSDOF 6
ENDMDL
