MODEL 1
REMARK VINA RESULT:     -11.2      0.000      0.000
REMARK  4 active torsions:
REMARK  status: ('A' for Active; 'I' for Inactive)
REMARK    1  A    between atoms: C_2  and  N_3 
REMARK    2  A    between atoms: C_7  and  N_8 
REMARK       I    between atoms: N_8  and  C_9 
REMARK    3  A    between atoms: C_9  and  C_10 
REMARK    4  A    between atoms: C_10  and  N_11 
ROOT
HETATM    1  N   UNL     1      24.526  44.130  49.461  1.00  0.00    -0.326 N 
HETATM    2  C   UNL     1      24.534  43.141  50.424  1.00  0.00     0.242 C 
HETATM    3  O   UNL     1      23.595  42.846  51.162  1.00  0.00    -0.271 OA
HETATM    4  H   UNL     1      25.409  44.239  48.963  1.00  0.00     0.169 HD
ENDROOT
BRANCH   2   5
HETATM    5  C   UNL     1      25.898  42.483  50.642  1.00  0.00     0.257 C 
BRANCH   5   6
HETATM    6  N   UNL     1      26.836  43.144  51.551  1.00  0.00    -0.224 N 
HETATM    7  N   UNL     1      26.366  44.295  52.225  1.00  0.00    -0.180 NA
HETATM    8  C   UNL     1      27.039  44.772  53.236  1.00  0.00     0.153 A 
HETATM    9  C   UNL     1      28.245  44.139  53.686  1.00  0.00     0.028 A 
HETATM   10  C   UNL     1      28.709  43.046  53.003  1.00  0.00     0.116 A 
HETATM   11  C   UNL     1      29.112  44.369  54.787  1.00  0.00     0.005 A 
HETATM   12  N   UNL     1      29.846  42.604  53.616  1.00  0.00    -0.350 N 
HETATM   13  C   UNL     1      28.034  42.470  51.877  1.00  0.00     0.291 A 
HETATM   14  H   UNL     1      30.383  41.797  53.326  1.00  0.00     0.166 HD
HETATM   15  C   UNL     1      30.100  43.380  54.729  1.00  0.00     0.044 A 
HETATM   16  C   UNL     1      31.112  43.270  55.688  1.00  0.00     0.031 A 
HETATM   17  C   UNL     1      31.114  44.193  56.739  1.00  0.00     0.009 A 
HETATM   18  C   UNL     1      30.154  45.206  56.824  1.00  0.00    -0.061 A 
HETATM   19  C   UNL     1      30.157  46.157  57.987  1.00  0.00     0.048 C 
HETATM   20  C   UNL     1      29.143  45.293  55.851  1.00  0.00     0.021 A 
HETATM   21  O   UNL     1      28.451  41.469  51.307  1.00  0.00    -0.264 OA
ENDBRANCH   5   6
ENDBRANCH   2   5
BRANCH   1  22
HETATM   22  C   UNL     1      23.478  45.018  49.139  1.00  0.00     0.035 A 
HETATM   23  C   UNL     1      23.606  46.410  49.185  1.00  0.00     0.044 A 
HETATM   24  C   UNL     1      22.522  47.243  48.816  1.00  0.00     0.005 A 
HETATM   25  C   UNL     1      21.321  46.655  48.422  1.00  0.00     0.046 A 
HETATM   26  C   UNL     1      22.360  48.661  48.738  1.00  0.00     0.003 A 
HETATM   27  N   UNL     1      20.448  47.686  48.130  1.00  0.00    -0.346 N 
HETATM   28  C   UNL     1      21.167  45.260  48.379  1.00  0.00     0.033 A 
HETATM   29  C   UNL     1      21.057  48.915  48.310  1.00  0.00     0.046 A 
HETATM   30  C   UNL     1      20.577  50.225  48.138  1.00  0.00     0.030 A 
HETATM   31  C   UNL     1      21.446  51.289  48.399  1.00  0.00     0.002 A 
HETATM   32  C   UNL     1      22.750  51.058  48.822  1.00  0.00     0.001 A 
HETATM   33  C   UNL     1      23.218  49.752  48.997  1.00  0.00     0.014 A 
HETATM   34  C   UNL     1      22.264  44.461  48.735  1.00  0.00     0.032 A 
BRANCH  27  35
HETATM   35  C   UNL     1      19.074  47.510  47.683  1.00  0.00     0.125 C 
HETATM   36  C   UNL     1      18.090  47.513  48.840  1.00  0.00     0.027 C 
ENDBRANCH  27  35
ENDBRANCH   1  22
TORSDOF 4
ENDMDL
MODEL 2
REMARK VINA RESULT:     -10.9      1.204      1.778
REMARK  4 active torsions:
REMARK  status: ('A' for Active; 'I' for Inactive)
REMARK    1  A    between atoms: C_2  and  N_3 
REMARK    2  A    between atoms: C_7  and  N_8 
REMARK       I    between atoms: N_8  and  C_9 
REMARK    3  A    between atoms: C_9  and  C_10 
REMARK    4  A    between atoms: C_10  and  N_11 
ROOT
HETATM    1  N   UNL     1      24.326  44.511  49.167  1.00  0.00    -0.326 N 
HETATM    2  C   UNL     1      24.483  43.510  50.105  1.00  0.00     0.242 C 
HETATM    3  O   UNL     1      23.625  43.125  50.898  1.00  0.00    -0.271 OA
HETATM    4  H   UNL     1      25.160  44.703  48.614  1.00  0.00     0.169 HD
ENDROOT
BRANCH   2   5
HETATM    5  C   UNL     1      25.909  42.968  50.216  1.00  0.00     0.257 C 
BRANCH   5   6
HETATM    6  N   UNL     1      26.573  43.057  51.518  1.00  0.00    -0.224 N 
HETATM    7  N   UNL     1      27.347  41.942  51.917  1.00  0.00    -0.180 NA
HETATM    8  C   UNL     1      28.170  42.055  52.922  1.00  0.00     0.153 A 
HETATM    9  C   UNL     1      28.316  43.297  53.624  1.00  0.00     0.028 A 
HETATM   10  C   UNL     1      27.535  44.359  53.251  1.00  0.00     0.116 A 
HETATM   11  C   UNL     1      29.180  43.731  54.664  1.00  0.00     0.005 A 
HETATM   12  N   UNL     1      27.857  45.428  54.036  1.00  0.00    -0.350 N 
HETATM   13  C   UNL     1      26.600  44.312  52.166  1.00  0.00     0.291 A 
HETATM   14  H   UNL     1      27.442  46.348  53.959  1.00  0.00     0.166 HD
HETATM   15  C   UNL     1      28.882  45.079  54.892  1.00  0.00     0.044 A 
HETATM   16  C   UNL     1      29.572  45.854  55.830  1.00  0.00     0.031 A 
HETATM   17  C   UNL     1      30.597  45.238  56.554  1.00  0.00     0.009 A 
HETATM   18  C   UNL     1      30.915  43.888  56.367  1.00  0.00    -0.061 A 
HETATM   19  C   UNL     1      32.049  43.265  57.129  1.00  0.00     0.048 C 
HETATM   20  C   UNL     1      30.211  43.131  55.415  1.00  0.00     0.021 A 
HETATM   21  O   UNL     1      25.940  45.288  51.829  1.00  0.00    -0.264 OA
ENDBRANCH   5   6
ENDBRANCH   2   5
BRANCH   1  22
HETATM   22  C   UNL     1      23.188  45.312  48.936  1.00  0.00     0.035 A 
HETATM   23  C   UNL     1      23.202  46.709  49.002  1.00  0.00     0.044 A 
HETATM   24  C   UNL     1      22.029  47.452  48.725  1.00  0.00     0.005 A 
HETATM   25  C   UNL     1      20.857  46.771  48.402  1.00  0.00     0.046 A 
HETATM   26  C   UNL     1      21.744  48.852  48.689  1.00  0.00     0.003 A 
HETATM   27  N   UNL     1      19.882  47.728  48.192  1.00  0.00    -0.346 N 
HETATM   28  C   UNL     1      20.817  45.368  48.341  1.00  0.00     0.033 A 
HETATM   29  C   UNL     1      20.398  49.002  48.356  1.00  0.00     0.046 A 
HETATM   30  C   UNL     1      19.799  50.268  48.244  1.00  0.00     0.030 A 
HETATM   31  C   UNL     1      20.593  51.398  48.468  1.00  0.00     0.002 A 
HETATM   32  C   UNL     1      21.938  51.272  48.796  1.00  0.00     0.001 A 
HETATM   33  C   UNL     1      22.524  50.008  48.911  1.00  0.00     0.014 A 
HETATM   34  C   UNL     1      21.999  44.660  48.604  1.00  0.00     0.032 A 
BRANCH  27  35
HETATM   35  C   UNL     1      18.500  47.443  47.836  1.00  0.00     0.125 C 
HETATM   36  C   UNL     1      18.294  47.393  46.332  1.00  0.00     0.027 C 
ENDBRANCH  27  35
ENDBRANCH   1  22
TORSDOF 4
ENDMDL
MODEL 3
REMARK VINA RESULT:     -10.7      2.173     10.094
REMARK  4 active torsions:
REMARK  status: ('A' for Active; 'I' for Inactive)
REMARK    1  A    between atoms: C_2  and  N_3 
REMARK    2  A    between atoms: C_7  and  N_8 
REMARK       I    between atoms: N_8  and  C_9 
REMARK    3  A    between atoms: C_9  and  C_10 
REMARK    4  A    between atoms: C_10  and  N_11 
ROOT
HETATM    1  N   UNL     1      23.726  44.798  49.428  1.00  0.00    -0.326 N 
HETATM    2  C   UNL     1      22.414  44.369  49.451  1.00  0.00     0.242 C 
HETATM    3  O   UNL     1      21.883  43.721  50.351  1.00  0.00    -0.271 OA
HETATM    4  H   UNL     1      23.988  45.304  48.583  1.00  0.00     0.169 HD
ENDROOT
BRANCH   2   5
HETATM    5  C   UNL     1      21.642  44.630  48.155  1.00  0.00     0.257 C 
BRANCH   5   6
HETATM    6  N   UNL     1      20.868  45.869  48.061  1.00  0.00    -0.224 N 
HETATM    7  N   UNL     1      19.523  45.815  48.496  1.00  0.00    -0.180 NA
HETATM    8  C   UNL     1      18.863  46.923  48.692  1.00  0.00     0.153 A 
HETATM    9  C   UNL     1      19.482  48.200  48.485  1.00  0.00     0.028 A 
HETATM   10  C   UNL     1      20.774  48.239  48.029  1.00  0.00     0.116 A 
HETATM   11  C   UNL     1      19.054  49.535  48.704  1.00  0.00     0.005 A 
HETATM   12  N   UNL     1      21.156  49.545  47.928  1.00  0.00    -0.350 N 
HETATM   13  C   UNL     1      21.561  47.067  47.780  1.00  0.00     0.291 A 
HETATM   14  H   UNL     1      22.072  49.858  47.631  1.00  0.00     0.166 HD
HETATM   15  C   UNL     1      20.131  50.360  48.362  1.00  0.00     0.044 A 
HETATM   16  C   UNL     1      20.084  51.753  48.491  1.00  0.00     0.031 A 
HETATM   17  C   UNL     1      18.906  52.319  48.988  1.00  0.00     0.009 A 
HETATM   18  C   UNL     1      17.801  51.531  49.326  1.00  0.00    -0.061 A 
HETATM   19  C   UNL     1      16.565  52.165  49.897  1.00  0.00     0.048 C 
HETATM   20  C   UNL     1      17.874  50.134  49.193  1.00  0.00     0.021 A 
HETATM   21  O   UNL     1      22.727  47.130  47.408  1.00  0.00    -0.264 OA
ENDBRANCH   5   6
ENDBRANCH   2   5
BRANCH   1  22
HETATM   22  C   UNL     1      24.730  44.569  50.392  1.00  0.00     0.035 A 
HETATM   23  C   UNL     1      25.106  45.513  51.353  1.00  0.00     0.044 A 
HETATM   24  C   UNL     1      26.099  45.204  52.313  1.00  0.00     0.005 A 
HETATM   25  C   UNL     1      26.709  43.951  52.276  1.00  0.00     0.046 A 
HETATM   26  C   UNL     1      26.664  45.931  53.406  1.00  0.00     0.003 A 
HETATM   27  N   UNL     1      27.630  43.923  53.306  1.00  0.00    -0.346 N 
HETATM   28  C   UNL     1      26.355  42.992  51.313  1.00  0.00     0.033 A 
HETATM   29  C   UNL     1      27.619  45.114  54.011  1.00  0.00     0.046 A 
HETATM   30  C   UNL     1      28.365  45.544  55.121  1.00  0.00     0.030 A 
HETATM   31  C   UNL     1      28.123  46.826  55.625  1.00  0.00     0.002 A 
HETATM   32  C   UNL     1      27.173  47.655  55.041  1.00  0.00     0.001 A 
HETATM   33  C   UNL     1      26.439  47.222  53.933  1.00  0.00     0.014 A 
HETATM   34  C   UNL     1      25.356  43.321  50.386  1.00  0.00     0.032 A 
BRANCH  27  35
HETATM   35  C   UNL     1      28.493  42.794  53.619  1.00  0.00     0.125 C 
HETATM   36  C   UNL     1      29.856  42.914  52.962  1.00  0.00     0.027 C 
ENDBRANCH  27  35
ENDBRANCH   1  22
TORSDOF 4
ENDMDL
MODEL 4
REMARK VINA RESULT:     -10.6      5.943     10.588
REMARK  4 active torsions:
REMARK  status: ('A' for Active; 'I' for Inactive)
REMARK    1  A    between atoms: C_2  and  N_3 
REMARK    2  A    between atoms: C_7  and  N_8 
REMARK       I    between atoms: N_8  and  C_9 
REMARK    3  A    between atoms: C_9  and  C_10 
REMARK    4  A    between atoms: C_10  and  N_11 
ROOT
HETATM    1  N   UNL     1      28.899  41.508  51.254  1.00  0.00    -0.326 N 
HETATM    2  C   UNL     1      27.952  40.587  50.853  1.00  0.00     0.242 C 
HETATM    3  O   UNL     1      26.811  40.483  51.302  1.00  0.00    -0.271 OA
HETATM    4  H   UNL     1      29.796  41.423  50.778  1.00  0.00     0.169 HD
ENDROOT
BRANCH   2   5
HETATM    5  C   UNL     1      28.469  39.541  49.863  1.00  0.00     0.257 C 
BRANCH   5   6
HETATM    6  N   UNL     1      28.111  39.702  48.453  1.00  0.00    -0.224 N 
HETATM    7  N   UNL     1      28.034  41.026  47.963  1.00  0.00    -0.180 NA
HETATM    8  C   UNL     1      27.987  41.236  46.676  1.00  0.00     0.153 A 
HETATM    9  C   UNL     1      28.026  40.145  45.746  1.00  0.00     0.028 A 
HETATM   10  C   UNL     1      28.065  38.865  46.234  1.00  0.00     0.116 A 
HETATM   11  C   UNL     1      28.086  40.076  44.329  1.00  0.00     0.005 A 
HETATM   12  N   UNL     1      28.117  38.002  45.178  1.00  0.00    -0.350 N 
HETATM   13  C   UNL     1      28.107  38.552  47.632  1.00  0.00     0.291 A 
HETATM   14  H   UNL     1      28.172  36.994  45.257  1.00  0.00     0.166 HD
HETATM   15  C   UNL     1      28.159  38.718  43.999  1.00  0.00     0.044 A 
HETATM   16  C   UNL     1      28.273  38.268  42.679  1.00  0.00     0.031 A 
HETATM   17  C   UNL     1      28.317  39.232  41.667  1.00  0.00     0.009 A 
HETATM   18  C   UNL     1      28.230  40.598  41.954  1.00  0.00    -0.061 A 
HETATM   19  C   UNL     1      28.322  41.612  40.848  1.00  0.00     0.048 C 
HETATM   20  C   UNL     1      28.122  41.026  43.288  1.00  0.00     0.021 A 
HETATM   21  O   UNL     1      28.179  37.400  48.042  1.00  0.00    -0.264 OA
ENDBRANCH   5   6
ENDBRANCH   2   5
BRANCH   1  22
HETATM   22  C   UNL     1      28.782  42.490  52.260  1.00  0.00     0.035 A 
HETATM   23  C   UNL     1      29.599  42.532  53.395  1.00  0.00     0.044 A 
HETATM   24  C   UNL     1      29.449  43.567  54.349  1.00  0.00     0.005 A 
HETATM   25  C   UNL     1      28.464  44.532  54.151  1.00  0.00     0.046 A 
HETATM   26  C   UNL     1      30.132  43.883  55.565  1.00  0.00     0.003 A 
HETATM   27  N   UNL     1      28.533  45.402  55.223  1.00  0.00    -0.346 N 
HETATM   28  C   UNL     1      27.624  44.503  53.025  1.00  0.00     0.033 A 
HETATM   29  C   UNL     1      29.542  45.032  56.094  1.00  0.00     0.046 A 
HETATM   30  C   UNL     1      29.985  45.602  57.300  1.00  0.00     0.030 A 
HETATM   31  C   UNL     1      31.052  44.993  57.968  1.00  0.00     0.002 A 
HETATM   32  C   UNL     1      31.657  43.851  57.455  1.00  0.00     0.001 A 
HETATM   33  C   UNL     1      31.207  43.287  56.259  1.00  0.00     0.014 A 
HETATM   34  C   UNL     1      27.808  43.475  52.088  1.00  0.00     0.032 A 
BRANCH  27  35
HETATM   35  C   UNL     1      27.671  46.559  55.412  1.00  0.00     0.125 C 
HETATM   36  C   UNL     1      28.167  47.774  54.648  1.00  0.00     0.027 C 
ENDBRANCH  27  35
ENDBRANCH   1  22
TORSDOF 4
ENDMDL
MODEL 5
REMARK VINA RESULT:     -10.5      2.078     10.394
REMARK  4 active torsions:
REMARK  status: ('A' for Active; 'I' for Inactive)
REMARK    1  A    between atoms: C_2  and  N_3 
REMARK    2  A    between atoms: C_7  and  N_8 
REMARK       I    between atoms: N_8  and  C_9 
REMARK    3  A    between atoms: C_9  and  C_10 
REMARK    4  A    between atoms: C_10  and  N_11 
ROOT
HETATM    1  N   UNL     1      24.740  45.725  50.633  1.00  0.00    -0.326 N 
HETATM    2  C   UNL     1      23.750  44.803  50.361  1.00  0.00     0.242 C 
HETATM    3  O   UNL     1      23.407  43.876  51.093  1.00  0.00    -0.271 OA
HETATM    4  H   UNL     1      24.894  46.407  49.891  1.00  0.00     0.169 HD
ENDROOT
BRANCH   2   5
HETATM    5  C   UNL     1      23.159  44.907  48.953  1.00  0.00     0.257 C 
BRANCH   5   6
HETATM    6  N   UNL     1      22.236  46.010  48.681  1.00  0.00    -0.224 N 
HETATM    7  N   UNL     1      20.856  45.701  48.684  1.00  0.00    -0.180 NA
HETATM    8  C   UNL     1      19.978  46.666  48.717  1.00  0.00     0.153 A 
HETATM    9  C   UNL     1      20.389  48.039  48.764  1.00  0.00     0.028 A 
HETATM   10  C   UNL     1      21.729  48.326  48.725  1.00  0.00     0.116 A 
HETATM   11  C   UNL     1      19.682  49.262  48.900  1.00  0.00     0.005 A 
HETATM   12  N   UNL     1      21.882  49.680  48.801  1.00  0.00    -0.350 N 
HETATM   13  C   UNL     1      22.753  47.325  48.676  1.00  0.00     0.291 A 
HETATM   14  H   UNL     1      22.772  50.162  48.811  1.00  0.00     0.166 HD
HETATM   15  C   UNL     1      20.645  50.277  48.937  1.00  0.00     0.044 A 
HETATM   16  C   UNL     1      20.312  51.625  49.106  1.00  0.00     0.031 A 
HETATM   17  C   UNL     1      18.958  51.947  49.245  1.00  0.00     0.009 A 
HETATM   18  C   UNL     1      17.964  50.964  49.197  1.00  0.00    -0.061 A 
HETATM   19  C   UNL     1      16.521  51.335  49.391  1.00  0.00     0.048 C 
HETATM   20  C   UNL     1      18.323  49.616  49.032  1.00  0.00     0.021 A 
HETATM   21  O   UNL     1      23.945  47.608  48.680  1.00  0.00    -0.264 OA
ENDBRANCH   5   6
ENDBRANCH   2   5
BRANCH   1  22
HETATM   22  C   UNL     1      25.577  45.790  51.766  1.00  0.00     0.035 A 
HETATM   23  C   UNL     1      26.600  44.872  52.024  1.00  0.00     0.044 A 
HETATM   24  C   UNL     1      27.425  45.017  53.165  1.00  0.00     0.005 A 
HETATM   25  C   UNL     1      27.191  46.078  54.038  1.00  0.00     0.046 A 
HETATM   26  C   UNL     1      28.536  44.274  53.670  1.00  0.00     0.003 A 
HETATM   27  N   UNL     1      28.123  45.974  55.054  1.00  0.00    -0.346 N 
HETATM   28  C   UNL     1      26.162  47.006  53.806  1.00  0.00     0.033 A 
HETATM   29  C   UNL     1      28.955  44.888  54.851  1.00  0.00     0.046 A 
HETATM   30  C   UNL     1      30.034  44.391  55.601  1.00  0.00     0.030 A 
HETATM   31  C   UNL     1      30.700  43.254  55.131  1.00  0.00     0.002 A 
HETATM   32  C   UNL     1      30.303  42.630  53.954  1.00  0.00     0.001 A 
HETATM   33  C   UNL     1      29.224  43.127  53.217  1.00  0.00     0.014 A 
HETATM   34  C   UNL     1      25.373  46.845  52.658  1.00  0.00     0.032 A 
BRANCH  27  35
HETATM   35  C   UNL     1      28.226  46.887  56.183  1.00  0.00     0.125 C 
HETATM   36  C   UNL     1      28.367  46.150  57.503  1.00  0.00     0.027 C 
ENDBRANCH  27  35
ENDBRANCH   1  22
TORSDOF 4
ENDMDL
MODEL 6
REMARK VINA RESULT:     -10.2      2.995      4.579
REMARK  4 active torsions:
REMARK  status: ('A' for Active; 'I' for Inactive)
REMARK    1  A    between atoms: C_2  and  N_3 
REMARK    2  A    between atoms: C_7  and  N_8 
REMARK       I    between atoms: N_8  and  C_9 
REMARK    3  A    between atoms: C_9  and  C_10 
REMARK    4  A    between atoms: C_10  and  N_11 
ROOT
HETATM    1  N   UNL     1      21.447  47.711  49.203  1.00  0.00    -0.326 N 
HETATM    2  C   UNL     1      22.761  47.657  48.784  1.00  0.00     0.242 C 
HETATM    3  O   UNL     1      23.348  48.523  48.138  1.00  0.00    -0.271 OA
HETATM    4  H   UNL     1      21.133  46.885  49.710  1.00  0.00     0.169 HD
ENDROOT
BRANCH   2   5
HETATM    5  C   UNL     1      23.455  46.321  49.056  1.00  0.00     0.257 C 
BRANCH   5   6
HETATM    6  N   UNL     1      24.564  46.310  50.012  1.00  0.00    -0.224 N 
HETATM    7  N   UNL     1      24.577  47.337  50.984  1.00  0.00    -0.180 NA
HETATM    8  C   UNL     1      25.368  47.239  52.017  1.00  0.00     0.153 A 
HETATM    9  C   UNL     1      26.218  46.097  52.192  1.00  0.00     0.028 A 
HETATM   10  C   UNL     1      26.223  45.126  51.225  1.00  0.00     0.116 A 
HETATM   11  C   UNL     1      27.088  45.683  53.234  1.00  0.00     0.005 A 
HETATM   12  N   UNL     1      27.082  44.138  51.610  1.00  0.00    -0.350 N 
HETATM   13  C   UNL     1      25.392  45.166  50.057  1.00  0.00     0.291 A 
HETATM   14  H   UNL     1      27.261  43.290  51.086  1.00  0.00     0.166 HD
HETATM   15  C   UNL     1      27.605  44.440  52.851  1.00  0.00     0.044 A 
HETATM   16  C   UNL     1      28.476  43.704  53.661  1.00  0.00     0.031 A 
HETATM   17  C   UNL     1      28.827  44.250  54.900  1.00  0.00     0.009 A 
HETATM   18  C   UNL     1      28.345  45.497  55.313  1.00  0.00    -0.061 A 
HETATM   19  C   UNL     1      28.705  46.038  56.668  1.00  0.00     0.048 C 
HETATM   20  C   UNL     1      27.466  46.215  54.484  1.00  0.00     0.021 A 
HETATM   21  O   UNL     1      25.388  44.266  49.227  1.00  0.00    -0.264 OA
ENDBRANCH   5   6
ENDBRANCH   2   5
BRANCH   1  22
HETATM   22  C   UNL     1      20.502  48.731  48.963  1.00  0.00     0.035 A 
HETATM   23  C   UNL     1      20.106  49.130  47.682  1.00  0.00     0.044 A 
HETATM   24  C   UNL     1      19.127  50.138  47.515  1.00  0.00     0.005 A 
HETATM   25  C   UNL     1      18.575  50.739  48.645  1.00  0.00     0.046 A 
HETATM   26  C   UNL     1      18.515  50.727  46.365  1.00  0.00     0.003 A 
HETATM   27  N   UNL     1      17.666  51.679  48.195  1.00  0.00    -0.346 N 
HETATM   28  C   UNL     1      18.966  50.363  49.940  1.00  0.00     0.033 A 
HETATM   29  C   UNL     1      17.608  51.688  46.813  1.00  0.00     0.046 A 
HETATM   30  C   UNL     1      16.842  52.456  45.920  1.00  0.00     0.030 A 
HETATM   31  C   UNL     1      17.001  52.231  44.548  1.00  0.00     0.002 A 
HETATM   32  C   UNL     1      17.895  51.275  44.080  1.00  0.00     0.001 A 
HETATM   33  C   UNL     1      18.658  50.520  44.976  1.00  0.00     0.014 A 
HETATM   34  C   UNL     1      19.926  49.349  50.074  1.00  0.00     0.032 A 
BRANCH  27  35
HETATM   35  C   UNL     1      16.868  52.540  49.055  1.00  0.00     0.125 C 
HETATM   36  C   UNL     1      15.504  51.944  49.354  1.00  0.00     0.027 C 
ENDBRANCH  27  35
ENDBRANCH   1  22
TORSDOF 4
ENDMDL
MODEL 7
REMARK VINA RESULT:     -10.0      5.264      9.864
REMARK  4 active torsions:
REMARK  status: ('A' for Active; 'I' for Inactive)
REMARK    1  A    between atoms: C_2  and  N_3 
REMARK    2  A    between atoms: C_7  and  N_8 
REMARK       I    between atoms: N_8  and  C_9 
REMARK    3  A    between atoms: C_9  and  C_10 
REMARK    4  A    between atoms: C_10  and  N_11 
ROOT
HETATM    1  N   UNL     1      29.142  41.481  51.818  1.00  0.00    -0.326 N 
HETATM    2  C   UNL     1      28.041  40.781  51.364  1.00  0.00     0.242 C 
HETATM    3  O   UNL     1      26.874  40.976  51.699  1.00  0.00    -0.271 OA
HETATM    4  H   UNL     1      30.031  41.157  51.440  1.00  0.00     0.169 HD
ENDROOT
BRANCH   2   5
HETATM    5  C   UNL     1      28.380  39.580  50.477  1.00  0.00     0.257 C 
BRANCH   5   6
HETATM    6  N   UNL     1      28.056  39.672  49.053  1.00  0.00    -0.224 N 
HETATM    7  N   UNL     1      27.897  40.971  48.518  1.00  0.00    -0.180 NA
HETATM    8  C   UNL     1      27.875  41.139  47.224  1.00  0.00     0.153 A 
HETATM    9  C   UNL     1      28.023  40.027  46.331  1.00  0.00     0.028 A 
HETATM   10  C   UNL     1      28.141  38.768  46.861  1.00  0.00     0.116 A 
HETATM   11  C   UNL     1      28.133  39.920  44.920  1.00  0.00     0.005 A 
HETATM   12  N   UNL     1      28.290  37.880  45.836  1.00  0.00    -0.350 N 
HETATM   13  C   UNL     1      28.162  38.501  48.269  1.00  0.00     0.291 A 
HETATM   14  H   UNL     1      28.416  36.882  45.949  1.00  0.00     0.166 HD
HETATM   15  C   UNL     1      28.316  38.562  44.636  1.00  0.00     0.044 A 
HETATM   16  C   UNL     1      28.504  38.083  43.335  1.00  0.00     0.031 A 
HETATM   17  C   UNL     1      28.509  39.017  42.294  1.00  0.00     0.009 A 
HETATM   18  C   UNL     1      28.312  40.381  42.534  1.00  0.00    -0.061 A 
HETATM   19  C   UNL     1      28.365  41.365  41.400  1.00  0.00     0.048 C 
HETATM   20  C   UNL     1      28.131  40.839  43.850  1.00  0.00     0.021 A 
HETATM   21  O   UNL     1      28.306  37.370  48.718  1.00  0.00    -0.264 OA
ENDBRANCH   5   6
ENDBRANCH   2   5
BRANCH   1  22
HETATM   22  C   UNL     1      29.173  42.526  52.764  1.00  0.00     0.035 A 
HETATM   23  C   UNL     1      28.252  43.579  52.782  1.00  0.00     0.044 A 
HETATM   24  C   UNL     1      28.323  44.578  53.782  1.00  0.00     0.005 A 
HETATM   25  C   UNL     1      29.334  44.507  54.739  1.00  0.00     0.046 A 
HETATM   26  C   UNL     1      27.532  45.733  54.069  1.00  0.00     0.003 A 
HETATM   27  N   UNL     1      29.173  45.597  55.573  1.00  0.00    -0.346 N 
HETATM   28  C   UNL     1      30.277  43.466  54.734  1.00  0.00     0.033 A 
HETATM   29  C   UNL     1      28.081  46.356  55.190  1.00  0.00     0.046 A 
HETATM   30  C   UNL     1      27.532  47.533  55.727  1.00  0.00     0.030 A 
HETATM   31  C   UNL     1      26.399  48.075  55.112  1.00  0.00     0.002 A 
HETATM   32  C   UNL     1      25.832  47.469  53.997  1.00  0.00     0.001 A 
HETATM   33  C   UNL     1      26.388  46.301  53.465  1.00  0.00     0.014 A 
HETATM   34  C   UNL     1      30.171  42.481  53.740  1.00  0.00     0.032 A 
BRANCH  27  35
HETATM   35  C   UNL     1      30.027  45.906  56.711  1.00  0.00     0.125 C 
HETATM   36  C   UNL     1      29.349  45.603  58.035  1.00  0.00     0.027 C 
ENDBRANCH  27  35
ENDBRANCH   1  22
TORSDOF 4
ENDMDL
MODEL 8
REMARK VINA RESULT:      -9.9      5.302      8.389
REMARK  4 active torsions:
REMARK  status: ('A' for Active; 'I' for Inactive)
REMARK    1  A    between atoms: C_2  and  N_3 
REMARK    2  A    between atoms: C_7  and  N_8 
REMARK       I    between atoms: N_8  and  C_9 
REMARK    3  A    between atoms: C_9  and  C_10 
REMARK    4  A    between atoms: C_10  and  N_11 
ROOT
HETATM    1  N   UNL     1      27.189  41.845  48.547  1.00  0.00    -0.326 N 
HETATM    2  C   UNL     1      25.997  42.031  49.219  1.00  0.00     0.242 C 
HETATM    3  O   UNL     1      24.989  41.336  49.104  1.00  0.00    -0.271 OA
HETATM    4  H   UNL     1      27.904  42.540  48.759  1.00  0.00     0.169 HD
ENDROOT
BRANCH   2   5
HETATM    5  C   UNL     1      25.938  43.310  50.057  1.00  0.00     0.257 C 
BRANCH   5   6
HETATM    6  N   UNL     1      26.598  43.299  51.364  1.00  0.00    -0.224 N 
HETATM    7  N   UNL     1      27.445  42.201  51.641  1.00  0.00    -0.180 NA
HETATM    8  C   UNL     1      28.262  42.256  52.656  1.00  0.00     0.153 A 
HETATM    9  C   UNL     1      28.328  43.421  53.491  1.00  0.00     0.028 A 
HETATM   10  C   UNL     1      27.477  44.464  53.234  1.00  0.00     0.116 A 
HETATM   11  C   UNL     1      29.164  43.794  54.576  1.00  0.00     0.005 A 
HETATM   12  N   UNL     1      27.730  45.459  54.133  1.00  0.00    -0.350 N 
HETATM   13  C   UNL     1      26.544  44.475  52.146  1.00  0.00     0.291 A 
HETATM   14  H   UNL     1      27.255  46.353  54.156  1.00  0.00     0.166 HD
HETATM   15  C   UNL     1      28.778  45.086  54.950  1.00  0.00     0.044 A 
HETATM   16  C   UNL     1      29.418  45.798  55.971  1.00  0.00     0.031 A 
HETATM   17  C   UNL     1      30.484  45.174  56.627  1.00  0.00     0.009 A 
HETATM   18  C   UNL     1      30.889  43.877  56.294  1.00  0.00    -0.061 A 
HETATM   19  C   UNL     1      32.065  43.250  56.988  1.00  0.00     0.048 C 
HETATM   20  C   UNL     1      30.235  43.185  55.261  1.00  0.00     0.021 A 
HETATM   21  O   UNL     1      25.820  45.436  51.915  1.00  0.00    -0.264 OA
ENDBRANCH   5   6
ENDBRANCH   2   5
BRANCH   1  22
HETATM   22  C   UNL     1      27.497  40.861  47.584  1.00  0.00     0.035 A 
HETATM   23  C   UNL     1      27.758  41.151  46.241  1.00  0.00     0.044 A 
HETATM   24  C   UNL     1      28.094  40.117  45.336  1.00  0.00     0.005 A 
HETATM   25  C   UNL     1      28.146  38.803  45.798  1.00  0.00     0.046 A 
HETATM   26  C   UNL     1      28.428  40.103  43.946  1.00  0.00     0.003 A 
HETATM   27  N   UNL     1      28.484  38.010  44.718  1.00  0.00    -0.346 N 
HETATM   28  C   UNL     1      27.877  38.487  47.140  1.00  0.00     0.033 A 
HETATM   29  C   UNL     1      28.666  38.777  43.581  1.00  0.00     0.046 A 
HETATM   30  C   UNL     1      29.014  38.423  42.266  1.00  0.00     0.030 A 
HETATM   31  C   UNL     1      29.128  39.441  41.314  1.00  0.00     0.002 A 
HETATM   32  C   UNL     1      28.901  40.769  41.657  1.00  0.00     0.001 A 
HETATM   33  C   UNL     1      28.549  41.112  42.966  1.00  0.00     0.014 A 
HETATM   34  C   UNL     1      27.563  39.536  48.017  1.00  0.00     0.032 A 
BRANCH  27  35
HETATM   35  C   UNL     1      28.641  36.564  44.765  1.00  0.00     0.125 C 
HETATM   36  C   UNL     1      30.097  36.149  44.879  1.00  0.00     0.027 C 
ENDBRANCH  27  35
ENDBRANCH   1  22
TORSDOF 4
ENDMDL
MODEL 9
REMARK VINA RESULT:      -9.4      3.127     10.249
REMARK  4 active torsions:
REMARK  status: ('A' for Active; 'I' for Inactive)
REMARK    1  A    between atoms: C_2  and  N_3 
REMARK    2  A    between atoms: C_7  and  N_8 
REMARK       I    between atoms: N_8  and  C_9 
REMARK    3  A    between atoms: C_9  and  C_10 
REMARK    4  A    between atoms: C_10  and  N_11 
ROOT
HETATM    1  N   UNL     1      25.723  42.419  51.224  1.00  0.00    -0.326 N 
HETATM    2  C   UNL     1      26.108  42.088  49.940  1.00  0.00     0.242 C 
HETATM    3  O   UNL     1      27.080  42.542  49.339  1.00  0.00    -0.271 OA
HETATM    4  H   UNL     1      24.875  41.952  51.543  1.00  0.00     0.169 HD
ENDROOT
BRANCH   2   5
HETATM    5  C   UNL     1      25.123  41.179  49.201  1.00  0.00     0.257 C 
BRANCH   5   6
HETATM    6  N   UNL     1      23.895  41.784  48.684  1.00  0.00    -0.224 N 
HETATM    7  N   UNL     1      23.527  43.039  49.222  1.00  0.00    -0.180 NA
HETATM    8  C   UNL     1      22.609  43.752  48.628  1.00  0.00     0.153 A 
HETATM    9  C   UNL     1      21.973  43.290  47.429  1.00  0.00     0.028 A 
HETATM   10  C   UNL     1      22.313  42.056  46.938  1.00  0.00     0.116 A 
HETATM   11  C   UNL     1      21.038  43.875  46.536  1.00  0.00     0.005 A 
HETATM   12  N   UNL     1      21.604  41.838  45.792  1.00  0.00    -0.350 N 
HETATM   13  C   UNL     1      23.302  41.210  47.537  1.00  0.00     0.291 A 
HETATM   14  H   UNL     1      21.678  41.010  45.215  1.00  0.00     0.166 HD
HETATM   15  C   UNL     1      20.836  42.949  45.506  1.00  0.00     0.044 A 
HETATM   16  C   UNL     1      19.998  43.205  44.416  1.00  0.00     0.031 A 
HETATM   17  C   UNL     1      19.351  44.444  44.372  1.00  0.00     0.009 A 
HETATM   18  C   UNL     1      19.513  45.391  45.389  1.00  0.00    -0.061 A 
HETATM   19  C   UNL     1      18.838  46.729  45.293  1.00  0.00     0.048 C 
HETATM   20  C   UNL     1      20.364  45.112  46.472  1.00  0.00     0.021 A 
HETATM   21  O   UNL     1      23.613  40.127  47.057  1.00  0.00    -0.264 OA
ENDBRANCH   5   6
ENDBRANCH   2   5
BRANCH   1  22
HETATM   22  C   UNL     1      26.325  43.349  52.097  1.00  0.00     0.035 A 
HETATM   23  C   UNL     1      27.398  43.035  52.939  1.00  0.00     0.044 A 
HETATM   24  C   UNL     1      27.976  44.027  53.765  1.00  0.00     0.005 A 
HETATM   25  C   UNL     1      27.451  45.318  53.741  1.00  0.00     0.046 A 
HETATM   26  C   UNL     1      29.067  44.017  54.690  1.00  0.00     0.003 A 
HETATM   27  N   UNL     1      28.190  46.068  54.637  1.00  0.00    -0.346 N 
HETATM   28  C   UNL     1      26.368  45.654  52.913  1.00  0.00     0.033 A 
HETATM   29  C   UNL     1      29.181  45.301  55.224  1.00  0.00     0.046 A 
HETATM   30  C   UNL     1      30.163  45.621  56.176  1.00  0.00     0.030 A 
HETATM   31  C   UNL     1      31.046  44.615  56.581  1.00  0.00     0.002 A 
HETATM   32  C   UNL     1      30.954  43.331  56.058  1.00  0.00     0.001 A 
HETATM   33  C   UNL     1      29.969  43.019  55.116  1.00  0.00     0.014 A 
HETATM   34  C   UNL     1      25.827  44.653  52.092  1.00  0.00     0.032 A 
BRANCH  27  35
HETATM   35  C   UNL     1      27.967  47.477  54.923  1.00  0.00     0.125 C 
HETATM   36  C   UNL     1      26.777  47.694  55.841  1.00  0.00     0.027 C 
ENDBRANCH  27  35
ENDBRANCH   1  22
TORSDOF 4
ENDMDL
MODEL 10
REMARK VINA RESULT:      -9.4      5.127      8.858
REMARK  4 active torsions:
REMARK  status: ('A' for Active; 'I' for Inactive)
REMARK    1  A    between atoms: C_2  and  N_3 
REMARK    2  A    between atoms: C_7  and  N_8 
REMARK       I    between atoms: N_8  and  C_9 
REMARK    3  A    between atoms: C_9  and  C_10 
REMARK    4  A    between atoms: C_10  and  N_11 
ROOT
HETATM    1  N   UNL     1      27.148  41.659  48.537  1.00  0.00    -0.326 N 
HETATM    2  C   UNL     1      25.988  41.897  49.248  1.00  0.00     0.242 C 
HETATM    3  O   UNL     1      24.963  41.219  49.204  1.00  0.00    -0.271 OA
HETATM    4  H   UNL     1      27.884  42.347  48.690  1.00  0.00     0.169 HD
ENDROOT
BRANCH   2   5
HETATM    5  C   UNL     1      25.988  43.211  50.032  1.00  0.00     0.257 C 
BRANCH   5   6
HETATM    6  N   UNL     1      26.636  43.221  51.345  1.00  0.00    -0.224 N 
HETATM    7  N   UNL     1      27.475  42.125  51.650  1.00  0.00    -0.180 NA
HETATM    8  C   UNL     1      28.283  42.195  52.672  1.00  0.00     0.153 A 
HETATM    9  C   UNL     1      28.345  43.373  53.487  1.00  0.00     0.028 A 
HETATM   10  C   UNL     1      27.501  44.415  53.203  1.00  0.00     0.116 A 
HETATM   11  C   UNL     1      29.172  43.762  54.573  1.00  0.00     0.005 A 
HETATM   12  N   UNL     1      27.750  45.425  54.087  1.00  0.00    -0.350 N 
HETATM   13  C   UNL     1      26.579  44.410  52.106  1.00  0.00     0.291 A 
HETATM   14  H   UNL     1      27.278  46.320  54.089  1.00  0.00     0.166 HD
HETATM   15  C   UNL     1      28.788  45.063  54.920  1.00  0.00     0.044 A 
HETATM   16  C   UNL     1      29.421  45.789  55.935  1.00  0.00     0.031 A 
HETATM   17  C   UNL     1      30.478  45.173  56.612  1.00  0.00     0.009 A 
HETATM   18  C   UNL     1      30.882  43.869  56.306  1.00  0.00    -0.061 A 
HETATM   19  C   UNL     1      32.048  43.250  57.022  1.00  0.00     0.048 C 
HETATM   20  C   UNL     1      30.234  43.161  55.279  1.00  0.00     0.021 A 
HETATM   21  O   UNL     1      25.861  45.370  51.852  1.00  0.00    -0.264 OA
ENDBRANCH   5   6
ENDBRANCH   2   5
BRANCH   1  22
HETATM   22  C   UNL     1      27.397  40.629  47.606  1.00  0.00     0.035 A 
HETATM   23  C   UNL     1      27.118  39.281  47.853  1.00  0.00     0.044 A 
HETATM   24  C   UNL     1      27.362  38.303  46.860  1.00  0.00     0.005 A 
HETATM   25  C   UNL     1      27.902  38.700  45.638  1.00  0.00     0.046 A 
HETATM   26  C   UNL     1      27.163  36.888  46.809  1.00  0.00     0.003 A 
HETATM   27  N   UNL     1      28.043  37.558  44.872  1.00  0.00    -0.346 N 
HETATM   28  C   UNL     1      28.202  40.046  45.372  1.00  0.00     0.033 A 
HETATM   29  C   UNL     1      27.596  36.444  45.559  1.00  0.00     0.046 A 
HETATM   30  C   UNL     1      27.539  35.088  45.195  1.00  0.00     0.030 A 
HETATM   31  C   UNL     1      27.022  34.175  46.120  1.00  0.00     0.002 A 
HETATM   32  C   UNL     1      26.579  34.597  47.369  1.00  0.00     0.001 A 
HETATM   33  C   UNL     1      26.646  35.947  47.726  1.00  0.00     0.014 A 
HETATM   34  C   UNL     1      27.932  40.995  46.369  1.00  0.00     0.032 A 
BRANCH  27  35
HETATM   35  C   UNL     1      28.579  37.526  43.519  1.00  0.00     0.125 C 
HETATM   36  C   UNL     1      27.486  37.606  42.468  1.00  0.00     0.027 C 
ENDBRANCH  27  35
ENDBRANCH   1  22
TORSDOF 4
ENDMDL
