MODEL 1
REMARK VINA RESULT:      -9.6      0.000      0.000
REMARK  3 active torsions:
REMARK  status: ('A' for Active; 'I' for Inactive)
REMARK    1  A    between atoms: C_8  and  C_9 
REMARK    2  A    between atoms: C_12  and  C_13 
REMARK    3  A    between atoms: C_24  and  N_25 
ROOT
HETATM    1  C   UNL     1      25.508  47.162  53.090  1.00  0.00     0.073 C 
HETATM    2  C   UNL     1      25.823  46.761  51.697  1.00  0.00     0.062 A 
HETATM    3  N   UNL     1      25.928  47.691  50.733  1.00  0.00    -0.177 NA
HETATM    4  N   UNL     1      26.225  46.986  49.622  1.00  0.00    -0.256 N 
HETATM    5  H   UNL     1      26.346  47.481  48.746  1.00  0.00     0.191 HD
HETATM    6  C   UNL     1      26.311  45.652  49.854  1.00  0.00     0.175 A 
HETATM    7  C   UNL     1      26.065  45.462  51.188  1.00  0.00     0.034 A 
HETATM    8  C   UNL     1      26.070  44.086  51.757  1.00  0.00     0.105 A 
HETATM    9  C   UNL     1      26.346  43.054  50.661  1.00  0.00     0.080 A 
HETATM   10  C   UNL     1      26.305  41.685  51.053  1.00  0.00     0.100 C 
HETATM   11  N   UNL     1      26.275  40.568  51.368  1.00  0.00    -0.191 NA
HETATM   12  C   UNL     1      26.572  43.397  49.362  1.00  0.00     0.140 A 
HETATM   13  O   UNL     1      26.580  44.736  48.932  1.00  0.00    -0.279 OA
ENDROOT
BRANCH   8  14
HETATM   14  C   UNL     1      27.114  44.097  52.866  1.00  0.00    -0.044 A 
HETATM   15  C   UNL     1      26.718  44.367  54.185  1.00  0.00     0.009 A 
HETATM   16  C   UNL     1      27.658  44.414  55.219  1.00  0.00     0.013 A 
HETATM   17  C   UNL     1      29.022  44.187  54.974  1.00  0.00    -0.026 A 
HETATM   18  C   UNL     1      29.410  43.894  53.659  1.00  0.00     0.013 A 
HETATM   19  C   UNL     1      28.474  43.846  52.619  1.00  0.00     0.009 A 
BRANCH  17  20
HETATM   20  C   UNL     1      30.014  44.270  56.062  1.00  0.00    -0.026 A 
HETATM   21  C   UNL     1      31.064  43.342  56.162  1.00  0.00     0.012 A 
HETATM   22  C   UNL     1      31.995  43.415  57.202  1.00  0.00     0.001 A 
HETATM   23  C   UNL     1      31.892  44.418  58.162  1.00  0.00     0.000 A 
HETATM   24  C   UNL     1      30.861  45.349  58.081  1.00  0.00     0.001 A 
HETATM   25  C   UNL     1      29.930  45.275  57.041  1.00  0.00     0.012 A 
ENDBRANCH  17  20
ENDBRANCH   8  14
BRANCH  12  26
HETATM   26  N   UNL     1      26.811  42.512  48.334  1.00  0.00    -0.282 NA
HETATM   27  H   UNL     1      26.885  42.924  47.407  1.00  0.00     0.126 HD
HETATM   28  H   UNL     1      26.187  41.709  48.367  1.00  0.00     0.126 HD
ENDBRANCH  12  26
TORSDOF 3
ENDMDL
MODEL 2
REMARK VINA RESULT:      -9.4      2.984      7.171
REMARK  3 active torsions:
REMARK  status: ('A' for Active; 'I' for Inactive)
REMARK    1  A    between atoms: C_8  and  C_9 
REMARK    2  A    between atoms: C_12  and  C_13 
REMARK    3  A    between atoms: C_24  and  N_25 
ROOT
HETATM    1  C   UNL     1      25.334  41.812  50.563  1.00  0.00     0.073 C 
HETATM    2  C   UNL     1      26.726  41.596  51.027  1.00  0.00     0.062 A 
HETATM    3  N   UNL     1      27.483  40.633  50.473  1.00  0.00    -0.177 NA
HETATM    4  N   UNL     1      28.664  40.726  51.117  1.00  0.00    -0.256 N 
HETATM    5  H   UNL     1      29.407  40.082  50.871  1.00  0.00     0.191 HD
HETATM    6  C   UNL     1      28.676  41.709  52.052  1.00  0.00     0.175 A 
HETATM    7  C   UNL     1      27.442  42.303  52.023  1.00  0.00     0.034 A 
HETATM    8  C   UNL     1      27.132  43.421  52.956  1.00  0.00     0.105 A 
HETATM    9  C   UNL     1      28.330  43.708  53.864  1.00  0.00     0.080 A 
HETATM   10  C   UNL     1      28.146  44.709  54.862  1.00  0.00     0.100 C 
HETATM   11  N   UNL     1      28.001  45.525  55.675  1.00  0.00    -0.191 NA
HETATM   12  C   UNL     1      29.505  43.024  53.778  1.00  0.00     0.140 A 
HETATM   13  O   UNL     1      29.708  42.003  52.831  1.00  0.00    -0.279 OA
ENDROOT
BRANCH   8  14
HETATM   14  C   UNL     1      26.733  44.599  52.078  1.00  0.00    -0.044 A 
HETATM   15  C   UNL     1      27.350  44.772  50.830  1.00  0.00     0.009 A 
HETATM   16  C   UNL     1      27.026  45.861  50.015  1.00  0.00     0.013 A 
HETATM   17  C   UNL     1      26.071  46.810  50.414  1.00  0.00    -0.026 A 
HETATM   18  C   UNL     1      25.439  46.620  51.651  1.00  0.00     0.013 A 
HETATM   19  C   UNL     1      25.760  45.533  52.472  1.00  0.00     0.009 A 
BRANCH  17  20
HETATM   20  C   UNL     1      25.756  47.974  49.566  1.00  0.00    -0.026 A 
HETATM   21  C   UNL     1      26.775  48.782  49.032  1.00  0.00     0.012 A 
HETATM   22  C   UNL     1      26.472  49.894  48.240  1.00  0.00     0.001 A 
HETATM   23  C   UNL     1      25.146  50.218  47.968  1.00  0.00     0.000 A 
HETATM   24  C   UNL     1      24.122  49.429  48.485  1.00  0.00     0.001 A 
HETATM   25  C   UNL     1      24.425  48.319  49.277  1.00  0.00     0.012 A 
ENDBRANCH  17  20
ENDBRANCH   8  14
BRANCH  12  26
HETATM   26  N   UNL     1      30.609  43.230  54.576  1.00  0.00    -0.282 NA
HETATM   27  H   UNL     1      30.598  44.081  55.133  1.00  0.00     0.126 HD
HETATM   28  H   UNL     1      31.480  43.094  54.068  1.00  0.00     0.126 HD
ENDBRANCH  12  26
TORSDOF 3
ENDMDL
MODEL 3
REMARK VINA RESULT:      -9.3      1.360      3.753
REMARK  3 active torsions:
REMARK  status: ('A' for Active; 'I' for Inactive)
REMARK    1  A    between atoms: C_8  and  C_9 
REMARK    2  A    between atoms: C_12  and  C_13 
REMARK    3  A    between atoms: C_24  and  N_25 
ROOT
HETATM    1  C   UNL     1      28.554  40.677  50.841  1.00  0.00     0.073 C 
HETATM    2  C   UNL     1      27.127  41.059  50.714  1.00  0.00     0.062 A 
HETATM    3  N   UNL     1      26.178  40.112  50.626  1.00  0.00    -0.177 NA
HETATM    4  N   UNL     1      25.024  40.804  50.532  1.00  0.00    -0.256 N 
HETATM    5  H   UNL     1      24.152  40.293  50.446  1.00  0.00     0.191 HD
HETATM    6  C   UNL     1      25.214  42.147  50.560  1.00  0.00     0.175 A 
HETATM    7  C   UNL     1      26.562  42.357  50.683  1.00  0.00     0.034 A 
HETATM    8  C   UNL     1      27.098  43.745  50.724  1.00  0.00     0.105 A 
HETATM    9  C   UNL     1      25.963  44.762  50.585  1.00  0.00     0.080 A 
HETATM   10  C   UNL     1      26.342  46.135  50.533  1.00  0.00     0.100 C 
HETATM   11  N   UNL     1      26.646  47.254  50.493  1.00  0.00    -0.191 NA
HETATM   12  C   UNL     1      24.655  44.400  50.466  1.00  0.00     0.140 A 
HETATM   13  O   UNL     1      24.249  43.053  50.474  1.00  0.00    -0.279 OA
ENDROOT
BRANCH   8  14
HETATM   14  C   UNL     1      27.865  43.858  52.035  1.00  0.00    -0.044 A 
HETATM   15  C   UNL     1      27.246  44.445  53.149  1.00  0.00     0.009 A 
HETATM   16  C   UNL     1      27.936  44.591  54.357  1.00  0.00     0.013 A 
HETATM   17  C   UNL     1      29.261  44.149  54.497  1.00  0.00    -0.026 A 
HETATM   18  C   UNL     1      29.867  43.541  53.388  1.00  0.00     0.013 A 
HETATM   19  C   UNL     1      29.183  43.394  52.176  1.00  0.00     0.009 A 
BRANCH  17  20
HETATM   20  C   UNL     1      29.995  44.334  55.762  1.00  0.00    -0.026 A 
HETATM   21  C   UNL     1      29.748  45.442  56.592  1.00  0.00     0.012 A 
HETATM   22  C   UNL     1      30.456  45.621  57.784  1.00  0.00     0.001 A 
HETATM   23  C   UNL     1      31.422  44.696  58.168  1.00  0.00     0.000 A 
HETATM   24  C   UNL     1      31.680  43.590  57.363  1.00  0.00     0.001 A 
HETATM   25  C   UNL     1      30.973  43.412  56.171  1.00  0.00     0.012 A 
ENDBRANCH  17  20
ENDBRANCH   8  14
BRANCH  12  26
HETATM   26  N   UNL     1      23.596  45.269  50.325  1.00  0.00    -0.282 NA
HETATM   27  H   UNL     1      23.650  45.904  49.532  1.00  0.00     0.126 HD
HETATM   28  H   UNL     1      23.365  45.737  51.198  1.00  0.00     0.126 HD
ENDBRANCH  12  26
TORSDOF 3
ENDMDL
MODEL 4
REMARK VINA RESULT:      -9.2      2.116      2.616
REMARK  3 active torsions:
REMARK  status: ('A' for Active; 'I' for Inactive)
REMARK    1  A    between atoms: C_8  and  C_9 
REMARK    2  A    between atoms: C_12  and  C_13 
REMARK    3  A    between atoms: C_24  and  N_25 
ROOT
HETATM    1  C   UNL     1      24.775  43.570  52.176  1.00  0.00     0.073 C 
HETATM    2  C   UNL     1      25.317  43.389  50.807  1.00  0.00     0.062 A 
HETATM    3  N   UNL     1      24.912  44.190  49.807  1.00  0.00    -0.177 NA
HETATM    4  N   UNL     1      25.601  43.755  48.732  1.00  0.00    -0.256 N 
HETATM    5  H   UNL     1      25.453  44.210  47.839  1.00  0.00     0.191 HD
HETATM    6  C   UNL     1      26.422  42.714  49.021  1.00  0.00     0.175 A 
HETATM    7  C   UNL     1      26.275  42.448  50.357  1.00  0.00     0.034 A 
HETATM    8  C   UNL     1      27.040  41.335  50.983  1.00  0.00     0.105 A 
HETATM    9  C   UNL     1      27.898  40.620  49.936  1.00  0.00     0.080 A 
HETATM   10  C   UNL     1      28.629  39.481  50.384  1.00  0.00     0.100 C 
HETATM   11  N   UNL     1      29.228  38.555  50.745  1.00  0.00    -0.191 NA
HETATM   12  C   UNL     1      27.941  41.000  48.629  1.00  0.00     0.140 A 
HETATM   13  O   UNL     1      27.201  42.095  48.144  1.00  0.00    -0.279 OA
ENDROOT
BRANCH   8  14
HETATM   14  C   UNL     1      27.847  41.965  52.110  1.00  0.00    -0.044 A 
HETATM   15  C   UNL     1      27.900  41.330  53.361  1.00  0.00     0.009 A 
HETATM   16  C   UNL     1      28.608  41.900  54.424  1.00  0.00     0.013 A 
HETATM   17  C   UNL     1      29.291  43.117  54.274  1.00  0.00    -0.026 A 
HETATM   18  C   UNL     1      29.256  43.736  53.016  1.00  0.00     0.013 A 
HETATM   19  C   UNL     1      28.549  43.171  51.949  1.00  0.00     0.009 A 
BRANCH  17  20
HETATM   20  C   UNL     1      30.009  43.731  55.407  1.00  0.00    -0.026 A 
HETATM   21  C   UNL     1      30.992  43.021  56.116  1.00  0.00     0.012 A 
HETATM   22  C   UNL     1      31.661  43.600  57.199  1.00  0.00     0.001 A 
HETATM   23  C   UNL     1      31.357  44.901  57.591  1.00  0.00     0.000 A 
HETATM   24  C   UNL     1      30.388  45.624  56.900  1.00  0.00     0.001 A 
HETATM   25  C   UNL     1      29.720  45.043  55.819  1.00  0.00     0.012 A 
ENDBRANCH  17  20
ENDBRANCH   8  14
BRANCH  12  26
HETATM   26  N   UNL     1      28.681  40.387  47.643  1.00  0.00    -0.282 NA
HETATM   27  H   UNL     1      28.701  39.370  47.675  1.00  0.00     0.126 HD
HETATM   28  H   UNL     1      29.605  40.802  47.544  1.00  0.00     0.126 HD
ENDBRANCH  12  26
TORSDOF 3
ENDMDL
MODEL 5
REMARK VINA RESULT:      -8.8     12.880     14.326
REMARK  3 active torsions:
REMARK  status: ('A' for Active; 'I' for Inactive)
REMARK    1  A    between atoms: C_8  and  C_9 
REMARK    2  A    between atoms: C_12  and  C_13 
REMARK    3  A    between atoms: C_24  and  N_25 
ROOT
HETATM    1  C   UNL     1      31.249  47.783  39.903  1.00  0.00     0.073 C 
HETATM    2  C   UNL     1      29.988  48.255  40.526  1.00  0.00     0.062 A 
HETATM    3  N   UNL     1      29.125  47.374  41.058  1.00  0.00    -0.177 NA
HETATM    4  N   UNL     1      28.119  48.137  41.532  1.00  0.00    -0.256 N 
HETATM    5  H   UNL     1      27.330  47.685  41.980  1.00  0.00     0.191 HD
HETATM    6  C   UNL     1      28.320  49.462  41.317  1.00  0.00     0.175 A 
HETATM    7  C   UNL     1      29.523  49.585  40.674  1.00  0.00     0.034 A 
HETATM    8  C   UNL     1      30.023  50.930  40.280  1.00  0.00     0.105 A 
HETATM    9  C   UNL     1      29.015  52.012  40.673  1.00  0.00     0.080 A 
HETATM   10  C   UNL     1      29.332  53.347  40.287  1.00  0.00     0.100 C 
HETATM   11  N   UNL     1      29.588  54.436  39.977  1.00  0.00    -0.191 NA
HETATM   12  C   UNL     1      27.845  51.736  41.314  1.00  0.00     0.140 A 
HETATM   13  O   UNL     1      27.481  50.426  41.674  1.00  0.00    -0.279 OA
ENDROOT
BRANCH   8  14
HETATM   14  C   UNL     1      31.381  51.084  40.953  1.00  0.00    -0.044 A 
HETATM   15  C   UNL     1      32.526  51.271  40.163  1.00  0.00     0.009 A 
HETATM   16  C   UNL     1      33.790  51.385  40.750  1.00  0.00     0.013 A 
HETATM   17  C   UNL     1      33.954  51.324  42.143  1.00  0.00    -0.026 A 
HETATM   18  C   UNL     1      32.804  51.161  42.930  1.00  0.00     0.013 A 
HETATM   19  C   UNL     1      31.537  51.046  42.348  1.00  0.00     0.009 A 
BRANCH  17  20
HETATM   20  C   UNL     1      35.292  51.412  42.756  1.00  0.00    -0.026 A 
HETATM   21  C   UNL     1      35.555  52.309  43.805  1.00  0.00     0.012 A 
HETATM   22  C   UNL     1      36.828  52.400  44.375  1.00  0.00     0.001 A 
HETATM   23  C   UNL     1      37.862  51.594  43.905  1.00  0.00     0.000 A 
HETATM   24  C   UNL     1      37.623  50.696  42.869  1.00  0.00     0.001 A 
HETATM   25  C   UNL     1      36.350  50.607  42.299  1.00  0.00     0.012 A 
ENDBRANCH  17  20
ENDBRANCH   8  14
BRANCH  12  26
HETATM   26  N   UNL     1      26.896  52.666  41.678  1.00  0.00    -0.282 NA
HETATM   27  H   UNL     1      26.335  52.427  42.492  1.00  0.00     0.126 HD
HETATM   28  H   UNL     1      26.339  52.976  40.885  1.00  0.00     0.126 HD
ENDBRANCH  12  26
TORSDOF 3
ENDMDL
MODEL 6
REMARK VINA RESULT:      -8.6      7.545     10.318
REMARK  3 active torsions:
REMARK  status: ('A' for Active; 'I' for Inactive)
REMARK    1  A    between atoms: C_8  and  C_9 
REMARK    2  A    between atoms: C_12  and  C_13 
REMARK    3  A    between atoms: C_24  and  N_25 
ROOT
HETATM    1  C   UNL     1      19.009  49.389  51.067  1.00  0.00     0.073 C 
HETATM    2  C   UNL     1      18.313  50.086  49.958  1.00  0.00     0.062 A 
HETATM    3  N   UNL     1      17.581  51.186  50.204  1.00  0.00    -0.177 NA
HETATM    4  N   UNL     1      17.111  51.551  48.993  1.00  0.00    -0.256 N 
HETATM    5  H   UNL     1      16.514  52.367  48.925  1.00  0.00     0.191 HD
HETATM    6  C   UNL     1      17.522  50.723  48.000  1.00  0.00     0.175 A 
HETATM    7  C   UNL     1      18.309  49.763  48.579  1.00  0.00     0.034 A 
HETATM    8  C   UNL     1      18.905  48.684  47.744  1.00  0.00     0.105 A 
HETATM    9  C   UNL     1      18.477  48.841  46.283  1.00  0.00     0.080 A 
HETATM   10  C   UNL     1      18.915  47.829  45.380  1.00  0.00     0.100 C 
HETATM   11  N   UNL     1      19.272  47.009  44.641  1.00  0.00    -0.191 NA
HETATM   12  C   UNL     1      17.679  49.857  45.850  1.00  0.00     0.140 A 
HETATM   13  O   UNL     1      17.196  50.851  46.720  1.00  0.00    -0.279 OA
ENDROOT
BRANCH   8  14
HETATM   14  C   UNL     1      20.410  48.775  47.955  1.00  0.00    -0.044 A 
HETATM   15  C   UNL     1      21.101  47.674  48.482  1.00  0.00     0.009 A 
HETATM   16  C   UNL     1      22.478  47.738  48.717  1.00  0.00     0.013 A 
HETATM   17  C   UNL     1      23.213  48.898  48.426  1.00  0.00    -0.026 A 
HETATM   18  C   UNL     1      22.522  49.988  47.877  1.00  0.00     0.013 A 
HETATM   19  C   UNL     1      21.144  49.931  47.642  1.00  0.00     0.009 A 
BRANCH  17  20
HETATM   20  C   UNL     1      24.659  48.973  48.705  1.00  0.00    -0.026 A 
HETATM   21  C   UNL     1      25.465  49.958  48.110  1.00  0.00     0.012 A 
HETATM   22  C   UNL     1      26.838  50.017  48.366  1.00  0.00     0.001 A 
HETATM   23  C   UNL     1      27.430  49.092  49.221  1.00  0.00     0.000 A 
HETATM   24  C   UNL     1      26.649  48.109  49.823  1.00  0.00     0.001 A 
HETATM   25  C   UNL     1      25.276  48.050  49.567  1.00  0.00     0.012 A 
ENDBRANCH  17  20
ENDBRANCH   8  14
BRANCH  12  26
HETATM   26  N   UNL     1      17.252  50.039  44.553  1.00  0.00    -0.282 NA
HETATM   27  H   UNL     1      17.985  50.205  43.867  1.00  0.00     0.126 HD
HETATM   28  H   UNL     1      16.488  50.708  44.492  1.00  0.00     0.126 HD
ENDBRANCH  12  26
TORSDOF 3
ENDMDL
MODEL 7
REMARK VINA RESULT:      -8.3      2.686      3.677
REMARK  3 active torsions:
REMARK  status: ('A' for Active; 'I' for Inactive)
REMARK    1  A    between atoms: C_8  and  C_9 
REMARK    2  A    between atoms: C_12  and  C_13 
REMARK    3  A    between atoms: C_24  and  N_25 
ROOT
HETATM    1  C   UNL     1      23.998  42.624  50.996  1.00  0.00     0.073 C 
HETATM    2  C   UNL     1      24.654  42.345  49.695  1.00  0.00     0.062 A 
HETATM    3  N   UNL     1      24.244  42.975  48.581  1.00  0.00    -0.177 NA
HETATM    4  N   UNL     1      25.050  42.496  47.612  1.00  0.00    -0.256 N 
HETATM    5  H   UNL     1      24.922  42.826  46.661  1.00  0.00     0.191 HD
HETATM    6  C   UNL     1      25.949  41.593  48.076  1.00  0.00     0.175 A 
HETATM    7  C   UNL     1      25.733  41.470  49.423  1.00  0.00     0.034 A 
HETATM    8  C   UNL     1      26.560  40.528  50.226  1.00  0.00     0.105 A 
HETATM    9  C   UNL     1      27.560  39.794  49.330  1.00  0.00     0.080 A 
HETATM   10  C   UNL     1      28.368  38.802  49.958  1.00  0.00     0.100 C 
HETATM   11  N   UNL     1      29.030  37.996  50.466  1.00  0.00    -0.191 NA
HETATM   12  C   UNL     1      27.659  40.022  47.990  1.00  0.00     0.140 A 
HETATM   13  O   UNL     1      26.849  40.965  47.330  1.00  0.00    -0.279 OA
ENDROOT
BRANCH   8  14
HETATM   14  C   UNL     1      27.214  41.370  51.314  1.00  0.00    -0.044 A 
HETATM   15  C   UNL     1      27.644  42.672  51.014  1.00  0.00     0.009 A 
HETATM   16  C   UNL     1      28.276  43.458  51.983  1.00  0.00     0.013 A 
HETATM   17  C   UNL     1      28.494  42.975  53.283  1.00  0.00    -0.026 A 
HETATM   18  C   UNL     1      28.041  41.682  53.585  1.00  0.00     0.013 A 
HETATM   19  C   UNL     1      27.410  40.891  52.619  1.00  0.00     0.009 A 
BRANCH  17  20
HETATM   20  C   UNL     1      29.189  43.795  54.292  1.00  0.00    -0.026 A 
HETATM   21  C   UNL     1      30.364  43.340  54.916  1.00  0.00     0.012 A 
HETATM   22  C   UNL     1      31.013  44.114  55.883  1.00  0.00     0.001 A 
HETATM   23  C   UNL     1      30.500  45.357  56.242  1.00  0.00     0.000 A 
HETATM   24  C   UNL     1      29.339  45.828  55.635  1.00  0.00     0.001 A 
HETATM   25  C   UNL     1      28.690  45.054  54.669  1.00  0.00     0.012 A 
ENDBRANCH  17  20
ENDBRANCH   8  14
BRANCH  12  26
HETATM   26  N   UNL     1      28.528  39.382  47.134  1.00  0.00    -0.282 NA
HETATM   27  H   UNL     1      29.512  39.429  47.389  1.00  0.00     0.126 HD
HETATM   28  H   UNL     1      28.355  39.624  46.161  1.00  0.00     0.126 HD
ENDBRANCH  12  26
TORSDOF 3
ENDMDL
MODEL 8
REMARK VINA RESULT:      -8.2     15.109     17.366
REMARK  3 active torsions:
REMARK  status: ('A' for Active; 'I' for Inactive)
REMARK    1  A    between atoms: C_8  and  C_9 
REMARK    2  A    between atoms: C_12  and  C_13 
REMARK    3  A    between atoms: C_24  and  N_25 
ROOT
HETATM    1  C   UNL     1      36.068  45.348  68.265  1.00  0.00     0.073 C 
HETATM    2  C   UNL     1      36.057  44.811  66.882  1.00  0.00     0.062 A 
HETATM    3  N   UNL     1      34.995  44.122  66.432  1.00  0.00    -0.177 NA
HETATM    4  N   UNL     1      35.319  43.802  65.163  1.00  0.00    -0.256 N 
HETATM    5  H   UNL     1      34.661  43.263  64.610  1.00  0.00     0.191 HD
HETATM    6  C   UNL     1      36.542  44.264  64.800  1.00  0.00     0.175 A 
HETATM    7  C   UNL     1      37.053  44.930  65.883  1.00  0.00     0.034 A 
HETATM    8  C   UNL     1      38.407  45.546  65.807  1.00  0.00     0.105 A 
HETATM    9  C   UNL     1      39.039  45.281  64.438  1.00  0.00     0.080 A 
HETATM   10  C   UNL     1      40.372  45.751  64.252  1.00  0.00     0.100 C 
HETATM   11  N   UNL     1      41.456  46.134  64.095  1.00  0.00    -0.191 NA
HETATM   12  C   UNL     1      38.403  44.592  63.450  1.00  0.00     0.140 A 
HETATM   13  O   UNL     1      37.103  44.080  63.613  1.00  0.00    -0.279 OA
ENDROOT
BRANCH   8  14
HETATM   14  C   UNL     1      38.212  47.024  66.116  1.00  0.00    -0.044 A 
HETATM   15  C   UNL     1      38.736  47.556  67.304  1.00  0.00     0.009 A 
HETATM   16  C   UNL     1      38.546  48.903  67.631  1.00  0.00     0.013 A 
HETATM   17  C   UNL     1      37.836  49.764  66.781  1.00  0.00    -0.026 A 
HETATM   18  C   UNL     1      37.334  49.234  65.583  1.00  0.00     0.013 A 
HETATM   19  C   UNL     1      37.519  47.887  65.251  1.00  0.00     0.009 A 
BRANCH  17  20
HETATM   20  C   UNL     1      37.610  51.175  67.144  1.00  0.00    -0.026 A 
HETATM   21  C   UNL     1      37.846  52.211  66.223  1.00  0.00     0.012 A 
HETATM   22  C   UNL     1      37.644  53.549  66.576  1.00  0.00     0.001 A 
HETATM   23  C   UNL     1      37.204  53.875  67.855  1.00  0.00     0.000 A 
HETATM   24  C   UNL     1      36.962  52.865  68.782  1.00  0.00     0.001 A 
HETATM   25  C   UNL     1      37.164  51.528  68.429  1.00  0.00     0.012 A 
ENDBRANCH  17  20
ENDBRANCH   8  14
BRANCH  12  26
HETATM   26  N   UNL     1      38.928  44.312  62.207  1.00  0.00    -0.282 NA
HETATM   27  H   UNL     1      39.165  43.338  62.038  1.00  0.00     0.126 HD
HETATM   28  H   UNL     1      39.673  44.956  61.953  1.00  0.00     0.126 HD
ENDBRANCH  12  26
TORSDOF 3
ENDMDL
MODEL 9
REMARK VINA RESULT:      -8.1     12.645     14.548
REMARK  3 active torsions:
REMARK  status: ('A' for Active; 'I' for Inactive)
REMARK    1  A    between atoms: C_8  and  C_9 
REMARK    2  A    between atoms: C_12  and  C_13 
REMARK    3  A    between atoms: C_24  and  N_25 
ROOT
HETATM    1  C   UNL     1      29.208  52.336  38.493  1.00  0.00     0.073 C 
HETATM    2  C   UNL     1      30.080  52.667  39.647  1.00  0.00     0.062 A 
HETATM    3  N   UNL     1      30.089  53.912  40.152  1.00  0.00    -0.177 NA
HETATM    4  N   UNL     1      30.969  53.851  41.173  1.00  0.00    -0.256 N 
HETATM    5  H   UNL     1      31.153  54.689  41.712  1.00  0.00     0.191 HD
HETATM    6  C   UNL     1      31.509  52.616  41.326  1.00  0.00     0.175 A 
HETATM    7  C   UNL     1      30.956  51.815  40.362  1.00  0.00     0.034 A 
HETATM    8  C   UNL     1      31.364  50.387  40.256  1.00  0.00     0.105 A 
HETATM    9  C   UNL     1      32.426  50.054  41.306  1.00  0.00     0.080 A 
HETATM   10  C   UNL     1      32.965  48.735  41.270  1.00  0.00     0.100 C 
HETATM   11  N   UNL     1      33.404  47.661  41.246  1.00  0.00    -0.191 NA
HETATM   12  C   UNL     1      32.887  50.966  42.208  1.00  0.00     0.140 A 
HETATM   13  O   UNL     1      32.407  52.288  42.246  1.00  0.00    -0.279 OA
ENDROOT
BRANCH   8  14
HETATM   14  C   UNL     1      30.084  49.575  40.399  1.00  0.00    -0.044 A 
HETATM   15  C   UNL     1      29.338  49.666  41.585  1.00  0.00     0.009 A 
HETATM   16  C   UNL     1      28.175  48.909  41.758  1.00  0.00     0.013 A 
HETATM   17  C   UNL     1      27.713  48.044  40.754  1.00  0.00    -0.026 A 
HETATM   18  C   UNL     1      28.448  47.974  39.562  1.00  0.00     0.013 A 
HETATM   19  C   UNL     1      29.614  48.728  39.383  1.00  0.00     0.009 A 
BRANCH  17  20
HETATM   20  C   UNL     1      26.504  47.223  40.954  1.00  0.00    -0.026 A 
HETATM   21  C   UNL     1      25.227  47.722  40.646  1.00  0.00     0.012 A 
HETATM   22  C   UNL     1      24.081  46.947  40.850  1.00  0.00     0.001 A 
HETATM   23  C   UNL     1      24.193  45.658  41.366  1.00  0.00     0.000 A 
HETATM   24  C   UNL     1      25.449  45.144  41.675  1.00  0.00     0.001 A 
HETATM   25  C   UNL     1      26.593  45.920  41.472  1.00  0.00     0.012 A 
ENDBRANCH  17  20
ENDBRANCH   8  14
BRANCH  12  26
HETATM   26  N   UNL     1      33.849  50.726  43.164  1.00  0.00    -0.282 NA
HETATM   27  H   UNL     1      34.421  51.526  43.423  1.00  0.00     0.126 HD
HETATM   28  H   UNL     1      34.396  49.893  42.957  1.00  0.00     0.126 HD
ENDBRANCH  12  26
TORSDOF 3
ENDMDL
MODEL 10
REMARK VINA RESULT:      -8.0     11.763     15.478
REMARK  3 active torsions:
REMARK  status: ('A' for Active; 'I' for Inactive)
REMARK    1  A    between atoms: C_8  and  C_9 
REMARK    2  A    between atoms: C_12  and  C_13 
REMARK    3  A    between atoms: C_24  and  N_25 
ROOT
HETATM    1  C   UNL     1      19.586  52.396  48.354  1.00  0.00     0.073 C 
HETATM    2  C   UNL     1      19.421  51.067  48.991  1.00  0.00     0.062 A 
HETATM    3  N   UNL     1      20.296  50.648  49.921  1.00  0.00    -0.177 NA
HETATM    4  N   UNL     1      19.843  49.430  50.280  1.00  0.00    -0.256 N 
HETATM    5  H   UNL     1      20.356  48.903  50.978  1.00  0.00     0.191 HD
HETATM    6  C   UNL     1      18.718  49.070  49.613  1.00  0.00     0.175 A 
HETATM    7  C   UNL     1      18.405  50.105  48.771  1.00  0.00     0.034 A 
HETATM    8  C   UNL     1      17.217  50.006  47.880  1.00  0.00     0.105 A 
HETATM    9  C   UNL     1      16.523  48.654  48.060  1.00  0.00     0.080 A 
HETATM   10  C   UNL     1      15.409  48.392  47.210  1.00  0.00     0.100 C 
HETATM   11  N   UNL     1      14.500  48.176  46.522  1.00  0.00    -0.191 NA
HETATM   12  C   UNL     1      16.956  47.712  48.944  1.00  0.00     0.140 A 
HETATM   13  O   UNL     1      18.076  47.920  49.770  1.00  0.00    -0.279 OA
ENDROOT
BRANCH   8  14
HETATM   14  C   UNL     1      16.335  51.198  48.225  1.00  0.00    -0.044 A 
HETATM   15  C   UNL     1      15.985  51.434  49.563  1.00  0.00     0.009 A 
HETATM   16  C   UNL     1      15.151  52.503  49.908  1.00  0.00     0.013 A 
HETATM   17  C   UNL     1      14.646  53.376  48.932  1.00  0.00    -0.026 A 
HETATM   18  C   UNL     1      15.018  53.151  47.598  1.00  0.00     0.013 A 
HETATM   19  C   UNL     1      15.851  52.083  47.247  1.00  0.00     0.009 A 
BRANCH  17  20
HETATM   20  C   UNL     1      13.741  54.482  49.296  1.00  0.00    -0.026 A 
HETATM   21  C   UNL     1      13.971  55.791  48.838  1.00  0.00     0.012 A 
HETATM   22  C   UNL     1      13.119  56.840  49.196  1.00  0.00     0.001 A 
HETATM   23  C   UNL     1      12.022  56.598  50.020  1.00  0.00     0.000 A 
HETATM   24  C   UNL     1      11.775  55.309  50.482  1.00  0.00     0.001 A 
HETATM   25  C   UNL     1      12.628  54.261  50.124  1.00  0.00     0.012 A 
ENDBRANCH  17  20
ENDBRANCH   8  14
BRANCH  12  26
HETATM   26  N   UNL     1      16.381  46.475  49.137  1.00  0.00    -0.282 NA
HETATM   27  H   UNL     1      15.371  46.437  49.025  1.00  0.00     0.126 HD
HETATM   28  H   UNL     1      16.706  46.032  49.994  1.00  0.00     0.126 HD
ENDBRANCH  12  26
TORSDOF 3
ENDMDL
