MODEL 1
REMARK VINA RESULT:      -9.6      0.000      0.000
REMARK  7 active torsions:
REMARK  status: ('A' for Active; 'I' for Inactive)
REMARK    1  A    between atoms: C_2  and  C_3 
REMARK    2  A    between atoms: C_2  and  C_9 
REMARK    3  A    between atoms: C_9  and  C_10 
REMARK       I    between atoms: C_10  and  N_11 
REMARK    4  A    between atoms: N_11  and  N_12 
REMARK       I    between atoms: N_12  and  C_13 
REMARK    5  A    between atoms: C_13  and  C_14 
REMARK    6  A    between atoms: C_18  and  C_19 
REMARK    7  A    between atoms: C_22  and  O_23 
ROOT
HETATM    1  N   UNL     1      24.764  47.139  50.239  1.00  0.00    -0.262 N 
HETATM    2  C   UNL     1      25.218  48.187  49.470  1.00  0.00     0.288 C 
HETATM    3  O   UNL     1      26.418  48.405  49.307  1.00  0.00    -0.264 OA
HETATM    4  H   UNL     1      23.781  46.923  50.382  1.00  0.00     0.190 HD
ENDROOT
BRANCH   2   5
HETATM    5  C   UNL     1      24.194  48.999  48.873  1.00  0.00     0.121 A 
HETATM    6  N   UNL     1      24.453  49.836  47.825  1.00  0.00    -0.272 N 
HETATM    7  H   UNL     1      25.349  49.987  47.371  1.00  0.00     0.189 HD
HETATM    8  N   UNL     1      23.381  50.503  47.376  1.00  0.00    -0.174 NA
HETATM    9  C   UNL     1      22.368  50.096  48.158  1.00  0.00     0.089 A 
HETATM   10  C   UNL     1      22.843  49.153  49.116  1.00  0.00     0.071 A 
BRANCH   9  11
HETATM   11  C   UNL     1      20.998  50.590  47.972  1.00  0.00    -0.005 A 
HETATM   12  C   UNL     1      20.537  51.698  48.695  1.00  0.00     0.016 A 
HETATM   13  C   UNL     1      19.240  52.187  48.506  1.00  0.00     0.037 A 
HETATM   14  C   UNL     1      18.376  51.583  47.592  1.00  0.00     0.068 A 
HETATM   15  C   UNL     1      18.819  50.474  46.875  1.00  0.00     0.037 A 
HETATM   16  C   UNL     1      20.119  49.981  47.064  1.00  0.00     0.016 A 
BRANCH  14  17
HETATM   17  O   UNL     1      17.143  52.163  47.496  1.00  0.00    -0.356 OA
HETATM   18  C   UNL     1      16.298  52.070  48.637  1.00  0.00     0.210 C 
ENDBRANCH  14  17
ENDBRANCH   9  11
ENDBRANCH   2   5
BRANCH   1  19
HETATM   19  N   UNL     1      25.681  46.258  50.815  1.00  0.00    -0.267 N 
HETATM   20  C   UNL     1      25.961  46.407  52.158  1.00  0.00     0.236 C 
HETATM   21  O   UNL     1      25.493  47.329  52.824  1.00  0.00    -0.272 OA
HETATM   22  H   UNL     1      26.004  45.478  50.244  1.00  0.00     0.190 HD
BRANCH  20  23
HETATM   23  C   UNL     1      26.897  45.345  52.695  1.00  0.00     0.113 C 
BRANCH  23  24
HETATM   24  C   UNL     1      26.829  45.202  54.225  1.00  0.00     0.023 C 
HETATM   25  C   UNL     1      25.794  44.155  54.660  1.00  0.00     0.015 C 
BRANCH  24  26
HETATM   26  C   UNL     1      28.201  44.862  54.791  1.00  0.00    -0.054 A 
HETATM   27  C   UNL     1      28.879  43.687  54.429  1.00  0.00     0.007 A 
HETATM   28  C   UNL     1      30.136  43.397  54.964  1.00  0.00     0.001 A 
HETATM   29  C   UNL     1      30.732  44.276  55.866  1.00  0.00     0.000 A 
HETATM   30  C   UNL     1      30.071  45.447  56.233  1.00  0.00     0.001 A 
HETATM   31  C   UNL     1      28.814  45.738  55.699  1.00  0.00     0.007 A 
ENDBRANCH  24  26
ENDBRANCH  23  24
ENDBRANCH  20  23
ENDBRANCH   1  19
TORSDOF 7
ENDMDL
MODEL 2
REMARK VINA RESULT:      -9.3      2.479     11.334
REMARK  7 active torsions:
REMARK  status: ('A' for Active; 'I' for Inactive)
REMARK    1  A    between atoms: C_2  and  C_3 
REMARK    2  A    between atoms: C_2  and  C_9 
REMARK    3  A    between atoms: C_9  and  C_10 
REMARK       I    between atoms: C_10  and  N_11 
REMARK    4  A    between atoms: N_11  and  N_12 
REMARK       I    between atoms: N_12  and  C_13 
REMARK    5  A    between atoms: C_13  and  C_14 
REMARK    6  A    between atoms: C_18  and  C_19 
REMARK    7  A    between atoms: C_22  and  O_23 
ROOT
HETATM    1  N   UNL     1      24.545  46.330  51.003  1.00  0.00    -0.262 N 
HETATM    2  C   UNL     1      25.059  45.129  50.566  1.00  0.00     0.288 C 
HETATM    3  O   UNL     1      24.625  44.559  49.566  1.00  0.00    -0.264 OA
HETATM    4  H   UNL     1      24.889  46.833  51.817  1.00  0.00     0.190 HD
ENDROOT
BRANCH   2   5
HETATM    5  C   UNL     1      26.134  44.598  51.358  1.00  0.00     0.121 A 
HETATM    6  N   UNL     1      26.739  43.411  51.053  1.00  0.00    -0.272 N 
HETATM    7  H   UNL     1      26.513  42.791  50.282  1.00  0.00     0.189 HD
HETATM    8  N   UNL     1      27.736  43.074  51.882  1.00  0.00    -0.174 NA
HETATM    9  C   UNL     1      27.796  44.074  52.776  1.00  0.00     0.089 A 
HETATM   10  C   UNL     1      26.799  45.049  52.481  1.00  0.00     0.071 A 
BRANCH   9  11
HETATM   11  C   UNL     1      28.789  44.089  53.858  1.00  0.00    -0.005 A 
HETATM   12  C   UNL     1      28.781  45.112  54.816  1.00  0.00     0.016 A 
HETATM   13  C   UNL     1      29.710  45.119  55.862  1.00  0.00     0.037 A 
HETATM   14  C   UNL     1      30.664  44.108  55.976  1.00  0.00     0.068 A 
HETATM   15  C   UNL     1      30.689  43.092  55.023  1.00  0.00     0.037 A 
HETATM   16  C   UNL     1      29.759  43.083  53.973  1.00  0.00     0.016 A 
BRANCH  14  17
HETATM   17  O   UNL     1      31.504  44.228  57.047  1.00  0.00    -0.356 OA
HETATM   18  C   UNL     1      30.977  44.853  58.211  1.00  0.00     0.210 C 
ENDBRANCH  14  17
ENDBRANCH   9  11
ENDBRANCH   2   5
BRANCH   1  19
HETATM   19  N   UNL     1      23.536  46.957  50.269  1.00  0.00    -0.267 N 
HETATM   20  C   UNL     1      23.841  48.146  49.641  1.00  0.00     0.236 C 
HETATM   21  O   UNL     1      24.932  48.696  49.777  1.00  0.00    -0.272 OA
HETATM   22  H   UNL     1      22.666  46.444  50.137  1.00  0.00     0.190 HD
BRANCH  20  23
HETATM   23  C   UNL     1      22.701  48.688  48.802  1.00  0.00     0.113 C 
BRANCH  23  24
HETATM   24  C   UNL     1      22.562  50.218  48.895  1.00  0.00     0.023 C 
HETATM   25  C   UNL     1      23.103  50.921  47.643  1.00  0.00     0.015 C 
BRANCH  24  26
HETATM   26  C   UNL     1      21.111  50.607  49.140  1.00  0.00    -0.054 A 
HETATM   27  C   UNL     1      20.540  51.742  48.544  1.00  0.00     0.007 A 
HETATM   28  C   UNL     1      19.206  52.080  48.787  1.00  0.00     0.001 A 
HETATM   29  C   UNL     1      18.427  51.287  49.627  1.00  0.00     0.000 A 
HETATM   30  C   UNL     1      18.980  50.157  50.224  1.00  0.00     0.001 A 
HETATM   31  C   UNL     1      20.313  49.819  49.983  1.00  0.00     0.007 A 
ENDBRANCH  24  26
ENDBRANCH  23  24
ENDBRANCH  20  23
ENDBRANCH   1  19
TORSDOF 7
ENDMDL
MODEL 3
REMARK VINA RESULT:      -9.2      1.317      1.977
REMARK  7 active torsions:
REMARK  status: ('A' for Active; 'I' for Inactive)
REMARK    1  A    between atoms: C_2  and  C_3 
REMARK    2  A    between atoms: C_2  and  C_9 
REMARK    3  A    between atoms: C_9  and  C_10 
REMARK       I    between atoms: C_10  and  N_11 
REMARK    4  A    between atoms: N_11  and  N_12 
REMARK       I    between atoms: N_12  and  C_13 
REMARK    5  A    between atoms: C_13  and  C_14 
REMARK    6  A    between atoms: C_18  and  C_19 
REMARK    7  A    between atoms: C_22  and  O_23 
ROOT
HETATM    1  N   UNL     1      25.908  46.377  50.381  1.00  0.00    -0.262 N 
HETATM    2  C   UNL     1      26.248  47.450  49.587  1.00  0.00     0.288 C 
HETATM    3  O   UNL     1      27.395  47.618  49.174  1.00  0.00    -0.264 OA
HETATM    4  H   UNL     1      24.969  46.202  50.727  1.00  0.00     0.190 HD
ENDROOT
BRANCH   2   5
HETATM    5  C   UNL     1      25.171  48.349  49.276  1.00  0.00     0.121 A 
HETATM    6  N   UNL     1      25.386  49.553  48.666  1.00  0.00    -0.272 N 
HETATM    7  H   UNL     1      26.280  49.942  48.383  1.00  0.00     0.189 HD
HETATM    8  N   UNL     1      24.270  50.256  48.431  1.00  0.00    -0.174 NA
HETATM    9  C   UNL     1      23.273  49.491  48.904  1.00  0.00     0.089 A 
HETATM   10  C   UNL     1      23.802  48.285  49.448  1.00  0.00     0.071 A 
BRANCH   9  11
HETATM   11  C   UNL     1      21.867  49.908  48.816  1.00  0.00    -0.005 A 
HETATM   12  C   UNL     1      20.837  48.990  49.057  1.00  0.00     0.016 A 
HETATM   13  C   UNL     1      19.497  49.385  48.996  1.00  0.00     0.037 A 
HETATM   14  C   UNL     1      19.156  50.704  48.696  1.00  0.00     0.068 A 
HETATM   15  C   UNL     1      20.171  51.624  48.442  1.00  0.00     0.037 A 
HETATM   16  C   UNL     1      21.515  51.229  48.501  1.00  0.00     0.016 A 
BRANCH  14  17
HETATM   17  O   UNL     1      17.814  50.961  48.678  1.00  0.00    -0.356 OA
HETATM   18  C   UNL     1      17.258  51.560  49.842  1.00  0.00     0.210 C 
ENDBRANCH  14  17
ENDBRANCH   9  11
ENDBRANCH   2   5
BRANCH   1  19
HETATM   19  N   UNL     1      26.872  45.416  50.692  1.00  0.00    -0.267 N 
HETATM   20  C   UNL     1      26.791  44.798  51.922  1.00  0.00     0.236 C 
HETATM   21  O   UNL     1      25.957  45.125  52.764  1.00  0.00    -0.272 OA
HETATM   22  H   UNL     1      27.511  45.137  49.950  1.00  0.00     0.190 HD
BRANCH  20  23
HETATM   23  C   UNL     1      27.831  43.713  52.116  1.00  0.00     0.113 C 
BRANCH  23  24
HETATM   24  C   UNL     1      27.752  43.046  53.500  1.00  0.00     0.023 C 
HETATM   25  C   UNL     1      27.908  41.521  53.413  1.00  0.00     0.015 C 
BRANCH  24  26
HETATM   26  C   UNL     1      28.797  43.636  54.436  1.00  0.00    -0.054 A 
HETATM   27  C   UNL     1      28.632  44.900  55.025  1.00  0.00     0.007 A 
HETATM   28  C   UNL     1      29.607  45.421  55.879  1.00  0.00     0.001 A 
HETATM   29  C   UNL     1      30.757  44.686  56.157  1.00  0.00     0.000 A 
HETATM   30  C   UNL     1      30.934  43.430  55.580  1.00  0.00     0.001 A 
HETATM   31  C   UNL     1      29.961  42.908  54.726  1.00  0.00     0.007 A 
ENDBRANCH  24  26
ENDBRANCH  23  24
ENDBRANCH  20  23
ENDBRANCH   1  19
TORSDOF 7
ENDMDL
MODEL 4
REMARK VINA RESULT:      -9.1      1.576      2.187
REMARK  7 active torsions:
REMARK  status: ('A' for Active; 'I' for Inactive)
REMARK    1  A    between atoms: C_2  and  C_3 
REMARK    2  A    between atoms: C_2  and  C_9 
REMARK    3  A    between atoms: C_9  and  C_10 
REMARK       I    between atoms: C_10  and  N_11 
REMARK    4  A    between atoms: N_11  and  N_12 
REMARK       I    between atoms: N_12  and  C_13 
REMARK    5  A    between atoms: C_13  and  C_14 
REMARK    6  A    between atoms: C_18  and  C_19 
REMARK    7  A    between atoms: C_22  and  O_23 
ROOT
HETATM    1  N   UNL     1      25.419  45.821  50.625  1.00  0.00    -0.262 N 
HETATM    2  C   UNL     1      25.271  47.174  50.414  1.00  0.00     0.288 C 
HETATM    3  O   UNL     1      26.136  47.985  50.745  1.00  0.00    -0.264 OA
HETATM    4  H   UNL     1      24.731  45.125  50.353  1.00  0.00     0.190 HD
ENDROOT
BRANCH   2   5
HETATM    5  C   UNL     1      24.041  47.565  49.781  1.00  0.00     0.121 A 
HETATM    6  N   UNL     1      23.163  46.647  49.279  1.00  0.00    -0.272 N 
HETATM    7  H   UNL     1      23.267  45.637  49.282  1.00  0.00     0.189 HD
HETATM    8  N   UNL     1      22.058  47.181  48.741  1.00  0.00    -0.174 NA
HETATM    9  C   UNL     1      22.208  48.507  48.888  1.00  0.00     0.089 A 
HETATM   10  C   UNL     1      23.447  48.787  49.534  1.00  0.00     0.071 A 
BRANCH   9  11
HETATM   11  C   UNL     1      21.184  49.458  48.436  1.00  0.00    -0.005 A 
HETATM   12  C   UNL     1      20.226  49.074  47.488  1.00  0.00     0.016 A 
HETATM   13  C   UNL     1      19.235  49.968  47.070  1.00  0.00     0.037 A 
HETATM   14  C   UNL     1      19.176  51.261  47.589  1.00  0.00     0.068 A 
HETATM   15  C   UNL     1      20.130  51.659  48.524  1.00  0.00     0.037 A 
HETATM   16  C   UNL     1      21.125  50.764  48.943  1.00  0.00     0.016 A 
BRANCH  14  17
HETATM   17  O   UNL     1      18.155  52.030  47.104  1.00  0.00    -0.356 OA
HETATM   18  C   UNL     1      16.939  52.022  47.843  1.00  0.00     0.210 C 
ENDBRANCH  14  17
ENDBRANCH   9  11
ENDBRANCH   2   5
BRANCH   1  19
HETATM   19  N   UNL     1      26.604  45.336  51.183  1.00  0.00    -0.267 N 
HETATM   20  C   UNL     1      26.635  44.015  51.578  1.00  0.00     0.236 C 
HETATM   21  O   UNL     1      25.641  43.294  51.527  1.00  0.00    -0.272 OA
HETATM   22  H   UNL     1      27.418  45.948  51.158  1.00  0.00     0.190 HD
BRANCH  20  23
HETATM   23  C   UNL     1      27.994  43.575  52.084  1.00  0.00     0.113 C 
BRANCH  23  24
HETATM   24  C   UNL     1      27.937  42.942  53.485  1.00  0.00     0.023 C 
HETATM   25  C   UNL     1      28.273  41.444  53.454  1.00  0.00     0.015 C 
BRANCH  24  26
HETATM   26  C   UNL     1      28.866  43.677  54.441  1.00  0.00    -0.054 A 
HETATM   27  C   UNL     1      30.047  43.090  54.921  1.00  0.00     0.007 A 
HETATM   28  C   UNL     1      30.883  43.784  55.799  1.00  0.00     0.001 A 
HETATM   29  C   UNL     1      30.549  45.074  56.207  1.00  0.00     0.000 A 
HETATM   30  C   UNL     1      29.381  45.670  55.737  1.00  0.00     0.001 A 
HETATM   31  C   UNL     1      28.545  44.977  54.860  1.00  0.00     0.007 A 
ENDBRANCH  24  26
ENDBRANCH  23  24
ENDBRANCH  20  23
ENDBRANCH   1  19
TORSDOF 7
ENDMDL
MODEL 5
REMARK VINA RESULT:      -8.9      8.008     10.623
REMARK  7 active torsions:
REMARK  status: ('A' for Active; 'I' for Inactive)
REMARK    1  A    between atoms: C_2  and  C_3 
REMARK    2  A    between atoms: C_2  and  C_9 
REMARK    3  A    between atoms: C_9  and  C_10 
REMARK       I    between atoms: C_10  and  N_11 
REMARK    4  A    between atoms: N_11  and  N_12 
REMARK       I    between atoms: N_12  and  C_13 
REMARK    5  A    between atoms: C_13  and  C_14 
REMARK    6  A    between atoms: C_18  and  C_19 
REMARK    7  A    between atoms: C_22  and  O_23 
ROOT
HETATM    1  N   UNL     1      27.040  41.916  52.421  1.00  0.00    -0.262 N 
HETATM    2  C   UNL     1      28.101  41.153  51.985  1.00  0.00     0.288 C 
HETATM    3  O   UNL     1      29.181  41.141  52.575  1.00  0.00    -0.264 OA
HETATM    4  H   UNL     1      26.132  41.939  51.965  1.00  0.00     0.190 HD
ENDROOT
BRANCH   2   5
HETATM    5  C   UNL     1      27.853  40.375  50.803  1.00  0.00     0.121 A 
HETATM    6  N   UNL     1      26.694  39.672  50.629  1.00  0.00    -0.272 N 
HETATM    7  H   UNL     1      25.915  39.609  51.278  1.00  0.00     0.189 HD
HETATM    8  N   UNL     1      26.617  39.019  49.462  1.00  0.00    -0.174 NA
HETATM    9  C   UNL     1      27.771  39.296  48.834  1.00  0.00     0.089 A 
HETATM   10  C   UNL     1      28.577  40.142  49.650  1.00  0.00     0.071 A 
BRANCH   9  11
HETATM   11  C   UNL     1      28.070  38.774  47.494  1.00  0.00    -0.005 A 
HETATM   12  C   UNL     1      27.802  39.544  46.355  1.00  0.00     0.016 A 
HETATM   13  C   UNL     1      28.104  39.062  45.077  1.00  0.00     0.037 A 
HETATM   14  C   UNL     1      28.682  37.803  44.909  1.00  0.00     0.068 A 
HETATM   15  C   UNL     1      28.943  37.023  46.033  1.00  0.00     0.037 A 
HETATM   16  C   UNL     1      28.639  37.505  47.315  1.00  0.00     0.016 A 
BRANCH  14  17
HETATM   17  O   UNL     1      28.936  37.456  43.612  1.00  0.00    -0.356 OA
HETATM   18  C   UNL     1      30.068  38.058  42.995  1.00  0.00     0.210 C 
ENDBRANCH  14  17
ENDBRANCH   9  11
ENDBRANCH   2   5
BRANCH   1  19
HETATM   19  N   UNL     1      27.163  42.663  53.593  1.00  0.00    -0.267 N 
HETATM   20  C   UNL     1      27.279  44.033  53.475  1.00  0.00     0.236 C 
HETATM   21  O   UNL     1      27.358  44.590  52.382  1.00  0.00    -0.272 OA
HETATM   22  H   UNL     1      27.039  42.172  54.477  1.00  0.00     0.190 HD
BRANCH  20  23
HETATM   23  C   UNL     1      27.316  44.747  54.810  1.00  0.00     0.113 C 
BRANCH  23  24
HETATM   24  C   UNL     1      28.490  45.734  54.932  1.00  0.00     0.023 C 
HETATM   25  C   UNL     1      28.016  47.152  55.281  1.00  0.00     0.015 C 
BRANCH  24  26
HETATM   26  C   UNL     1      29.496  45.240  55.962  1.00  0.00    -0.054 A 
HETATM   27  C   UNL     1      29.607  45.832  57.230  1.00  0.00     0.007 A 
HETATM   28  C   UNL     1      30.541  45.362  58.156  1.00  0.00     0.001 A 
HETATM   29  C   UNL     1      31.374  44.295  57.828  1.00  0.00     0.000 A 
HETATM   30  C   UNL     1      31.275  43.698  56.574  1.00  0.00     0.001 A 
HETATM   31  C   UNL     1      30.342  44.166  55.647  1.00  0.00     0.007 A 
ENDBRANCH  24  26
ENDBRANCH  23  24
ENDBRANCH  20  23
ENDBRANCH   1  19
TORSDOF 7
ENDMDL
MODEL 6
REMARK VINA RESULT:      -8.8      1.604      1.980
REMARK  7 active torsions:
REMARK  status: ('A' for Active; 'I' for Inactive)
REMARK    1  A    between atoms: C_2  and  C_3 
REMARK    2  A    between atoms: C_2  and  C_9 
REMARK    3  A    between atoms: C_9  and  C_10 
REMARK       I    between atoms: C_10  and  N_11 
REMARK    4  A    between atoms: N_11  and  N_12 
REMARK       I    between atoms: N_12  and  C_13 
REMARK    5  A    between atoms: C_13  and  C_14 
REMARK    6  A    between atoms: C_18  and  C_19 
REMARK    7  A    between atoms: C_22  and  O_23 
ROOT
HETATM    1  N   UNL     1      25.039  46.588  51.486  1.00  0.00    -0.262 N 
HETATM    2  C   UNL     1      25.033  46.719  50.115  1.00  0.00     0.288 C 
HETATM    3  O   UNL     1      26.009  46.420  49.428  1.00  0.00    -0.264 OA
HETATM    4  H   UNL     1      24.247  46.814  52.082  1.00  0.00     0.190 HD
ENDROOT
BRANCH   2   5
HETATM    5  C   UNL     1      23.811  47.223  49.552  1.00  0.00     0.121 A 
HETATM    6  N   UNL     1      22.841  46.393  49.068  1.00  0.00    -0.272 N 
HETATM    7  H   UNL     1      22.865  45.378  49.039  1.00  0.00     0.189 HD
HETATM    8  N   UNL     1      21.758  47.027  48.599  1.00  0.00    -0.174 NA
HETATM    9  C   UNL     1      22.019  48.332  48.775  1.00  0.00     0.089 A 
HETATM   10  C   UNL     1      23.305  48.495  49.368  1.00  0.00     0.071 A 
BRANCH   9  11
HETATM   11  C   UNL     1      21.054  49.374  48.399  1.00  0.00    -0.005 A 
HETATM   12  C   UNL     1      20.007  49.086  47.512  1.00  0.00     0.016 A 
HETATM   13  C   UNL     1      19.072  50.068  47.167  1.00  0.00     0.037 A 
HETATM   14  C   UNL     1      19.159  51.354  47.700  1.00  0.00     0.068 A 
HETATM   15  C   UNL     1      20.201  51.655  48.574  1.00  0.00     0.037 A 
HETATM   16  C   UNL     1      21.141  50.673  48.920  1.00  0.00     0.016 A 
BRANCH  14  17
HETATM   17  O   UNL     1      18.178  52.213  47.290  1.00  0.00    -0.356 OA
HETATM   18  C   UNL     1      16.888  52.036  47.861  1.00  0.00     0.210 C 
ENDBRANCH  14  17
ENDBRANCH   9  11
ENDBRANCH   2   5
BRANCH   1  19
HETATM   19  N   UNL     1      26.160  46.053  52.124  1.00  0.00    -0.267 N 
HETATM   20  C   UNL     1      25.953  45.092  53.091  1.00  0.00     0.236 C 
HETATM   21  O   UNL     1      24.826  44.763  53.455  1.00  0.00    -0.272 OA
HETATM   22  H   UNL     1      27.075  46.312  51.757  1.00  0.00     0.190 HD
BRANCH  20  23
HETATM   23  C   UNL     1      27.240  44.520  53.650  1.00  0.00     0.113 C 
BRANCH  23  24
HETATM   24  C   UNL     1      28.115  45.576  54.346  1.00  0.00     0.023 C 
HETATM   25  C   UNL     1      27.287  46.512  55.238  1.00  0.00     0.015 C 
BRANCH  24  26
HETATM   26  C   UNL     1      29.217  44.906  55.156  1.00  0.00    -0.054 A 
HETATM   27  C   UNL     1      29.772  43.676  54.771  1.00  0.00     0.007 A 
HETATM   28  C   UNL     1      30.781  43.080  55.532  1.00  0.00     0.001 A 
HETATM   29  C   UNL     1      31.247  43.706  56.686  1.00  0.00     0.000 A 
HETATM   30  C   UNL     1      30.706  44.928  57.080  1.00  0.00     0.001 A 
HETATM   31  C   UNL     1      29.697  45.524  56.320  1.00  0.00     0.007 A 
ENDBRANCH  24  26
ENDBRANCH  23  24
ENDBRANCH  20  23
ENDBRANCH   1  19
TORSDOF 7
ENDMDL
MODEL 7
REMARK VINA RESULT:      -8.8      1.571      2.161
REMARK  7 active torsions:
REMARK  status: ('A' for Active; 'I' for Inactive)
REMARK    1  A    between atoms: C_2  and  C_3 
REMARK    2  A    between atoms: C_2  and  C_9 
REMARK    3  A    between atoms: C_9  and  C_10 
REMARK       I    between atoms: C_10  and  N_11 
REMARK    4  A    between atoms: N_11  and  N_12 
REMARK       I    between atoms: N_12  and  C_13 
REMARK    5  A    between atoms: C_13  and  C_14 
REMARK    6  A    between atoms: C_18  and  C_19 
REMARK    7  A    between atoms: C_22  and  O_23 
ROOT
HETATM    1  N   UNL     1      24.067  47.324  50.456  1.00  0.00    -0.262 N 
HETATM    2  C   UNL     1      23.271  47.233  49.336  1.00  0.00     0.288 C 
HETATM    3  O   UNL     1      23.282  46.242  48.607  1.00  0.00    -0.264 OA
HETATM    4  H   UNL     1      24.072  48.121  51.087  1.00  0.00     0.190 HD
ENDROOT
BRANCH   2   5
HETATM    5  C   UNL     1      22.429  48.371  49.089  1.00  0.00     0.121 A 
HETATM    6  N   UNL     1      22.648  49.578  49.691  1.00  0.00    -0.272 N 
HETATM    7  H   UNL     1      23.382  49.804  50.355  1.00  0.00     0.189 HD
HETATM    8  N   UNL     1      21.782  50.536  49.332  1.00  0.00    -0.174 NA
HETATM    9  C   UNL     1      20.953  49.943  48.459  1.00  0.00     0.089 A 
HETATM   10  C   UNL     1      21.325  48.579  48.284  1.00  0.00     0.071 A 
BRANCH   9  11
HETATM   11  C   UNL     1      19.857  50.676  47.810  1.00  0.00    -0.005 A 
HETATM   12  C   UNL     1      19.337  50.238  46.585  1.00  0.00     0.016 A 
HETATM   13  C   UNL     1      18.279  50.918  45.973  1.00  0.00     0.037 A 
HETATM   14  C   UNL     1      17.716  52.047  46.570  1.00  0.00     0.068 A 
HETATM   15  C   UNL     1      18.232  52.498  47.783  1.00  0.00     0.037 A 
HETATM   16  C   UNL     1      19.294  51.818  48.397  1.00  0.00     0.016 A 
BRANCH  14  17
HETATM   17  O   UNL     1      16.684  52.611  45.875  1.00  0.00    -0.356 OA
HETATM   18  C   UNL     1      16.987  53.134  44.587  1.00  0.00     0.210 C 
ENDBRANCH  14  17
ENDBRANCH   9  11
ENDBRANCH   2   5
BRANCH   1  19
HETATM   19  N   UNL     1      24.879  46.246  50.815  1.00  0.00    -0.267 N 
HETATM   20  C   UNL     1      25.805  46.443  51.818  1.00  0.00     0.236 C 
HETATM   21  O   UNL     1      25.984  47.544  52.335  1.00  0.00    -0.272 OA
HETATM   22  H   UNL     1      24.664  45.340  50.402  1.00  0.00     0.190 HD
BRANCH  20  23
HETATM   23  C   UNL     1      26.566  45.186  52.185  1.00  0.00     0.113 C 
BRANCH  23  24
HETATM   24  C   UNL     1      26.789  45.038  53.700  1.00  0.00     0.023 C 
HETATM   25  C   UNL     1      25.654  44.256  54.374  1.00  0.00     0.015 C 
BRANCH  24  26
HETATM   26  C   UNL     1      28.131  44.378  53.980  1.00  0.00    -0.054 A 
HETATM   27  C   UNL     1      28.881  44.686  55.125  1.00  0.00     0.007 A 
HETATM   28  C   UNL     1      30.112  44.067  55.358  1.00  0.00     0.001 A 
HETATM   29  C   UNL     1      30.608  43.134  54.451  1.00  0.00     0.000 A 
HETATM   30  C   UNL     1      29.873  42.817  53.310  1.00  0.00     0.001 A 
HETATM   31  C   UNL     1      28.643  43.435  53.076  1.00  0.00     0.007 A 
ENDBRANCH  24  26
ENDBRANCH  23  24
ENDBRANCH  20  23
ENDBRANCH   1  19
TORSDOF 7
ENDMDL
MODEL 8
REMARK VINA RESULT:      -8.7      2.304     10.795
REMARK  7 active torsions:
REMARK  status: ('A' for Active; 'I' for Inactive)
REMARK    1  A    between atoms: C_2  and  C_3 
REMARK    2  A    between atoms: C_2  and  C_9 
REMARK    3  A    between atoms: C_9  and  C_10 
REMARK       I    between atoms: C_10  and  N_11 
REMARK    4  A    between atoms: N_11  and  N_12 
REMARK       I    between atoms: N_12  and  C_13 
REMARK    5  A    between atoms: C_13  and  C_14 
REMARK    6  A    between atoms: C_18  and  C_19 
REMARK    7  A    between atoms: C_22  and  O_23 
ROOT
HETATM    1  N   UNL     1      22.779  48.141  49.796  1.00  0.00    -0.262 N 
HETATM    2  C   UNL     1      24.146  48.018  49.676  1.00  0.00     0.288 C 
HETATM    3  O   UNL     1      24.796  48.704  48.888  1.00  0.00    -0.264 OA
HETATM    4  H   UNL     1      22.215  47.599  50.445  1.00  0.00     0.190 HD
ENDROOT
BRANCH   2   5
HETATM    5  C   UNL     1      24.751  47.039  50.536  1.00  0.00     0.121 A 
HETATM    6  N   UNL     1      24.197  45.805  50.731  1.00  0.00    -0.272 N 
HETATM    7  H   UNL     1      23.337  45.451  50.324  1.00  0.00     0.189 HD
HETATM    8  N   UNL     1      24.902  45.009  51.546  1.00  0.00    -0.174 NA
HETATM    9  C   UNL     1      25.966  45.742  51.911  1.00  0.00     0.089 A 
HETATM   10  C   UNL     1      25.903  47.028  51.299  1.00  0.00     0.071 A 
BRANCH   9  11
HETATM   11  C   UNL     1      27.005  45.211  52.802  1.00  0.00    -0.005 A 
HETATM   12  C   UNL     1      27.797  44.125  52.402  1.00  0.00     0.016 A 
HETATM   13  C   UNL     1      28.804  43.628  53.237  1.00  0.00     0.037 A 
HETATM   14  C   UNL     1      29.044  44.203  54.485  1.00  0.00     0.068 A 
HETATM   15  C   UNL     1      28.256  45.275  54.898  1.00  0.00     0.037 A 
HETATM   16  C   UNL     1      27.245  45.774  54.064  1.00  0.00     0.016 A 
BRANCH  14  17
HETATM   17  O   UNL     1      30.060  43.630  55.196  1.00  0.00    -0.356 OA
HETATM   18  C   UNL     1      30.747  44.464  56.122  1.00  0.00     0.210 C 
ENDBRANCH  14  17
ENDBRANCH   9  11
ENDBRANCH   2   5
BRANCH   1  19
HETATM   19  N   UNL     1      22.105  49.104  49.044  1.00  0.00    -0.267 N 
HETATM   20  C   UNL     1      21.994  50.373  49.574  1.00  0.00     0.236 C 
HETATM   21  O   UNL     1      22.395  50.647  50.703  1.00  0.00    -0.272 OA
HETATM   22  H   UNL     1      21.835  48.853  48.094  1.00  0.00     0.190 HD
BRANCH  20  23
HETATM   23  C   UNL     1      21.324  51.356  48.635  1.00  0.00     0.113 C 
BRANCH  23  24
HETATM   24  C   UNL     1      19.854  51.626  48.998  1.00  0.00     0.023 C 
HETATM   25  C   UNL     1      19.180  52.577  47.998  1.00  0.00     0.015 C 
BRANCH  24  26
HETATM   26  C   UNL     1      19.080  50.319  49.094  1.00  0.00    -0.054 A 
HETATM   27  C   UNL     1      18.809  49.710  50.330  1.00  0.00     0.007 A 
HETATM   28  C   UNL     1      18.098  48.509  50.392  1.00  0.00     0.001 A 
HETATM   29  C   UNL     1      17.650  47.902  49.221  1.00  0.00     0.000 A 
HETATM   30  C   UNL     1      17.911  48.495  47.988  1.00  0.00     0.001 A 
HETATM   31  C   UNL     1      18.620  49.695  47.924  1.00  0.00     0.007 A 
ENDBRANCH  24  26
ENDBRANCH  23  24
ENDBRANCH  20  23
ENDBRANCH   1  19
TORSDOF 7
ENDMDL
MODEL 9
REMARK VINA RESULT:      -8.6      2.236     11.328
REMARK  7 active torsions:
REMARK  status: ('A' for Active; 'I' for Inactive)
REMARK    1  A    between atoms: C_2  and  C_3 
REMARK    2  A    between atoms: C_2  and  C_9 
REMARK    3  A    between atoms: C_9  and  C_10 
REMARK       I    between atoms: C_10  and  N_11 
REMARK    4  A    between atoms: N_11  and  N_12 
REMARK       I    between atoms: N_12  and  C_13 
REMARK    5  A    between atoms: C_13  and  C_14 
REMARK    6  A    between atoms: C_18  and  C_19 
REMARK    7  A    between atoms: C_22  and  O_23 
ROOT
HETATM    1  N   UNL     1      23.051  47.199  49.841  1.00  0.00    -0.262 N 
HETATM    2  C   UNL     1      24.362  47.510  50.131  1.00  0.00     0.288 C 
HETATM    3  O   UNL     1      24.834  48.623  49.902  1.00  0.00    -0.264 OA
HETATM    4  H   UNL     1      22.627  46.295  50.030  1.00  0.00     0.190 HD
ENDROOT
BRANCH   2   5
HETATM    5  C   UNL     1      25.128  46.447  50.721  1.00  0.00     0.121 A 
HETATM    6  N   UNL     1      24.840  45.132  50.489  1.00  0.00    -0.272 N 
HETATM    7  H   UNL     1      24.088  44.765  49.913  1.00  0.00     0.189 HD
HETATM    8  N   UNL     1      25.666  44.272  51.099  1.00  0.00    -0.174 NA
HETATM    9  C   UNL     1      26.538  45.045  51.767  1.00  0.00     0.089 A 
HETATM   10  C   UNL     1      26.228  46.420  51.557  1.00  0.00     0.071 A 
BRANCH   9  11
HETATM   11  C   UNL     1      27.633  44.472  52.560  1.00  0.00    -0.005 A 
HETATM   12  C   UNL     1      27.817  44.851  53.896  1.00  0.00     0.016 A 
HETATM   13  C   UNL     1      28.845  44.292  54.664  1.00  0.00     0.037 A 
HETATM   14  C   UNL     1      29.709  43.344  54.116  1.00  0.00     0.068 A 
HETATM   15  C   UNL     1      29.543  42.967  52.785  1.00  0.00     0.037 A 
HETATM   16  C   UNL     1      28.514  43.528  52.013  1.00  0.00     0.016 A 
BRANCH  14  17
HETATM   17  O   UNL     1      30.662  42.871  54.973  1.00  0.00    -0.356 OA
HETATM   18  C   UNL     1      30.946  43.665  56.119  1.00  0.00     0.210 C 
ENDBRANCH  14  17
ENDBRANCH   9  11
ENDBRANCH   2   5
BRANCH   1  19
HETATM   19  N   UNL     1      22.209  48.182  49.318  1.00  0.00    -0.267 N 
HETATM   20  C   UNL     1      21.530  47.894  48.152  1.00  0.00     0.236 C 
HETATM   21  O   UNL     1      21.710  46.847  47.533  1.00  0.00    -0.272 OA
HETATM   22  H   UNL     1      22.047  49.011  49.887  1.00  0.00     0.190 HD
BRANCH  20  23
HETATM   23  C   UNL     1      20.579  48.994  47.727  1.00  0.00     0.113 C 
BRANCH  23  24
HETATM   24  C   UNL     1      20.575  50.191  48.693  1.00  0.00     0.023 C 
HETATM   25  C   UNL     1      21.501  51.319  48.216  1.00  0.00     0.015 C 
BRANCH  24  26
HETATM   26  C   UNL     1      19.158  50.712  48.890  1.00  0.00    -0.054 A 
HETATM   27  C   UNL     1      18.904  51.940  49.519  1.00  0.00     0.007 A 
HETATM   28  C   UNL     1      17.594  52.396  49.690  1.00  0.00     0.001 A 
HETATM   29  C   UNL     1      16.523  51.630  49.233  1.00  0.00     0.000 A 
HETATM   30  C   UNL     1      16.761  50.409  48.606  1.00  0.00     0.001 A 
HETATM   31  C   UNL     1      18.069  49.953  48.435  1.00  0.00     0.007 A 
ENDBRANCH  24  26
ENDBRANCH  23  24
ENDBRANCH  20  23
ENDBRANCH   1  19
TORSDOF 7
ENDMDL
MODEL 10
REMARK VINA RESULT:      -8.5      2.668     11.008
REMARK  7 active torsions:
REMARK  status: ('A' for Active; 'I' for Inactive)
REMARK    1  A    between atoms: C_2  and  C_3 
REMARK    2  A    between atoms: C_2  and  C_9 
REMARK    3  A    between atoms: C_9  and  C_10 
REMARK       I    between atoms: C_10  and  N_11 
REMARK    4  A    between atoms: N_11  and  N_12 
REMARK       I    between atoms: N_12  and  C_13 
REMARK    5  A    between atoms: C_13  and  C_14 
REMARK    6  A    between atoms: C_18  and  C_19 
REMARK    7  A    between atoms: C_22  and  O_23 
ROOT
HETATM    1  N   UNL     1      22.787  46.138  49.328  1.00  0.00    -0.262 N 
HETATM    2  C   UNL     1      23.894  46.840  49.749  1.00  0.00     0.288 C 
HETATM    3  O   UNL     1      23.943  48.069  49.703  1.00  0.00    -0.264 OA
HETATM    4  H   UNL     1      22.709  45.125  49.365  1.00  0.00     0.190 HD
ENDROOT
BRANCH   2   5
HETATM    5  C   UNL     1      24.977  46.038  50.247  1.00  0.00     0.121 A 
HETATM    6  N   UNL     1      25.709  45.222  49.431  1.00  0.00    -0.272 N 
HETATM    7  H   UNL     1      25.580  45.083  48.433  1.00  0.00     0.189 HD
HETATM    8  N   UNL     1      26.693  44.561  50.054  1.00  0.00    -0.174 NA
HETATM    9  C   UNL     1      26.613  44.950  51.337  1.00  0.00     0.089 A 
HETATM   10  C   UNL     1      25.541  45.875  51.498  1.00  0.00     0.071 A 
BRANCH   9  11
HETATM   11  C   UNL     1      27.548  44.456  52.357  1.00  0.00    -0.005 A 
HETATM   12  C   UNL     1      28.554  43.542  52.016  1.00  0.00     0.016 A 
HETATM   13  C   UNL     1      29.461  43.085  52.978  1.00  0.00     0.037 A 
HETATM   14  C   UNL     1      29.386  43.530  54.297  1.00  0.00     0.068 A 
HETATM   15  C   UNL     1      28.382  44.430  54.651  1.00  0.00     0.037 A 
HETATM   16  C   UNL     1      27.471  44.888  53.689  1.00  0.00     0.016 A 
BRANCH  14  17
HETATM   17  O   UNL     1      30.336  43.014  55.133  1.00  0.00    -0.356 OA
HETATM   18  C   UNL     1      30.946  43.917  56.048  1.00  0.00     0.210 C 
ENDBRANCH  14  17
ENDBRANCH   9  11
ENDBRANCH   2   5
BRANCH   1  19
HETATM   19  N   UNL     1      21.660  46.829  48.880  1.00  0.00    -0.267 N 
HETATM   20  C   UNL     1      20.486  46.121  48.735  1.00  0.00     0.236 C 
HETATM   21  O   UNL     1      20.430  44.905  48.910  1.00  0.00    -0.272 OA
HETATM   22  H   UNL     1      21.735  47.842  48.798  1.00  0.00     0.190 HD
BRANCH  20  23
HETATM   23  C   UNL     1      19.311  46.988  48.332  1.00  0.00     0.113 C 
BRANCH  23  24
HETATM   24  C   UNL     1      19.724  48.202  47.482  1.00  0.00     0.023 C 
HETATM   25  C   UNL     1      19.041  48.201  46.107  1.00  0.00     0.015 C 
BRANCH  24  26
HETATM   26  C   UNL     1      19.428  49.498  48.223  1.00  0.00    -0.054 A 
HETATM   27  C   UNL     1      18.453  49.566  49.231  1.00  0.00     0.007 A 
HETATM   28  C   UNL     1      18.198  50.768  49.896  1.00  0.00     0.001 A 
HETATM   29  C   UNL     1      18.914  51.916  49.562  1.00  0.00     0.000 A 
HETATM   30  C   UNL     1      19.885  51.863  48.565  1.00  0.00     0.001 A 
HETATM   31  C   UNL     1      20.141  50.662  47.900  1.00  0.00     0.007 A 
ENDBRANCH  24  26
ENDBRANCH  23  24
ENDBRANCH  20  23
ENDBRANCH   1  19
TORSDOF 7
ENDMDL
