MODEL 1
REMARK VINA RESULT:     -10.3      0.000      0.000
REMARK  8 active torsions:
REMARK  status: ('A' for Active; 'I' for Inactive)
REMARK    1  A    between atoms: N_2  and  C_4 
REMARK    2  A    between atoms: N_2  and  C_32 
REMARK    3  A    between atoms: C_4  and  C_5 
REMARK    4  A    between atoms: N_8  and  C_9 
REMARK    5  A    between atoms: C_12  and  N_13 
REMARK    6  A    between atoms: N_13  and  C_16 
REMARK    7  A    between atoms: C_16  and  C_17 
REMARK    8  A    between atoms: C_32  and  C_33 
ROOT
HETATM    1  C   UNL     1      25.097  45.338  50.416  1.00  0.00     0.161 C 
HETATM    2  C   UNL     1      25.534  45.652  51.840  1.00  0.00     0.179 C 
HETATM    3  C   UNL     1      26.839  44.880  51.989  1.00  0.00     0.185 C 
HETATM    4  C   UNL     1      26.444  43.668  52.825  1.00  0.00     0.241 C 
HETATM    5  C   UNL     1      25.339  44.250  53.689  1.00  0.00     0.204 C 
HETATM    6  O   UNL     1      24.616  45.141  52.821  1.00  0.00    -0.379 OA
HETATM    7  O   UNL     1      27.286  44.477  50.692  1.00  0.00    -0.379 OA
HETATM    8  C   UNL     1      26.441  45.142  49.724  1.00  0.00     0.198 C 
ENDROOT
BRANCH   1   9
HETATM    9  N   UNL     1      24.229  46.335  49.846  1.00  0.00    -0.274 N 
HETATM   10  N   UNL     1      24.264  47.613  50.252  1.00  0.00     0.005 NA
HETATM   11  N   UNL     1      23.353  48.287  49.565  1.00  0.00    -0.161 NA
HETATM   12  C   UNL     1      22.728  47.412  48.716  1.00  0.00     0.095 A 
HETATM   13  C   UNL     1      23.282  46.160  48.876  1.00  0.00     0.139 A 
BRANCH  12  14
HETATM   14  C   UNL     1      21.653  47.890  47.807  1.00  0.00     0.296 C 
BRANCH  14  15
HETATM   15  N   UNL     1      20.266  47.839  48.410  1.00  0.00    -0.066 N 
HETATM   16  C   UNL     1      19.817  46.426  48.646  1.00  0.00     0.270 C 
HETATM   17  H   UNL     1      20.345  48.295  49.329  1.00  0.00     0.280 HD
BRANCH  15  18
HETATM   18  C   UNL     1      19.266  48.658  47.622  1.00  0.00     0.273 C 
BRANCH  18  19
HETATM   19  C   UNL     1      18.913  49.975  48.255  1.00  0.00    -0.033 A 
HETATM   20  C   UNL     1      19.532  51.163  47.836  1.00  0.00     0.009 A 
HETATM   21  C   UNL     1      19.214  52.377  48.448  1.00  0.00     0.001 A 
HETATM   22  C   UNL     1      18.271  52.418  49.474  1.00  0.00     0.000 A 
HETATM   23  C   UNL     1      17.641  51.247  49.889  1.00  0.00     0.001 A 
HETATM   24  C   UNL     1      17.960  50.031  49.285  1.00  0.00     0.009 A 
ENDBRANCH  18  19
ENDBRANCH  15  18
ENDBRANCH  14  15
ENDBRANCH  12  14
ENDBRANCH   1   9
BRANCH   4  25
HETATM   25  N   UNL     1      27.599  43.117  53.583  1.00  0.00    -0.062 N 
HETATM   26  H   UNL     1      27.367  43.092  54.589  1.00  0.00     0.278 HD
HETATM   27  H   UNL     1      27.803  42.137  53.340  1.00  0.00     0.278 HD
BRANCH  25  28
HETATM   28  C   UNL     1      28.869  43.895  53.460  1.00  0.00     0.273 C 
BRANCH  28  29
HETATM   29  C   UNL     1      29.084  44.691  54.689  1.00  0.00    -0.005 A 
HETATM   30  C   UNL     1      30.010  44.391  55.740  1.00  0.00    -0.000 A 
HETATM   31  C   UNL     1      29.874  45.387  56.707  1.00  0.00     0.043 A 
HETATM   32  C   UNL     1      30.954  43.366  55.959  1.00  0.00     0.014 A 
HETATM   33  C   UNL     1      30.630  45.407  57.884  1.00  0.00     0.030 A 
HETATM   34  N   UNL     1      28.920  46.270  56.259  1.00  0.00    -0.365 N 
HETATM   35  C   UNL     1      31.554  44.378  58.080  1.00  0.00     0.002 A 
HETATM   36  C   UNL     1      31.716  43.372  57.132  1.00  0.00     0.001 A 
HETATM   37  H   UNL     1      28.638  47.107  56.757  1.00  0.00     0.165 HD
HETATM   38  C   UNL     1      28.422  45.850  55.051  1.00  0.00     0.098 A 
ENDBRANCH  28  29
ENDBRANCH  25  28
ENDBRANCH   4  25
TORSDOF 8
ENDMDL
MODEL 2
REMARK VINA RESULT:     -10.1      2.219     11.261
REMARK  8 active torsions:
REMARK  status: ('A' for Active; 'I' for Inactive)
REMARK    1  A    between atoms: N_2  and  C_4 
REMARK    2  A    between atoms: N_2  and  C_32 
REMARK    3  A    between atoms: C_4  and  C_5 
REMARK    4  A    between atoms: N_8  and  C_9 
REMARK    5  A    between atoms: C_12  and  N_13 
REMARK    6  A    between atoms: N_13  and  C_16 
REMARK    7  A    between atoms: C_16  and  C_17 
REMARK    8  A    between atoms: C_32  and  C_33 
ROOT
HETATM    1  C   UNL     1      25.315  46.323  49.421  1.00  0.00     0.161 C 
HETATM    2  C   UNL     1      25.624  47.725  49.923  1.00  0.00     0.179 C 
HETATM    3  C   UNL     1      24.360  48.508  49.591  1.00  0.00     0.185 C 
HETATM    4  C   UNL     1      24.754  49.316  48.360  1.00  0.00     0.241 C 
HETATM    5  C   UNL     1      26.230  49.560  48.623  1.00  0.00     0.204 C 
HETATM    6  O   UNL     1      26.711  48.337  49.209  1.00  0.00    -0.379 OA
HETATM    7  O   UNL     1      23.316  47.584  49.278  1.00  0.00    -0.379 OA
HETATM    8  C   UNL     1      23.803  46.262  49.607  1.00  0.00     0.198 C 
ENDROOT
BRANCH   1   9
HETATM    9  N   UNL     1      26.077  45.293  50.079  1.00  0.00    -0.274 N 
HETATM   10  N   UNL     1      27.281  44.911  49.627  1.00  0.00     0.005 NA
HETATM   11  N   UNL     1      27.729  43.948  50.418  1.00  0.00    -0.161 NA
HETATM   12  C   UNL     1      26.784  43.715  51.384  1.00  0.00     0.095 A 
HETATM   13  C   UNL     1      25.724  44.574  51.187  1.00  0.00     0.139 A 
BRANCH  12  14
HETATM   14  C   UNL     1      27.018  42.682  52.426  1.00  0.00     0.296 C 
BRANCH  14  15
HETATM   15  N   UNL     1      27.397  43.244  53.779  1.00  0.00    -0.066 N 
HETATM   16  C   UNL     1      26.193  43.728  54.534  1.00  0.00     0.270 C 
HETATM   17  H   UNL     1      27.797  42.456  54.307  1.00  0.00     0.280 HD
BRANCH  15  18
HETATM   18  C   UNL     1      28.496  44.282  53.682  1.00  0.00     0.273 C 
BRANCH  18  19
HETATM   19  C   UNL     1      29.421  44.312  54.868  1.00  0.00    -0.033 A 
HETATM   20  C   UNL     1      29.455  45.424  55.723  1.00  0.00     0.009 A 
HETATM   21  C   UNL     1      30.335  45.451  56.807  1.00  0.00     0.001 A 
HETATM   22  C   UNL     1      31.178  44.369  57.052  1.00  0.00     0.000 A 
HETATM   23  C   UNL     1      31.143  43.255  56.217  1.00  0.00     0.001 A 
HETATM   24  C   UNL     1      30.270  43.226  55.129  1.00  0.00     0.009 A 
ENDBRANCH  18  19
ENDBRANCH  15  18
ENDBRANCH  14  15
ENDBRANCH  12  14
ENDBRANCH   1   9
BRANCH   4  25
HETATM   25  N   UNL     1      23.936  50.551  48.223  1.00  0.00    -0.062 N 
HETATM   26  H   UNL     1      23.829  50.995  49.149  1.00  0.00     0.278 HD
HETATM   27  H   UNL     1      24.394  51.269  47.643  1.00  0.00     0.278 HD
BRANCH  25  28
HETATM   28  C   UNL     1      22.555  50.343  47.691  1.00  0.00     0.273 C 
BRANCH  28  29
HETATM   29  C   UNL     1      21.564  50.721  48.723  1.00  0.00    -0.005 A 
HETATM   30  C   UNL     1      20.224  51.168  48.485  1.00  0.00    -0.000 A 
HETATM   31  C   UNL     1      19.649  51.432  49.728  1.00  0.00     0.043 A 
HETATM   32  C   UNL     1      19.444  51.371  47.326  1.00  0.00     0.014 A 
HETATM   33  C   UNL     1      18.336  51.893  49.873  1.00  0.00     0.030 A 
HETATM   34  N   UNL     1      20.590  51.141  50.688  1.00  0.00    -0.365 N 
HETATM   35  C   UNL     1      17.586  52.092  48.711  1.00  0.00     0.002 A 
HETATM   36  C   UNL     1      18.129  51.834  47.455  1.00  0.00     0.001 A 
HETATM   37  H   UNL     1      20.430  51.219  51.685  1.00  0.00     0.165 HD
HETATM   38  C   UNL     1      21.756  50.729  50.092  1.00  0.00     0.098 A 
ENDBRANCH  28  29
ENDBRANCH  25  28
ENDBRANCH   4  25
TORSDOF 8
ENDMDL
MODEL 3
REMARK VINA RESULT:     -10.1      1.968      2.780
REMARK  8 active torsions:
REMARK  status: ('A' for Active; 'I' for Inactive)
REMARK    1  A    between atoms: N_2  and  C_4 
REMARK    2  A    between atoms: N_2  and  C_32 
REMARK    3  A    between atoms: C_4  and  C_5 
REMARK    4  A    between atoms: N_8  and  C_9 
REMARK    5  A    between atoms: C_12  and  N_13 
REMARK    6  A    between atoms: N_13  and  C_16 
REMARK    7  A    between atoms: C_16  and  C_17 
REMARK    8  A    between atoms: C_32  and  C_33 
ROOT
HETATM    1  C   UNL     1      25.022  47.973  49.044  1.00  0.00     0.161 C 
HETATM    2  C   UNL     1      24.608  47.289  50.338  1.00  0.00     0.179 C 
HETATM    3  C   UNL     1      25.936  46.974  51.014  1.00  0.00     0.185 C 
HETATM    4  C   UNL     1      26.113  45.479  50.773  1.00  0.00     0.241 C 
HETATM    5  C   UNL     1      24.671  45.003  50.778  1.00  0.00     0.204 C 
HETATM    6  O   UNL     1      23.933  46.041  50.108  1.00  0.00    -0.379 OA
HETATM    7  O   UNL     1      26.970  47.717  50.365  1.00  0.00    -0.379 OA
HETATM    8  C   UNL     1      26.325  48.645  49.461  1.00  0.00     0.198 C 
ENDROOT
BRANCH   1   9
HETATM    9  N   UNL     1      24.008  48.839  48.499  1.00  0.00    -0.274 N 
HETATM   10  N   UNL     1      24.309  49.812  47.626  1.00  0.00     0.005 NA
HETATM   11  N   UNL     1      23.188  50.446  47.315  1.00  0.00    -0.161 NA
HETATM   12  C   UNL     1      22.162  49.863  48.013  1.00  0.00     0.095 A 
HETATM   13  C   UNL     1      22.668  48.827  48.769  1.00  0.00     0.139 A 
BRANCH  12  14
HETATM   14  C   UNL     1      20.771  50.364  47.858  1.00  0.00     0.296 C 
BRANCH  14  15
HETATM   15  N   UNL     1      20.385  51.432  48.859  1.00  0.00    -0.066 N 
HETATM   16  C   UNL     1      19.890  50.833  50.144  1.00  0.00     0.270 C 
HETATM   17  H   UNL     1      21.253  51.943  49.070  1.00  0.00     0.280 HD
BRANCH  15  18
HETATM   18  C   UNL     1      19.432  52.452  48.271  1.00  0.00     0.273 C 
BRANCH  18  19
HETATM   19  C   UNL     1      17.989  52.223  48.627  1.00  0.00    -0.033 A 
HETATM   20  C   UNL     1      17.190  51.359  47.863  1.00  0.00     0.009 A 
HETATM   21  C   UNL     1      15.845  51.172  48.188  1.00  0.00     0.001 A 
HETATM   22  C   UNL     1      15.290  51.836  49.280  1.00  0.00     0.000 A 
HETATM   23  C   UNL     1      16.078  52.686  50.053  1.00  0.00     0.001 A 
HETATM   24  C   UNL     1      17.421  52.881  49.729  1.00  0.00     0.009 A 
ENDBRANCH  18  19
ENDBRANCH  15  18
ENDBRANCH  14  15
ENDBRANCH  12  14
ENDBRANCH   1   9
BRANCH   4  25
HETATM   25  N   UNL     1      26.978  44.849  51.806  1.00  0.00    -0.062 N 
HETATM   26  H   UNL     1      27.179  43.873  51.535  1.00  0.00     0.278 HD
HETATM   27  H   UNL     1      27.904  45.295  51.875  1.00  0.00     0.278 HD
BRANCH  25  28
HETATM   28  C   UNL     1      26.391  44.795  53.179  1.00  0.00     0.273 C 
BRANCH  28  29
HETATM   29  C   UNL     1      27.346  45.375  54.150  1.00  0.00    -0.005 A 
HETATM   30  C   UNL     1      28.552  44.761  54.619  1.00  0.00    -0.000 A 
HETATM   31  C   UNL     1      29.136  45.640  55.531  1.00  0.00     0.043 A 
HETATM   32  C   UNL     1      29.205  43.538  54.352  1.00  0.00     0.014 A 
HETATM   33  C   UNL     1      30.336  45.359  56.192  1.00  0.00     0.030 A 
HETATM   34  N   UNL     1      28.333  46.754  55.602  1.00  0.00    -0.365 N 
HETATM   35  C   UNL     1      30.959  44.140  55.915  1.00  0.00     0.002 A 
HETATM   36  C   UNL     1      30.404  43.242  55.007  1.00  0.00     0.001 A 
HETATM   37  H   UNL     1      28.533  47.567  56.174  1.00  0.00     0.165 HD
HETATM   38  C   UNL     1      27.239  46.597  54.788  1.00  0.00     0.098 A 
ENDBRANCH  28  29
ENDBRANCH  25  28
ENDBRANCH   4  25
TORSDOF 8
ENDMDL
MODEL 4
REMARK VINA RESULT:     -10.0      1.499      1.773
REMARK  8 active torsions:
REMARK  status: ('A' for Active; 'I' for Inactive)
REMARK    1  A    between atoms: N_2  and  C_4 
REMARK    2  A    between atoms: N_2  and  C_32 
REMARK    3  A    between atoms: C_4  and  C_5 
REMARK    4  A    between atoms: N_8  and  C_9 
REMARK    5  A    between atoms: C_12  and  N_13 
REMARK    6  A    between atoms: N_13  and  C_16 
REMARK    7  A    between atoms: C_16  and  C_17 
REMARK    8  A    between atoms: C_32  and  C_33 
ROOT
HETATM    1  C   UNL     1      24.540  43.389  50.560  1.00  0.00     0.161 C 
HETATM    2  C   UNL     1      25.208  44.369  51.512  1.00  0.00     0.179 C 
HETATM    3  C   UNL     1      26.581  43.754  51.749  1.00  0.00     0.185 C 
HETATM    4  C   UNL     1      26.461  43.136  53.138  1.00  0.00     0.241 C 
HETATM    5  C   UNL     1      25.492  44.095  53.807  1.00  0.00     0.204 C 
HETATM    6  O   UNL     1      24.541  44.441  52.784  1.00  0.00    -0.379 OA
HETATM    7  O   UNL     1      26.809  42.744  50.764  1.00  0.00    -0.379 OA
HETATM    8  C   UNL     1      25.740  42.846  49.793  1.00  0.00     0.198 C 
ENDROOT
BRANCH   1   9
HETATM    9  N   UNL     1      23.494  43.979  49.765  1.00  0.00    -0.274 N 
HETATM   10  N   UNL     1      22.198  43.737  50.015  1.00  0.00     0.005 NA
HETATM   11  N   UNL     1      21.477  44.398  49.122  1.00  0.00    -0.161 NA
HETATM   12  C   UNL     1      22.338  45.064  48.289  1.00  0.00     0.095 A 
HETATM   13  C   UNL     1      23.632  44.815  48.691  1.00  0.00     0.139 A 
BRANCH  12  14
HETATM   14  C   UNL     1      21.809  45.904  47.182  1.00  0.00     0.296 C 
BRANCH  14  15
HETATM   15  N   UNL     1      20.934  47.051  47.640  1.00  0.00    -0.066 N 
HETATM   16  C   UNL     1      19.788  47.282  46.698  1.00  0.00     0.270 C 
HETATM   17  H   UNL     1      20.537  46.755  48.543  1.00  0.00     0.280 HD
BRANCH  15  18
HETATM   18  C   UNL     1      21.733  48.305  47.926  1.00  0.00     0.273 C 
BRANCH  18  19
HETATM   19  C   UNL     1      20.927  49.427  48.519  1.00  0.00    -0.033 A 
HETATM   20  C   UNL     1      20.942  50.706  47.940  1.00  0.00     0.009 A 
HETATM   21  C   UNL     1      20.208  51.746  48.513  1.00  0.00     0.001 A 
HETATM   22  C   UNL     1      19.448  51.518  49.659  1.00  0.00     0.000 A 
HETATM   23  C   UNL     1      19.416  50.250  50.234  1.00  0.00     0.001 A 
HETATM   24  C   UNL     1      20.152  49.209  49.669  1.00  0.00     0.009 A 
ENDBRANCH  18  19
ENDBRANCH  15  18
ENDBRANCH  14  15
ENDBRANCH  12  14
ENDBRANCH   1   9
BRANCH   4  25
HETATM   25  N   UNL     1      27.783  43.021  53.810  1.00  0.00    -0.062 N 
HETATM   26  H   UNL     1      27.645  42.986  54.832  1.00  0.00     0.278 HD
HETATM   27  H   UNL     1      28.269  42.141  53.583  1.00  0.00     0.278 HD
BRANCH  25  28
HETATM   28  C   UNL     1      28.729  44.148  53.548  1.00  0.00     0.273 C 
BRANCH  28  29
HETATM   29  C   UNL     1      28.985  44.882  54.808  1.00  0.00    -0.005 A 
HETATM   30  C   UNL     1      29.958  44.540  55.803  1.00  0.00    -0.000 A 
HETATM   31  C   UNL     1      29.850  45.481  56.826  1.00  0.00     0.043 A 
HETATM   32  C   UNL     1      30.922  43.517  55.928  1.00  0.00     0.014 A 
HETATM   33  C   UNL     1      30.654  45.451  57.971  1.00  0.00     0.030 A 
HETATM   34  N   UNL     1      28.868  46.373  56.466  1.00  0.00    -0.365 N 
HETATM   35  C   UNL     1      31.598  44.426  58.074  1.00  0.00     0.002 A 
HETATM   36  C   UNL     1      31.733  43.472  57.068  1.00  0.00     0.001 A 
HETATM   37  H   UNL     1      28.598  47.179  57.018  1.00  0.00     0.165 HD
HETATM   38  C   UNL     1      28.326  46.010  55.258  1.00  0.00     0.098 A 
ENDBRANCH  28  29
ENDBRANCH  25  28
ENDBRANCH   4  25
TORSDOF 8
ENDMDL
MODEL 5
REMARK VINA RESULT:      -9.8      1.758      2.341
REMARK  8 active torsions:
REMARK  status: ('A' for Active; 'I' for Inactive)
REMARK    1  A    between atoms: N_2  and  C_4 
REMARK    2  A    between atoms: N_2  and  C_32 
REMARK    3  A    between atoms: C_4  and  C_5 
REMARK    4  A    between atoms: N_8  and  C_9 
REMARK    5  A    between atoms: C_12  and  N_13 
REMARK    6  A    between atoms: N_13  and  C_16 
REMARK    7  A    between atoms: C_16  and  C_17 
REMARK    8  A    between atoms: C_32  and  C_33 
ROOT
HETATM    1  C   UNL     1      23.656  45.315  49.293  1.00  0.00     0.161 C 
HETATM    2  C   UNL     1      23.901  44.520  50.566  1.00  0.00     0.179 C 
HETATM    3  C   UNL     1      25.294  44.959  50.997  1.00  0.00     0.185 C 
HETATM    4  C   UNL     1      26.179  43.784  50.594  1.00  0.00     0.241 C 
HETATM    5  C   UNL     1      25.226  42.617  50.778  1.00  0.00     0.204 C 
HETATM    6  O   UNL     1      23.948  43.103  50.329  1.00  0.00    -0.379 OA
HETATM    7  O   UNL     1      25.652  46.135  50.267  1.00  0.00    -0.379 OA
HETATM    8  C   UNL     1      24.468  46.577  49.563  1.00  0.00     0.198 C 
ENDROOT
BRANCH   1   9
HETATM    9  N   UNL     1      22.261  45.510  48.993  1.00  0.00    -0.274 N 
HETATM   10  N   UNL     1      21.409  44.478  48.905  1.00  0.00     0.005 NA
HETATM   11  N   UNL     1      20.211  44.959  48.608  1.00  0.00    -0.161 NA
HETATM   12  C   UNL     1      20.314  46.321  48.501  1.00  0.00     0.095 A 
HETATM   13  C   UNL     1      21.617  46.692  48.753  1.00  0.00     0.139 A 
BRANCH  12  14
HETATM   14  C   UNL     1      19.115  47.140  48.178  1.00  0.00     0.296 C 
BRANCH  14  15
HETATM   15  N   UNL     1      18.140  47.286  49.327  1.00  0.00    -0.066 N 
HETATM   16  C   UNL     1      16.734  47.480  48.837  1.00  0.00     0.270 C 
HETATM   17  H   UNL     1      18.170  46.391  49.834  1.00  0.00     0.280 HD
BRANCH  15  18
HETATM   18  C   UNL     1      18.577  48.344  50.319  1.00  0.00     0.273 C 
BRANCH  18  19
HETATM   19  C   UNL     1      18.889  49.678  49.699  1.00  0.00    -0.033 A 
HETATM   20  C   UNL     1      20.217  50.107  49.551  1.00  0.00     0.009 A 
HETATM   21  C   UNL     1      20.494  51.358  48.995  1.00  0.00     0.001 A 
HETATM   22  C   UNL     1      19.453  52.184  48.577  1.00  0.00     0.000 A 
HETATM   23  C   UNL     1      18.132  51.763  48.709  1.00  0.00     0.001 A 
HETATM   24  C   UNL     1      17.850  50.517  49.268  1.00  0.00     0.009 A 
ENDBRANCH  18  19
ENDBRANCH  15  18
ENDBRANCH  14  15
ENDBRANCH  12  14
ENDBRANCH   1   9
BRANCH   4  25
HETATM   25  N   UNL     1      27.415  43.712  51.418  1.00  0.00    -0.062 N 
HETATM   26  H   UNL     1      28.075  43.045  50.987  1.00  0.00     0.278 HD
HETATM   27  H   UNL     1      27.928  44.605  51.445  1.00  0.00     0.278 HD
BRANCH  25  28
HETATM   28  C   UNL     1      27.213  43.257  52.828  1.00  0.00     0.273 C 
BRANCH  28  29
HETATM   29  C   UNL     1      27.761  44.269  53.759  1.00  0.00    -0.005 A 
HETATM   30  C   UNL     1      28.912  44.111  54.597  1.00  0.00    -0.000 A 
HETATM   31  C   UNL     1      29.062  45.294  55.320  1.00  0.00     0.043 A 
HETATM   32  C   UNL     1      29.843  43.071  54.807  1.00  0.00     0.014 A 
HETATM   33  C   UNL     1      30.093  45.490  56.245  1.00  0.00     0.030 A 
HETATM   34  N   UNL     1      28.059  46.148  54.927  1.00  0.00    -0.365 N 
HETATM   35  C   UNL     1      30.998  44.444  56.440  1.00  0.00     0.002 A 
HETATM   36  C   UNL     1      30.878  43.251  55.732  1.00  0.00     0.001 A 
HETATM   37  H   UNL     1      27.944  47.092  55.277  1.00  0.00     0.165 HD
HETATM   38  C   UNL     1      27.256  45.533  54.000  1.00  0.00     0.098 A 
ENDBRANCH  28  29
ENDBRANCH  25  28
ENDBRANCH   4  25
TORSDOF 8
ENDMDL
MODEL 6
REMARK VINA RESULT:      -9.7      1.514      1.991
REMARK  8 active torsions:
REMARK  status: ('A' for Active; 'I' for Inactive)
REMARK    1  A    between atoms: N_2  and  C_4 
REMARK    2  A    between atoms: N_2  and  C_32 
REMARK    3  A    between atoms: C_4  and  C_5 
REMARK    4  A    between atoms: N_8  and  C_9 
REMARK    5  A    between atoms: C_12  and  N_13 
REMARK    6  A    between atoms: N_13  and  C_16 
REMARK    7  A    between atoms: C_16  and  C_17 
REMARK    8  A    between atoms: C_32  and  C_33 
ROOT
HETATM    1  C   UNL     1      23.570  45.767  49.216  1.00  0.00     0.161 C 
HETATM    2  C   UNL     1      24.788  46.587  49.613  1.00  0.00     0.179 C 
HETATM    3  C   UNL     1      25.835  45.531  49.945  1.00  0.00     0.185 C 
HETATM    4  C   UNL     1      25.865  45.525  51.469  1.00  0.00     0.241 C 
HETATM    5  C   UNL     1      25.549  46.977  51.779  1.00  0.00     0.204 C 
HETATM    6  O   UNL     1      24.565  47.363  50.803  1.00  0.00    -0.379 OA
HETATM    7  O   UNL     1      25.390  44.269  49.442  1.00  0.00    -0.379 OA
HETATM    8  C   UNL     1      24.223  44.523  48.625  1.00  0.00     0.198 C 
ENDROOT
BRANCH   1   9
HETATM    9  N   UNL     1      22.655  46.473  48.357  1.00  0.00    -0.274 N 
HETATM   10  N   UNL     1      22.824  47.771  48.063  1.00  0.00     0.005 NA
HETATM   11  N   UNL     1      21.830  48.145  47.271  1.00  0.00    -0.161 NA
HETATM   12  C   UNL     1      21.016  47.061  47.069  1.00  0.00     0.095 A 
HETATM   13  C   UNL     1      21.533  45.980  47.749  1.00  0.00     0.139 A 
BRANCH  12  14
HETATM   14  C   UNL     1      19.810  47.181  46.207  1.00  0.00     0.296 C 
BRANCH  14  15
HETATM   15  N   UNL     1      18.618  47.810  46.897  1.00  0.00    -0.066 N 
HETATM   16  C   UNL     1      17.370  47.002  46.689  1.00  0.00     0.270 C 
HETATM   17  H   UNL     1      18.836  47.790  47.903  1.00  0.00     0.280 HD
BRANCH  15  18
HETATM   18  C   UNL     1      18.450  49.270  46.534  1.00  0.00     0.273 C 
BRANCH  18  19
HETATM   19  C   UNL     1      18.578  50.213  47.699  1.00  0.00    -0.033 A 
HETATM   20  C   UNL     1      18.730  51.593  47.493  1.00  0.00     0.009 A 
HETATM   21  C   UNL     1      18.872  52.455  48.582  1.00  0.00     0.001 A 
HETATM   22  C   UNL     1      18.854  51.952  49.881  1.00  0.00     0.000 A 
HETATM   23  C   UNL     1      18.691  50.586  50.097  1.00  0.00     0.001 A 
HETATM   24  C   UNL     1      18.555  49.719  49.013  1.00  0.00     0.009 A 
ENDBRANCH  18  19
ENDBRANCH  15  18
ENDBRANCH  14  15
ENDBRANCH  12  14
ENDBRANCH   1   9
BRANCH   4  25
HETATM   25  N   UNL     1      27.172  45.048  51.996  1.00  0.00    -0.062 N 
HETATM   26  H   UNL     1      27.623  44.441  51.292  1.00  0.00     0.278 HD
HETATM   27  H   UNL     1      27.844  45.814  52.146  1.00  0.00     0.278 HD
BRANCH  25  28
HETATM   28  C   UNL     1      27.096  44.250  53.258  1.00  0.00     0.273 C 
BRANCH  28  29
HETATM   29  C   UNL     1      27.809  44.965  54.339  1.00  0.00    -0.005 A 
HETATM   30  C   UNL     1      28.991  44.517  55.014  1.00  0.00    -0.000 A 
HETATM   31  C   UNL     1      29.313  45.481  55.968  1.00  0.00     0.043 A 
HETATM   32  C   UNL     1      29.819  43.379  54.900  1.00  0.00     0.014 A 
HETATM   33  C   UNL     1      30.418  45.365  56.818  1.00  0.00     0.030 A 
HETATM   34  N   UNL     1      28.381  46.487  55.870  1.00  0.00    -0.365 N 
HETATM   35  C   UNL     1      31.219  44.228  56.690  1.00  0.00     0.002 A 
HETATM   36  C   UNL     1      30.927  43.248  55.745  1.00  0.00     0.001 A 
HETATM   37  H   UNL     1      28.390  47.330  56.433  1.00  0.00     0.165 HD
HETATM   38  C   UNL     1      27.457  46.178  54.904  1.00  0.00     0.098 A 
ENDBRANCH  28  29
ENDBRANCH  25  28
ENDBRANCH   4  25
TORSDOF 8
ENDMDL
MODEL 7
REMARK VINA RESULT:      -9.3      2.078      2.982
REMARK  8 active torsions:
REMARK  status: ('A' for Active; 'I' for Inactive)
REMARK    1  A    between atoms: N_2  and  C_4 
REMARK    2  A    between atoms: N_2  and  C_32 
REMARK    3  A    between atoms: C_4  and  C_5 
REMARK    4  A    between atoms: N_8  and  C_9 
REMARK    5  A    between atoms: C_12  and  N_13 
REMARK    6  A    between atoms: N_13  and  C_16 
REMARK    7  A    between atoms: C_16  and  C_17 
REMARK    8  A    between atoms: C_32  and  C_33 
ROOT
HETATM    1  C   UNL     1      22.612  44.348  49.785  1.00  0.00     0.161 C 
HETATM    2  C   UNL     1      23.885  45.089  49.406  1.00  0.00     0.179 C 
HETATM    3  C   UNL     1      24.977  44.312  50.131  1.00  0.00     0.185 C 
HETATM    4  C   UNL     1      25.315  45.201  51.323  1.00  0.00     0.241 C 
HETATM    5  C   UNL     1      25.069  46.582  50.744  1.00  0.00     0.204 C 
HETATM    6  O   UNL     1      23.908  46.436  49.907  1.00  0.00    -0.379 OA
HETATM    7  O   UNL     1      24.439  43.062  50.568  1.00  0.00    -0.379 OA
HETATM    8  C   UNL     1      23.132  42.926  49.964  1.00  0.00     0.198 C 
ENDROOT
BRANCH   1   9
HETATM    9  N   UNL     1      21.542  44.517  48.836  1.00  0.00    -0.274 N 
HETATM   10  N   UNL     1      21.391  43.689  47.791  1.00  0.00     0.005 NA
HETATM   11  N   UNL     1      20.341  44.097  47.093  1.00  0.00    -0.161 NA
HETATM   12  C   UNL     1      19.826  45.208  47.709  1.00  0.00     0.095 A 
HETATM   13  C   UNL     1      20.577  45.486  48.831  1.00  0.00     0.139 A 
BRANCH  12  14
HETATM   14  C   UNL     1      18.628  45.887  47.149  1.00  0.00     0.296 C 
BRANCH  14  15
HETATM   15  N   UNL     1      18.185  47.104  47.933  1.00  0.00    -0.066 N 
HETATM   16  C   UNL     1      16.753  46.989  48.369  1.00  0.00     0.270 C 
HETATM   17  H   UNL     1      18.767  47.116  48.781  1.00  0.00     0.280 HD
BRANCH  15  18
HETATM   18  C   UNL     1      18.484  48.397  47.203  1.00  0.00     0.273 C 
BRANCH  18  19
HETATM   19  C   UNL     1      18.944  49.516  48.096  1.00  0.00    -0.033 A 
HETATM   20  C   UNL     1      19.069  50.824  47.602  1.00  0.00     0.009 A 
HETATM   21  C   UNL     1      19.520  51.850  48.434  1.00  0.00     0.001 A 
HETATM   22  C   UNL     1      19.841  51.584  49.763  1.00  0.00     0.000 A 
HETATM   23  C   UNL     1      19.708  50.292  50.267  1.00  0.00     0.001 A 
HETATM   24  C   UNL     1      19.263  49.262  49.439  1.00  0.00     0.009 A 
ENDBRANCH  18  19
ENDBRANCH  15  18
ENDBRANCH  14  15
ENDBRANCH  12  14
ENDBRANCH   1   9
BRANCH   4  25
HETATM   25  N   UNL     1      26.702  44.970  51.811  1.00  0.00    -0.062 N 
HETATM   26  H   UNL     1      26.990  44.006  51.578  1.00  0.00     0.278 HD
HETATM   27  H   UNL     1      27.394  45.569  51.339  1.00  0.00     0.278 HD
BRANCH  25  28
HETATM   28  C   UNL     1      26.890  45.125  53.285  1.00  0.00     0.273 C 
BRANCH  28  29
HETATM   29  C   UNL     1      27.933  44.183  53.752  1.00  0.00    -0.005 A 
HETATM   30  C   UNL     1      28.937  44.455  54.738  1.00  0.00    -0.000 A 
HETATM   31  C   UNL     1      29.717  43.306  54.860  1.00  0.00     0.043 A 
HETATM   32  C   UNL     1      29.254  45.573  55.540  1.00  0.00     0.014 A 
HETATM   33  C   UNL     1      30.802  43.217  55.740  1.00  0.00     0.030 A 
HETATM   34  N   UNL     1      29.202  42.364  54.002  1.00  0.00    -0.365 N 
HETATM   35  C   UNL     1      31.099  44.338  56.518  1.00  0.00     0.002 A 
HETATM   36  C   UNL     1      30.338  45.500  56.423  1.00  0.00     0.001 A 
HETATM   37  H   UNL     1      29.564  41.422  53.905  1.00  0.00     0.165 HD
HETATM   38  C   UNL     1      28.137  42.888  53.314  1.00  0.00     0.098 A 
ENDBRANCH  28  29
ENDBRANCH  25  28
ENDBRANCH   4  25
TORSDOF 8
ENDMDL
MODEL 8
REMARK VINA RESULT:      -8.9      2.394     11.103
REMARK  8 active torsions:
REMARK  status: ('A' for Active; 'I' for Inactive)
REMARK    1  A    between atoms: N_2  and  C_4 
REMARK    2  A    between atoms: N_2  and  C_32 
REMARK    3  A    between atoms: C_4  and  C_5 
REMARK    4  A    between atoms: N_8  and  C_9 
REMARK    5  A    between atoms: C_12  and  N_13 
REMARK    6  A    between atoms: N_13  and  C_16 
REMARK    7  A    between atoms: C_16  and  C_17 
REMARK    8  A    between atoms: C_32  and  C_33 
ROOT
HETATM    1  C   UNL     1      24.648  45.506  48.857  1.00  0.00     0.161 C 
HETATM    2  C   UNL     1      23.920  46.557  49.682  1.00  0.00     0.179 C 
HETATM    3  C   UNL     1      22.615  46.761  48.923  1.00  0.00     0.185 C 
HETATM    4  C   UNL     1      22.827  48.085  48.198  1.00  0.00     0.241 C 
HETATM    5  C   UNL     1      23.723  48.822  49.178  1.00  0.00     0.204 C 
HETATM    6  O   UNL     1      24.611  47.817  49.700  1.00  0.00    -0.379 OA
HETATM    7  O   UNL     1      22.454  45.692  47.989  1.00  0.00    -0.379 OA
HETATM    8  C   UNL     1      23.482  44.715  48.276  1.00  0.00     0.198 C 
ENDROOT
BRANCH   1   9
HETATM    9  N   UNL     1      25.615  44.750  49.610  1.00  0.00    -0.274 N 
HETATM   10  N   UNL     1      26.927  45.028  49.551  1.00  0.00     0.005 NA
HETATM   11  N   UNL     1      27.564  44.166  50.330  1.00  0.00    -0.161 NA
HETATM   12  C   UNL     1      26.634  43.325  50.884  1.00  0.00     0.095 A 
HETATM   13  C   UNL     1      25.381  43.690  50.441  1.00  0.00     0.139 A 
BRANCH  12  14
HETATM   14  C   UNL     1      27.060  42.248  51.816  1.00  0.00     0.296 C 
BRANCH  14  15
HETATM   15  N   UNL     1      28.148  42.663  52.783  1.00  0.00    -0.066 N 
HETATM   16  C   UNL     1      29.215  41.613  52.899  1.00  0.00     0.270 C 
HETATM   17  H   UNL     1      28.582  43.500  52.372  1.00  0.00     0.280 HD
BRANCH  15  18
HETATM   18  C   UNL     1      27.591  43.097  54.123  1.00  0.00     0.273 C 
BRANCH  18  19
HETATM   19  C   UNL     1      27.747  44.565  54.408  1.00  0.00    -0.033 A 
HETATM   20  C   UNL     1      28.841  45.040  55.149  1.00  0.00     0.009 A 
HETATM   21  C   UNL     1      28.963  46.402  55.429  1.00  0.00     0.001 A 
HETATM   22  C   UNL     1      28.003  47.301  54.965  1.00  0.00     0.000 A 
HETATM   23  C   UNL     1      26.921  46.841  54.219  1.00  0.00     0.001 A 
HETATM   24  C   UNL     1      26.791  45.481  53.941  1.00  0.00     0.009 A 
ENDBRANCH  18  19
ENDBRANCH  15  18
ENDBRANCH  14  15
ENDBRANCH  12  14
ENDBRANCH   1   9
BRANCH   4  25
HETATM   25  N   UNL     1      21.539  48.767  47.901  1.00  0.00    -0.062 N 
HETATM   26  H   UNL     1      21.179  48.436  46.991  1.00  0.00     0.278 HD
HETATM   27  H   UNL     1      20.798  48.530  48.576  1.00  0.00     0.278 HD
BRANCH  25  28
HETATM   28  C   UNL     1      21.616  50.257  47.809  1.00  0.00     0.273 C 
BRANCH  28  29
HETATM   29  C   UNL     1      20.432  50.856  48.466  1.00  0.00    -0.005 A 
HETATM   30  C   UNL     1      19.187  51.179  47.834  1.00  0.00    -0.000 A 
HETATM   31  C   UNL     1      18.361  51.736  48.809  1.00  0.00     0.043 A 
HETATM   32  C   UNL     1      18.685  51.047  46.521  1.00  0.00     0.014 A 
HETATM   33  C   UNL     1      17.060  52.172  48.540  1.00  0.00     0.030 A 
HETATM   34  N   UNL     1      19.061  51.736  49.992  1.00  0.00    -0.365 N 
HETATM   35  C   UNL     1      16.587  52.037  47.232  1.00  0.00     0.002 A 
HETATM   36  C   UNL     1      17.386  51.481  46.236  1.00  0.00     0.001 A 
HETATM   37  H   UNL     1      18.689  52.065  50.876  1.00  0.00     0.165 HD
HETATM   38  C   UNL     1      20.319  51.225  49.793  1.00  0.00     0.098 A 
ENDBRANCH  28  29
ENDBRANCH  25  28
ENDBRANCH   4  25
TORSDOF 8
ENDMDL
MODEL 9
REMARK VINA RESULT:      -8.9      2.181      2.915
REMARK  8 active torsions:
REMARK  status: ('A' for Active; 'I' for Inactive)
REMARK    1  A    between atoms: N_2  and  C_4 
REMARK    2  A    between atoms: N_2  and  C_32 
REMARK    3  A    between atoms: C_4  and  C_5 
REMARK    4  A    between atoms: N_8  and  C_9 
REMARK    5  A    between atoms: C_12  and  N_13 
REMARK    6  A    between atoms: N_13  and  C_16 
REMARK    7  A    between atoms: C_16  and  C_17 
REMARK    8  A    between atoms: C_32  and  C_33 
ROOT
HETATM    1  C   UNL     1      24.570  42.950  50.716  1.00  0.00     0.161 C 
HETATM    2  C   UNL     1      25.230  44.192  51.298  1.00  0.00     0.179 C 
HETATM    3  C   UNL     1      26.566  43.674  51.816  1.00  0.00     0.185 C 
HETATM    4  C   UNL     1      26.356  43.592  53.324  1.00  0.00     0.241 C 
HETATM    5  C   UNL     1      25.394  44.745  53.554  1.00  0.00     0.204 C 
HETATM    6  O   UNL     1      24.507  44.723  52.421  1.00  0.00    -0.379 OA
HETATM    7  O   UNL     1      26.800  42.375  51.267  1.00  0.00    -0.379 OA
HETATM    8  C   UNL     1      25.784  42.147  50.262  1.00  0.00     0.198 C 
ENDROOT
BRANCH   1   9
HETATM    9  N   UNL     1      23.587  43.240  49.705  1.00  0.00    -0.274 N 
HETATM   10  N   UNL     1      22.345  43.635  50.024  1.00  0.00     0.005 NA
HETATM   11  N   UNL     1      21.669  43.811  48.898  1.00  0.00    -0.161 NA
HETATM   12  C   UNL     1      22.502  43.514  47.850  1.00  0.00     0.095 A 
HETATM   13  C   UNL     1      23.735  43.155  48.348  1.00  0.00     0.139 A 
BRANCH  12  14
HETATM   14  C   UNL     1      22.014  43.629  46.451  1.00  0.00     0.296 C 
BRANCH  14  15
HETATM   15  N   UNL     1      20.829  44.556  46.283  1.00  0.00    -0.066 N 
HETATM   16  C   UNL     1      19.763  43.940  45.424  1.00  0.00     0.270 C 
HETATM   17  H   UNL     1      20.435  44.677  47.226  1.00  0.00     0.280 HD
BRANCH  15  18
HETATM   18  C   UNL     1      21.242  45.938  45.822  1.00  0.00     0.273 C 
BRANCH  18  19
HETATM   19  C   UNL     1      20.983  47.025  46.828  1.00  0.00    -0.033 A 
HETATM   20  C   UNL     1      19.801  47.781  46.779  1.00  0.00     0.009 A 
HETATM   21  C   UNL     1      19.582  48.805  47.704  1.00  0.00     0.001 A 
HETATM   22  C   UNL     1      20.532  49.075  48.687  1.00  0.00     0.000 A 
HETATM   23  C   UNL     1      21.702  48.323  48.751  1.00  0.00     0.001 A 
HETATM   24  C   UNL     1      21.928  47.303  47.827  1.00  0.00     0.009 A 
ENDBRANCH  18  19
ENDBRANCH  15  18
ENDBRANCH  14  15
ENDBRANCH  12  14
ENDBRANCH   1   9
BRANCH   4  25
HETATM   25  N   UNL     1      27.639  43.697  54.069  1.00  0.00    -0.062 N 
HETATM   26  H   UNL     1      27.474  43.483  55.065  1.00  0.00     0.278 HD
HETATM   27  H   UNL     1      28.334  42.999  53.765  1.00  0.00     0.278 HD
BRANCH  25  28
HETATM   28  C   UNL     1      28.291  45.042  54.027  1.00  0.00     0.273 C 
BRANCH  28  29
HETATM   29  C   UNL     1      28.803  45.387  55.372  1.00  0.00    -0.005 A 
HETATM   30  C   UNL     1      29.895  44.752  56.049  1.00  0.00    -0.000 A 
HETATM   31  C   UNL     1      30.027  45.373  57.291  1.00  0.00     0.043 A 
HETATM   32  C   UNL     1      30.786  43.709  55.720  1.00  0.00     0.014 A 
HETATM   33  C   UNL     1      31.002  45.000  58.223  1.00  0.00     0.030 A 
HETATM   34  N   UNL     1      29.071  46.358  57.364  1.00  0.00    -0.365 N 
HETATM   35  C   UNL     1      31.868  43.961  57.876  1.00  0.00     0.002 A 
HETATM   36  C   UNL     1      31.765  43.323  56.643  1.00  0.00     0.001 A 
HETATM   37  H   UNL     1      28.956  46.984  58.153  1.00  0.00     0.165 HD
HETATM   38  C   UNL     1      28.313  46.362  56.220  1.00  0.00     0.098 A 
ENDBRANCH  28  29
ENDBRANCH  25  28
ENDBRANCH   4  25
TORSDOF 8
ENDMDL
MODEL 10
REMARK VINA RESULT:      -8.8      5.676      8.900
REMARK  8 active torsions:
REMARK  status: ('A' for Active; 'I' for Inactive)
REMARK    1  A    between atoms: N_2  and  C_4 
REMARK    2  A    between atoms: N_2  and  C_32 
REMARK    3  A    between atoms: C_4  and  C_5 
REMARK    4  A    between atoms: N_8  and  C_9 
REMARK    5  A    between atoms: C_12  and  N_13 
REMARK    6  A    between atoms: N_13  and  C_16 
REMARK    7  A    between atoms: C_16  and  C_17 
REMARK    8  A    between atoms: C_32  and  C_33 
ROOT
HETATM    1  C   UNL     1      26.912  42.655  49.861  1.00  0.00     0.161 C 
HETATM    2  C   UNL     1      26.635  42.109  51.254  1.00  0.00     0.179 C 
HETATM    3  C   UNL     1      26.276  43.352  52.057  1.00  0.00     0.185 C 
HETATM    4  C   UNL     1      27.535  43.627  52.872  1.00  0.00     0.241 C 
HETATM    5  C   UNL     1      28.060  42.219  53.093  1.00  0.00     0.204 C 
HETATM    6  O   UNL     1      27.803  41.527  51.858  1.00  0.00    -0.379 OA
HETATM    7  O   UNL     1      26.016  44.427  51.151  1.00  0.00    -0.379 OA
HETATM    8  C   UNL     1      25.983  43.862  49.819  1.00  0.00     0.198 C 
ENDROOT
BRANCH   1   9
HETATM    9  N   UNL     1      26.735  41.681  48.815  1.00  0.00    -0.274 N 
HETATM   10  N   UNL     1      27.581  41.603  47.776  1.00  0.00     0.005 NA
HETATM   11  N   UNL     1      27.161  40.634  46.977  1.00  0.00    -0.161 NA
HETATM   12  C   UNL     1      26.024  40.096  47.521  1.00  0.00     0.095 A 
HETATM   13  C   UNL     1      25.742  40.749  48.702  1.00  0.00     0.139 A 
BRANCH  12  14
HETATM   14  C   UNL     1      25.326  38.974  46.840  1.00  0.00     0.296 C 
BRANCH  14  15
HETATM   15  N   UNL     1      26.164  37.721  46.698  1.00  0.00    -0.066 N 
HETATM   16  C   UNL     1      25.658  36.841  45.591  1.00  0.00     0.270 C 
HETATM   17  H   UNL     1      27.104  38.044  46.430  1.00  0.00     0.280 HD
BRANCH  15  18
HETATM   18  C   UNL     1      26.331  36.989  48.013  1.00  0.00     0.273 C 
BRANCH  18  19
HETATM   19  C   UNL     1      27.637  37.261  48.707  1.00  0.00    -0.033 A 
HETATM   20  C   UNL     1      27.802  36.964  50.069  1.00  0.00     0.009 A 
HETATM   21  C   UNL     1      29.011  37.243  50.708  1.00  0.00     0.001 A 
HETATM   22  C   UNL     1      30.066  37.810  49.996  1.00  0.00     0.000 A 
HETATM   23  C   UNL     1      29.917  38.096  48.641  1.00  0.00     0.001 A 
HETATM   24  C   UNL     1      28.709  37.825  47.998  1.00  0.00     0.009 A 
ENDBRANCH  18  19
ENDBRANCH  15  18
ENDBRANCH  14  15
ENDBRANCH  12  14
ENDBRANCH   1   9
BRANCH   4  25
HETATM   25  N   UNL     1      27.235  44.379  54.120  1.00  0.00    -0.062 N 
HETATM   26  H   UNL     1      26.228  44.608  54.147  1.00  0.00     0.278 HD
HETATM   27  H   UNL     1      27.397  43.821  54.970  1.00  0.00     0.278 HD
BRANCH  25  28
HETATM   28  C   UNL     1      27.968  45.673  54.273  1.00  0.00     0.273 C 
BRANCH  28  29
HETATM   29  C   UNL     1      28.637  45.710  55.593  1.00  0.00    -0.005 A 
HETATM   30  C   UNL     1      29.740  44.892  56.005  1.00  0.00    -0.000 A 
HETATM   31  C   UNL     1      30.043  45.240  57.320  1.00  0.00     0.043 A 
HETATM   32  C   UNL     1      30.510  43.888  55.379  1.00  0.00     0.014 A 
HETATM   33  C   UNL     1      31.074  44.633  58.045  1.00  0.00     0.030 A 
HETATM   34  N   UNL     1      29.178  46.241  57.693  1.00  0.00    -0.365 N 
HETATM   35  C   UNL     1      31.819  43.639  57.407  1.00  0.00     0.002 A 
HETATM   36  C   UNL     1      31.544  43.270  56.092  1.00  0.00     0.001 A 
HETATM   37  H   UNL     1      29.191  46.701  58.596  1.00  0.00     0.165 HD
HETATM   38  C   UNL     1      28.312  46.520  56.665  1.00  0.00     0.098 A 
ENDBRANCH  28  29
ENDBRANCH  25  28
ENDBRANCH   4  25
TORSDOF 8
ENDMDL
