MODEL 1
REMARK VINA RESULT:      -9.9      0.000      0.000
REMARK  5 active torsions:
REMARK  status: ('A' for Active; 'I' for Inactive)
REMARK    1  A    between atoms: C_2  and  N_3 
REMARK    2  A    between atoms: C_7  and  N_8 
REMARK       I    between atoms: N_8  and  C_9 
REMARK    3  A    between atoms: C_9  and  C_10 
REMARK    4  A    between atoms: C_10  and  C_11 
REMARK    5  A    between atoms: C_11  and  C_12 
ROOT
HETATM    1  C   UNL     1      28.442  44.875  54.146  1.00  0.00    -0.028 A 
HETATM    2  C   UNL     1      27.956  45.966  54.793  1.00  0.00     0.015 A 
HETATM    3  C   UNL     1      26.847  46.874  54.329  1.00  0.00     0.069 C 
HETATM    4  N   UNL     1      28.507  46.354  55.996  1.00  0.00    -0.326 N 
HETATM    5  C   UNL     1      29.541  45.736  56.641  1.00  0.00     0.266 A 
HETATM    6  O   UNL     1      29.965  46.152  57.712  1.00  0.00    -0.267 OA
HETATM    7  C   UNL     1      30.102  44.552  55.959  1.00  0.00     0.105 A 
HETATM    8  C   UNL     1      31.250  43.836  56.654  1.00  0.00     0.026 C 
HETATM    9  N   UNL     1      32.200  43.243  57.231  1.00  0.00    -0.096 N 
HETATM   10  C   UNL     1      29.587  44.139  54.777  1.00  0.00    -0.029 A 
HETATM   11  C   UNL     1      30.155  42.934  54.054  1.00  0.00     0.050 C 
HETATM   12  H   UNL     1      28.151  47.171  56.480  1.00  0.00     0.169 HD
ENDROOT
BRANCH   1  13
HETATM   13  C   UNL     1      27.953  44.299  52.811  1.00  0.00     0.050 C 
BRANCH  13  14
HETATM   14  C   UNL     1      26.730  43.383  52.734  1.00  0.00     0.108 C 
BRANCH  14  15
HETATM   15  C   UNL     1      25.492  44.138  52.274  1.00  0.00     0.222 C 
HETATM   16  N   UNL     1      25.539  44.503  50.940  1.00  0.00    -0.327 N 
HETATM   17  H   UNL     1      26.391  44.297  50.435  1.00  0.00     0.169 HD
HETATM   18  O   UNL     1      24.583  44.371  53.065  1.00  0.00    -0.273 OA
BRANCH  16  19
HETATM   19  C   UNL     1      24.532  45.153  50.193  1.00  0.00     0.035 A 
HETATM   20  C   UNL     1      24.500  46.532  49.966  1.00  0.00     0.044 A 
HETATM   21  C   UNL     1      23.433  47.111  49.236  1.00  0.00     0.005 A 
HETATM   22  C   UNL     1      22.429  46.283  48.734  1.00  0.00     0.046 A 
HETATM   23  C   UNL     1      23.109  48.456  48.872  1.00  0.00     0.003 A 
HETATM   24  N   UNL     1      21.529  47.096  48.070  1.00  0.00    -0.346 N 
HETATM   25  C   UNL     1      22.450  44.895  48.937  1.00  0.00     0.033 A 
HETATM   26  C   UNL     1      21.916  48.422  48.147  1.00  0.00     0.046 A 
HETATM   27  C   UNL     1      21.323  49.591  47.640  1.00  0.00     0.030 A 
HETATM   28  C   UNL     1      21.954  50.814  47.887  1.00  0.00     0.002 A 
HETATM   29  C   UNL     1      23.141  50.871  48.610  1.00  0.00     0.001 A 
HETATM   30  C   UNL     1      23.728  49.702  49.104  1.00  0.00     0.014 A 
HETATM   31  C   UNL     1      23.506  44.353  49.680  1.00  0.00     0.032 A 
BRANCH  24  32
HETATM   32  C   UNL     1      20.330  46.628  47.394  1.00  0.00     0.125 C 
HETATM   33  C   UNL     1      19.161  46.460  48.348  1.00  0.00     0.027 C 
ENDBRANCH  24  32
ENDBRANCH  16  19
ENDBRANCH  14  15
ENDBRANCH  13  14
ENDBRANCH   1  13
TORSDOF 5
ENDMDL
MODEL 2
REMARK VINA RESULT:      -9.9      1.284      2.687
REMARK  5 active torsions:
REMARK  status: ('A' for Active; 'I' for Inactive)
REMARK    1  A    between atoms: C_2  and  N_3 
REMARK    2  A    between atoms: C_7  and  N_8 
REMARK       I    between atoms: N_8  and  C_9 
REMARK    3  A    between atoms: C_9  and  C_10 
REMARK    4  A    between atoms: C_10  and  C_11 
REMARK    5  A    between atoms: C_11  and  C_12 
ROOT
HETATM    1  C   UNL     1      28.239  44.689  54.143  1.00  0.00    -0.028 A 
HETATM    2  C   UNL     1      27.934  45.906  54.665  1.00  0.00     0.015 A 
HETATM    3  C   UNL     1      26.874  46.860  54.180  1.00  0.00     0.069 C 
HETATM    4  N   UNL     1      28.648  46.390  55.742  1.00  0.00    -0.326 N 
HETATM    5  C   UNL     1      29.681  45.754  56.369  1.00  0.00     0.266 A 
HETATM    6  O   UNL     1      30.258  46.262  57.324  1.00  0.00    -0.267 OA
HETATM    7  C   UNL     1      30.047  44.433  55.819  1.00  0.00     0.105 A 
HETATM    8  C   UNL     1      31.189  43.695  56.501  1.00  0.00     0.026 C 
HETATM    9  N   UNL     1      32.134  43.084  57.067  1.00  0.00    -0.096 N 
HETATM   10  C   UNL     1      29.368  43.923  54.764  1.00  0.00    -0.029 A 
HETATM   11  C   UNL     1      29.735  42.575  54.177  1.00  0.00     0.050 C 
HETATM   12  H   UNL     1      28.427  47.299  56.132  1.00  0.00     0.169 HD
ENDROOT
BRANCH   1  13
HETATM   13  C   UNL     1      27.553  43.995  52.959  1.00  0.00     0.050 C 
BRANCH  13  14
HETATM   14  C   UNL     1      28.140  44.055  51.547  1.00  0.00     0.108 C 
BRANCH  14  15
HETATM   15  C   UNL     1      27.133  44.598  50.544  1.00  0.00     0.222 C 
HETATM   16  N   UNL     1      26.461  45.718  50.997  1.00  0.00    -0.327 N 
HETATM   17  H   UNL     1      26.650  46.018  51.945  1.00  0.00     0.169 HD
HETATM   18  O   UNL     1      26.982  44.041  49.461  1.00  0.00    -0.273 OA
BRANCH  16  19
HETATM   19  C   UNL     1      25.515  46.495  50.292  1.00  0.00     0.035 A 
HETATM   20  C   UNL     1      24.272  46.013  49.870  1.00  0.00     0.044 A 
HETATM   21  C   UNL     1      23.396  46.847  49.134  1.00  0.00     0.005 A 
HETATM   22  C   UNL     1      23.784  48.158  48.854  1.00  0.00     0.046 A 
HETATM   23  C   UNL     1      22.105  46.644  48.552  1.00  0.00     0.003 A 
HETATM   24  N   UNL     1      22.755  48.740  48.138  1.00  0.00    -0.346 N 
HETATM   25  C   UNL     1      25.020  48.666  49.282  1.00  0.00     0.033 A 
HETATM   26  C   UNL     1      21.727  47.837  47.934  1.00  0.00     0.046 A 
HETATM   27  C   UNL     1      20.498  47.969  47.263  1.00  0.00     0.030 A 
HETATM   28  C   UNL     1      19.649  46.859  47.216  1.00  0.00     0.002 A 
HETATM   29  C   UNL     1      20.007  45.659  47.822  1.00  0.00     0.001 A 
HETATM   30  C   UNL     1      21.228  45.540  48.492  1.00  0.00     0.014 A 
HETATM   31  C   UNL     1      25.875  47.812  49.989  1.00  0.00     0.032 A 
BRANCH  24  32
HETATM   32  C   UNL     1      22.754  50.110  47.649  1.00  0.00     0.125 C 
HETATM   33  C   UNL     1      22.212  51.087  48.678  1.00  0.00     0.027 C 
ENDBRANCH  24  32
ENDBRANCH  16  19
ENDBRANCH  14  15
ENDBRANCH  13  14
ENDBRANCH   1  13
TORSDOF 5
ENDMDL
MODEL 3
REMARK VINA RESULT:      -9.2      5.746      7.894
REMARK  5 active torsions:
REMARK  status: ('A' for Active; 'I' for Inactive)
REMARK    1  A    between atoms: C_2  and  N_3 
REMARK    2  A    between atoms: C_7  and  N_8 
REMARK       I    between atoms: N_8  and  C_9 
REMARK    3  A    between atoms: C_9  and  C_10 
REMARK    4  A    between atoms: C_10  and  C_11 
REMARK    5  A    between atoms: C_11  and  C_12 
ROOT
HETATM    1  C   UNL     1      28.891  43.850  53.866  1.00  0.00    -0.028 A 
HETATM    2  C   UNL     1      27.868  44.648  53.464  1.00  0.00     0.015 A 
HETATM    3  C   UNL     1      27.022  44.484  52.229  1.00  0.00     0.069 C 
HETATM    4  N   UNL     1      27.531  45.760  54.209  1.00  0.00    -0.326 N 
HETATM    5  C   UNL     1      28.143  46.170  55.359  1.00  0.00     0.266 A 
HETATM    6  O   UNL     1      27.773  47.173  55.957  1.00  0.00    -0.267 OA
HETATM    7  C   UNL     1      29.268  45.330  55.818  1.00  0.00     0.105 A 
HETATM    8  C   UNL     1      29.966  45.755  57.100  1.00  0.00     0.026 C 
HETATM    9  N   UNL     1      30.544  46.107  58.163  1.00  0.00    -0.096 N 
HETATM   10  C   UNL     1      29.628  44.230  55.115  1.00  0.00    -0.029 A 
HETATM   11  C   UNL     1      30.787  43.361  55.562  1.00  0.00     0.050 C 
HETATM   12  H   UNL     1      26.772  46.362  53.910  1.00  0.00     0.169 HD
ENDROOT
BRANCH   1  13
HETATM   13  C   UNL     1      29.399  42.580  53.170  1.00  0.00     0.050 C 
BRANCH  13  14
HETATM   14  C   UNL     1      28.640  41.255  53.269  1.00  0.00     0.108 C 
BRANCH  14  15
HETATM   15  C   UNL     1      28.071  40.832  51.923  1.00  0.00     0.222 C 
HETATM   16  N   UNL     1      28.907  39.986  51.218  1.00  0.00    -0.327 N 
HETATM   17  H   UNL     1      29.814  39.790  51.622  1.00  0.00     0.169 HD
HETATM   18  O   UNL     1      26.974  41.246  51.562  1.00  0.00    -0.273 OA
BRANCH  16  19
HETATM   19  C   UNL     1      28.652  39.368  49.974  1.00  0.00     0.035 A 
HETATM   20  C   UNL     1      28.544  40.064  48.766  1.00  0.00     0.044 A 
HETATM   21  C   UNL     1      28.249  39.372  47.567  1.00  0.00     0.005 A 
HETATM   22  C   UNL     1      28.085  37.987  47.607  1.00  0.00     0.046 A 
HETATM   23  C   UNL     1      28.051  39.793  46.214  1.00  0.00     0.003 A 
HETATM   24  N   UNL     1      27.811  37.575  46.316  1.00  0.00    -0.346 N 
HETATM   25  C   UNL     1      28.203  37.268  48.805  1.00  0.00     0.033 A 
HETATM   26  C   UNL     1      27.777  38.655  45.453  1.00  0.00     0.046 A 
HETATM   27  C   UNL     1      27.532  38.729  44.070  1.00  0.00     0.030 A 
HETATM   28  C   UNL     1      27.558  39.986  43.460  1.00  0.00     0.002 A 
HETATM   29  C   UNL     1      27.825  41.133  44.199  1.00  0.00     0.001 A 
HETATM   30  C   UNL     1      28.074  41.050  45.573  1.00  0.00     0.014 A 
HETATM   31  C   UNL     1      28.476  37.980  49.979  1.00  0.00     0.032 A 
BRANCH  24  32
HETATM   32  C   UNL     1      27.576  36.197  45.917  1.00  0.00     0.125 C 
HETATM   33  C   UNL     1      28.849  35.504  45.463  1.00  0.00     0.027 C 
ENDBRANCH  24  32
ENDBRANCH  16  19
ENDBRANCH  14  15
ENDBRANCH  13  14
ENDBRANCH   1  13
TORSDOF 5
ENDMDL
MODEL 4
REMARK VINA RESULT:      -9.0      3.076     10.538
REMARK  5 active torsions:
REMARK  status: ('A' for Active; 'I' for Inactive)
REMARK    1  A    between atoms: C_2  and  N_3 
REMARK    2  A    between atoms: C_7  and  N_8 
REMARK       I    between atoms: N_8  and  C_9 
REMARK    3  A    between atoms: C_9  and  C_10 
REMARK    4  A    between atoms: C_10  and  C_11 
REMARK    5  A    between atoms: C_11  and  C_12 
ROOT
HETATM    1  C   UNL     1      21.017  49.088  48.189  1.00  0.00    -0.028 A 
HETATM    2  C   UNL     1      20.698  47.885  47.645  1.00  0.00     0.015 A 
HETATM    3  C   UNL     1      21.457  46.593  47.797  1.00  0.00     0.069 C 
HETATM    4  N   UNL     1      19.586  47.769  46.836  1.00  0.00    -0.326 N 
HETATM    5  C   UNL     1      18.731  48.780  46.501  1.00  0.00     0.266 A 
HETATM    6  O   UNL     1      17.763  48.583  45.776  1.00  0.00    -0.267 OA
HETATM    7  C   UNL     1      19.055  50.106  47.067  1.00  0.00     0.105 A 
HETATM    8  C   UNL     1      18.117  51.251  46.720  1.00  0.00     0.026 C 
HETATM    9  N   UNL     1      17.339  52.199  46.432  1.00  0.00    -0.096 N 
HETATM   10  C   UNL     1      20.137  50.258  47.867  1.00  0.00    -0.029 A 
HETATM   11  C   UNL     1      20.494  51.612  48.448  1.00  0.00     0.050 C 
HETATM   12  H   UNL     1      19.347  46.875  46.424  1.00  0.00     0.169 HD
ENDROOT
BRANCH   1  13
HETATM   13  C   UNL     1      22.206  49.399  49.109  1.00  0.00     0.050 C 
BRANCH  13  14
HETATM   14  C   UNL     1      23.595  49.703  48.545  1.00  0.00     0.108 C 
BRANCH  14  15
HETATM   15  C   UNL     1      24.661  48.821  49.178  1.00  0.00     0.222 C 
HETATM   16  N   UNL     1      24.147  47.894  50.066  1.00  0.00    -0.327 N 
HETATM   17  H   UNL     1      23.153  47.935  50.252  1.00  0.00     0.169 HD
HETATM   18  O   UNL     1      25.843  48.978  48.885  1.00  0.00    -0.273 OA
BRANCH  16  19
HETATM   19  C   UNL     1      24.855  46.893  50.768  1.00  0.00     0.035 A 
HETATM   20  C   UNL     1      25.599  47.135  51.927  1.00  0.00     0.044 A 
HETATM   21  C   UNL     1      26.311  46.082  52.550  1.00  0.00     0.005 A 
HETATM   22  C   UNL     1      26.244  44.801  52.001  1.00  0.00     0.046 A 
HETATM   23  C   UNL     1      27.163  46.017  53.698  1.00  0.00     0.003 A 
HETATM   24  N   UNL     1      27.018  43.978  52.798  1.00  0.00    -0.346 N 
HETATM   25  C   UNL     1      25.492  44.534  50.848  1.00  0.00     0.033 A 
HETATM   26  C   UNL     1      27.594  44.696  53.831  1.00  0.00     0.046 A 
HETATM   27  C   UNL     1      28.451  44.297  54.871  1.00  0.00     0.030 A 
HETATM   28  C   UNL     1      28.883  45.266  55.781  1.00  0.00     0.002 A 
HETATM   29  C   UNL     1      28.469  46.589  55.665  1.00  0.00     0.001 A 
HETATM   30  C   UNL     1      27.610  46.975  54.632  1.00  0.00     0.014 A 
HETATM   31  C   UNL     1      24.814  45.599  50.241  1.00  0.00     0.032 A 
BRANCH  24  32
HETATM   32  C   UNL     1      27.215  42.554  52.577  1.00  0.00     0.125 C 
HETATM   33  C   UNL     1      28.406  42.272  51.678  1.00  0.00     0.027 C 
ENDBRANCH  24  32
ENDBRANCH  16  19
ENDBRANCH  14  15
ENDBRANCH  13  14
ENDBRANCH   1  13
TORSDOF 5
ENDMDL
MODEL 5
REMARK VINA RESULT:      -9.0      5.404     10.512
REMARK  5 active torsions:
REMARK  status: ('A' for Active; 'I' for Inactive)
REMARK    1  A    between atoms: C_2  and  N_3 
REMARK    2  A    between atoms: C_7  and  N_8 
REMARK       I    between atoms: N_8  and  C_9 
REMARK    3  A    between atoms: C_9  and  C_10 
REMARK    4  A    between atoms: C_10  and  C_11 
REMARK    5  A    between atoms: C_11  and  C_12 
ROOT
HETATM    1  C   UNL     1      26.779  39.587  47.912  1.00  0.00    -0.028 A 
HETATM    2  C   UNL     1      25.482  39.992  47.932  1.00  0.00     0.015 A 
HETATM    3  C   UNL     1      24.915  41.177  48.669  1.00  0.00     0.069 C 
HETATM    4  N   UNL     1      24.527  39.272  47.245  1.00  0.00    -0.326 N 
HETATM    5  C   UNL     1      24.749  38.139  46.514  1.00  0.00     0.266 A 
HETATM    6  O   UNL     1      23.835  37.566  45.932  1.00  0.00    -0.267 OA
HETATM    7  C   UNL     1      26.147  37.664  46.481  1.00  0.00     0.105 A 
HETATM    8  C   UNL     1      26.429  36.410  45.669  1.00  0.00     0.026 C 
HETATM    9  N   UNL     1      26.663  35.371  44.995  1.00  0.00    -0.096 N 
HETATM   10  C   UNL     1      27.113  38.345  47.141  1.00  0.00    -0.029 A 
HETATM   11  C   UNL     1      28.552  37.868  47.130  1.00  0.00     0.050 C 
HETATM   12  H   UNL     1      23.557  39.567  47.261  1.00  0.00     0.169 HD
ENDROOT
BRANCH   1  13
HETATM   13  C   UNL     1      27.968  40.262  48.610  1.00  0.00     0.050 C 
BRANCH  13  14
HETATM   14  C   UNL     1      28.469  39.786  49.975  1.00  0.00     0.108 C 
BRANCH  14  15
HETATM   15  C   UNL     1      28.043  40.732  51.088  1.00  0.00     0.222 C 
HETATM   16  N   UNL     1      29.086  41.490  51.590  1.00  0.00    -0.327 N 
HETATM   17  H   UNL     1      30.011  41.300  51.226  1.00  0.00     0.169 HD
HETATM   18  O   UNL     1      26.873  40.762  51.457  1.00  0.00    -0.273 OA
BRANCH  16  19
HETATM   19  C   UNL     1      29.017  42.498  52.576  1.00  0.00     0.035 A 
HETATM   20  C   UNL     1      29.864  42.560  53.686  1.00  0.00     0.044 A 
HETATM   21  C   UNL     1      29.705  43.585  54.650  1.00  0.00     0.005 A 
HETATM   22  C   UNL     1      28.703  44.538  54.465  1.00  0.00     0.046 A 
HETATM   23  C   UNL     1      30.375  43.893  55.876  1.00  0.00     0.003 A 
HETATM   24  N   UNL     1      28.771  45.409  55.537  1.00  0.00    -0.346 N 
HETATM   25  C   UNL     1      27.852  44.503  53.351  1.00  0.00     0.033 A 
HETATM   26  C   UNL     1      29.774  45.034  56.412  1.00  0.00     0.046 A 
HETATM   27  C   UNL     1      30.205  45.599  57.625  1.00  0.00     0.030 A 
HETATM   28  C   UNL     1      31.261  44.982  58.304  1.00  0.00     0.002 A 
HETATM   29  C   UNL     1      31.872  43.844  57.790  1.00  0.00     0.001 A 
HETATM   30  C   UNL     1      31.441  43.292  56.579  1.00  0.00     0.014 A 
HETATM   31  C   UNL     1      28.019  43.467  52.425  1.00  0.00     0.032 A 
BRANCH  24  32
HETATM   32  C   UNL     1      27.900  46.558  55.730  1.00  0.00     0.125 C 
HETATM   33  C   UNL     1      27.976  47.538  54.573  1.00  0.00     0.027 C 
ENDBRANCH  24  32
ENDBRANCH  16  19
ENDBRANCH  14  15
ENDBRANCH  13  14
ENDBRANCH   1  13
TORSDOF 5
ENDMDL
MODEL 6
REMARK VINA RESULT:      -8.9      3.200     10.064
REMARK  5 active torsions:
REMARK  status: ('A' for Active; 'I' for Inactive)
REMARK    1  A    between atoms: C_2  and  N_3 
REMARK    2  A    between atoms: C_7  and  N_8 
REMARK       I    between atoms: N_8  and  C_9 
REMARK    3  A    between atoms: C_9  and  C_10 
REMARK    4  A    between atoms: C_10  and  C_11 
REMARK    5  A    between atoms: C_11  and  C_12 
ROOT
HETATM    1  C   UNL     1      20.827  49.390  47.851  1.00  0.00    -0.028 A 
HETATM    2  C   UNL     1      19.840  50.294  48.081  1.00  0.00     0.015 A 
HETATM    3  C   UNL     1      20.008  51.747  48.441  1.00  0.00     0.069 C 
HETATM    4  N   UNL     1      18.519  49.900  48.016  1.00  0.00    -0.326 N 
HETATM    5  C   UNL     1      18.071  48.640  47.739  1.00  0.00     0.266 A 
HETATM    6  O   UNL     1      16.874  48.382  47.700  1.00  0.00    -0.267 OA
HETATM    7  C   UNL     1      19.120  47.629  47.496  1.00  0.00     0.105 A 
HETATM    8  C   UNL     1      18.655  46.217  47.175  1.00  0.00     0.026 C 
HETATM    9  N   UNL     1      18.268  45.047  46.910  1.00  0.00    -0.096 N 
HETATM   10  C   UNL     1      20.428  47.977  47.548  1.00  0.00    -0.029 A 
HETATM   11  C   UNL     1      21.520  46.953  47.313  1.00  0.00     0.050 C 
HETATM   12  H   UNL     1      17.779  50.570  48.192  1.00  0.00     0.169 HD
ENDROOT
BRANCH   1  13
HETATM   13  C   UNL     1      22.340  49.649  47.876  1.00  0.00     0.050 C 
BRANCH  13  14
HETATM   14  C   UNL     1      23.096  49.849  49.191  1.00  0.00     0.108 C 
BRANCH  14  15
HETATM   15  C   UNL     1      24.220  48.836  49.351  1.00  0.00     0.222 C 
HETATM   16  N   UNL     1      23.866  47.745  50.124  1.00  0.00    -0.327 N 
HETATM   17  H   UNL     1      22.947  47.759  50.549  1.00  0.00     0.169 HD
HETATM   18  O   UNL     1      25.309  49.036  48.821  1.00  0.00    -0.273 OA
BRANCH  16  19
HETATM   19  C   UNL     1      24.651  46.606  50.411  1.00  0.00     0.035 A 
HETATM   20  C   UNL     1      25.401  46.453  51.581  1.00  0.00     0.044 A 
HETATM   21  C   UNL     1      26.191  45.295  51.775  1.00  0.00     0.005 A 
HETATM   22  C   UNL     1      26.195  44.305  50.792  1.00  0.00     0.046 A 
HETATM   23  C   UNL     1      27.068  44.869  52.823  1.00  0.00     0.003 A 
HETATM   24  N   UNL     1      27.036  43.300  51.234  1.00  0.00    -0.346 N 
HETATM   25  C   UNL     1      25.439  44.432  49.618  1.00  0.00     0.033 A 
HETATM   26  C   UNL     1      27.586  43.623  52.461  1.00  0.00     0.046 A 
HETATM   27  C   UNL     1      28.488  42.928  53.285  1.00  0.00     0.030 A 
HETATM   28  C   UNL     1      28.875  43.521  54.491  1.00  0.00     0.002 A 
HETATM   29  C   UNL     1      28.375  44.762  54.869  1.00  0.00     0.001 A 
HETATM   30  C   UNL     1      27.472  45.444  54.046  1.00  0.00     0.014 A 
HETATM   31  C   UNL     1      24.682  45.597  49.443  1.00  0.00     0.032 A 
BRANCH  24  32
HETATM   32  C   UNL     1      27.320  42.074  50.504  1.00  0.00     0.125 C 
HETATM   33  C   UNL     1      26.308  40.981  50.801  1.00  0.00     0.027 C 
ENDBRANCH  24  32
ENDBRANCH  16  19
ENDBRANCH  14  15
ENDBRANCH  13  14
ENDBRANCH   1  13
TORSDOF 5
ENDMDL
MODEL 7
REMARK VINA RESULT:      -8.6      3.623      5.248
REMARK  5 active torsions:
REMARK  status: ('A' for Active; 'I' for Inactive)
REMARK    1  A    between atoms: C_2  and  N_3 
REMARK    2  A    between atoms: C_7  and  N_8 
REMARK       I    between atoms: N_8  and  C_9 
REMARK    3  A    between atoms: C_9  and  C_10 
REMARK    4  A    between atoms: C_10  and  C_11 
REMARK    5  A    between atoms: C_11  and  C_12 
ROOT
HETATM    1  C   UNL     1      27.676  41.270  50.799  1.00  0.00    -0.028 A 
HETATM    2  C   UNL     1      28.431  40.742  51.798  1.00  0.00     0.015 A 
HETATM    3  C   UNL     1      28.604  41.292  53.190  1.00  0.00     0.069 C 
HETATM    4  N   UNL     1      29.161  39.594  51.574  1.00  0.00    -0.326 N 
HETATM    5  C   UNL     1      29.218  38.896  50.401  1.00  0.00     0.266 A 
HETATM    6  O   UNL     1      29.894  37.880  50.294  1.00  0.00    -0.267 OA
HETATM    7  C   UNL     1      28.417  39.450  49.289  1.00  0.00     0.105 A 
HETATM    8  C   UNL     1      28.452  38.692  47.971  1.00  0.00     0.026 C 
HETATM    9  N   UNL     1      28.480  38.063  46.880  1.00  0.00    -0.096 N 
HETATM   10  C   UNL     1      27.686  40.574  49.471  1.00  0.00    -0.029 A 
HETATM   11  C   UNL     1      26.867  41.166  48.341  1.00  0.00     0.050 C 
HETATM   12  H   UNL     1      29.730  39.199  52.314  1.00  0.00     0.169 HD
ENDROOT
BRANCH   1  13
HETATM   13  C   UNL     1      26.803  42.530  50.870  1.00  0.00     0.050 C 
BRANCH  13  14
HETATM   14  C   UNL     1      27.410  43.931  50.771  1.00  0.00     0.108 C 
BRANCH  14  15
HETATM   15  C   UNL     1      26.545  44.859  49.931  1.00  0.00     0.222 C 
HETATM   16  N   UNL     1      25.190  44.612  50.065  1.00  0.00    -0.327 N 
HETATM   17  H   UNL     1      24.919  43.822  50.637  1.00  0.00     0.169 HD
HETATM   18  O   UNL     1      27.067  45.716  49.224  1.00  0.00    -0.273 OA
BRANCH  16  19
HETATM   19  C   UNL     1      24.125  45.328  49.476  1.00  0.00     0.035 A 
HETATM   20  C   UNL     1      24.026  46.723  49.487  1.00  0.00     0.044 A 
HETATM   21  C   UNL     1      22.905  47.364  48.906  1.00  0.00     0.005 A 
HETATM   22  C   UNL     1      21.914  46.584  48.309  1.00  0.00     0.046 A 
HETATM   23  C   UNL     1      22.510  48.733  48.786  1.00  0.00     0.003 A 
HETATM   24  N   UNL     1      20.952  47.452  47.827  1.00  0.00    -0.346 N 
HETATM   25  C   UNL     1      22.001  45.185  48.274  1.00  0.00     0.033 A 
HETATM   26  C   UNL     1      21.287  48.764  48.112  1.00  0.00     0.046 A 
HETATM   27  C   UNL     1      20.625  49.971  47.832  1.00  0.00     0.030 A 
HETATM   28  C   UNL     1      21.216  51.165  48.258  1.00  0.00     0.002 A 
HETATM   29  C   UNL     1      22.431  51.158  48.935  1.00  0.00     0.001 A 
HETATM   30  C   UNL     1      23.087  49.952  49.203  1.00  0.00     0.014 A 
HETATM   31  C   UNL     1      23.110  44.577  48.874  1.00  0.00     0.032 A 
BRANCH  24  32
HETATM   32  C   UNL     1      19.743  47.048  47.127  1.00  0.00     0.125 C 
HETATM   33  C   UNL     1      20.001  46.749  45.660  1.00  0.00     0.027 C 
ENDBRANCH  24  32
ENDBRANCH  16  19
ENDBRANCH  14  15
ENDBRANCH  13  14
ENDBRANCH   1  13
TORSDOF 5
ENDMDL
MODEL 8
REMARK VINA RESULT:      -8.6      2.921     10.382
REMARK  5 active torsions:
REMARK  status: ('A' for Active; 'I' for Inactive)
REMARK    1  A    between atoms: C_2  and  N_3 
REMARK    2  A    between atoms: C_7  and  N_8 
REMARK       I    between atoms: N_8  and  C_9 
REMARK    3  A    between atoms: C_9  and  C_10 
REMARK    4  A    between atoms: C_10  and  C_11 
REMARK    5  A    between atoms: C_11  and  C_12 
ROOT
HETATM    1  C   UNL     1      20.623  47.631  47.109  1.00  0.00    -0.028 A 
HETATM    2  C   UNL     1      19.525  47.219  46.422  1.00  0.00     0.015 A 
HETATM    3  C   UNL     1      19.325  45.885  45.752  1.00  0.00     0.069 C 
HETATM    4  N   UNL     1      18.453  48.072  46.265  1.00  0.00    -0.326 N 
HETATM    5  C   UNL     1      18.369  49.350  46.740  1.00  0.00     0.266 A 
HETATM    6  O   UNL     1      17.371  50.037  46.553  1.00  0.00    -0.267 OA
HETATM    7  C   UNL     1      19.551  49.835  47.482  1.00  0.00     0.105 A 
HETATM    8  C   UNL     1      19.486  51.251  48.032  1.00  0.00     0.026 C 
HETATM    9  N   UNL     1      19.431  52.424  48.489  1.00  0.00    -0.096 N 
HETATM   10  C   UNL     1      20.622  49.026  47.659  1.00  0.00    -0.029 A 
HETATM   11  C   UNL     1      21.850  49.507  48.407  1.00  0.00     0.050 C 
HETATM   12  H   UNL     1      17.634  47.771  45.749  1.00  0.00     0.169 HD
ENDROOT
BRANCH   1  13
HETATM   13  C   UNL     1      21.897  46.822  47.384  1.00  0.00     0.050 C 
BRANCH  13  14
HETATM   14  C   UNL     1      21.936  45.730  48.456  1.00  0.00     0.108 C 
BRANCH  14  15
HETATM   15  C   UNL     1      23.215  45.796  49.276  1.00  0.00     0.222 C 
HETATM   16  N   UNL     1      23.351  44.742  50.161  1.00  0.00    -0.327 N 
HETATM   17  H   UNL     1      22.581  44.088  50.222  1.00  0.00     0.169 HD
HETATM   18  O   UNL     1      24.000  46.726  49.119  1.00  0.00    -0.273 OA
BRANCH  16  19
HETATM   19  C   UNL     1      24.443  44.474  51.016  1.00  0.00     0.035 A 
HETATM   20  C   UNL     1      24.948  45.390  51.944  1.00  0.00     0.044 A 
HETATM   21  C   UNL     1      26.071  45.057  52.738  1.00  0.00     0.005 A 
HETATM   22  C   UNL     1      26.653  43.797  52.592  1.00  0.00     0.046 A 
HETATM   23  C   UNL     1      26.820  45.768  53.728  1.00  0.00     0.003 A 
HETATM   24  N   UNL     1      27.714  43.737  53.477  1.00  0.00    -0.346 N 
HETATM   25  C   UNL     1      26.154  42.858  51.678  1.00  0.00     0.033 A 
HETATM   26  C   UNL     1      27.841  44.926  54.173  1.00  0.00     0.046 A 
HETATM   27  C   UNL     1      28.761  45.331  55.155  1.00  0.00     0.030 A 
HETATM   28  C   UNL     1      28.641  46.621  55.682  1.00  0.00     0.002 A 
HETATM   29  C   UNL     1      27.635  47.478  55.251  1.00  0.00     0.001 A 
HETATM   30  C   UNL     1      26.719  47.064  54.278  1.00  0.00     0.014 A 
HETATM   31  C   UNL     1      25.055  43.222  50.892  1.00  0.00     0.032 A 
BRANCH  24  32
HETATM   32  C   UNL     1      28.589  42.589  53.648  1.00  0.00     0.125 C 
HETATM   33  C   UNL     1      29.904  42.753  52.905  1.00  0.00     0.027 C 
ENDBRANCH  24  32
ENDBRANCH  16  19
ENDBRANCH  14  15
ENDBRANCH  13  14
ENDBRANCH   1  13
TORSDOF 5
ENDMDL
MODEL 9
REMARK VINA RESULT:      -8.3      4.696      6.606
REMARK  5 active torsions:
REMARK  status: ('A' for Active; 'I' for Inactive)
REMARK    1  A    between atoms: C_2  and  N_3 
REMARK    2  A    between atoms: C_7  and  N_8 
REMARK       I    between atoms: N_8  and  C_9 
REMARK    3  A    between atoms: C_9  and  C_10 
REMARK    4  A    between atoms: C_10  and  C_11 
REMARK    5  A    between atoms: C_11  and  C_12 
ROOT
HETATM    1  C   UNL     1      28.249  45.352  54.698  1.00  0.00    -0.028 A 
HETATM    2  C   UNL     1      28.014  46.441  55.476  1.00  0.00     0.015 A 
HETATM    3  C   UNL     1      26.987  47.518  55.242  1.00  0.00     0.069 C 
HETATM    4  N   UNL     1      28.779  46.657  56.604  1.00  0.00    -0.326 N 
HETATM    5  C   UNL     1      29.798  45.862  57.046  1.00  0.00     0.266 A 
HETATM    6  O   UNL     1      30.423  46.132  58.065  1.00  0.00    -0.267 OA
HETATM    7  C   UNL     1      30.088  44.675  56.216  1.00  0.00     0.105 A 
HETATM    8  C   UNL     1      31.212  43.764  56.685  1.00  0.00     0.026 C 
HETATM    9  N   UNL     1      32.143  43.010  57.074  1.00  0.00    -0.096 N 
HETATM   10  C   UNL     1      29.358  44.428  55.102  1.00  0.00    -0.029 A 
HETATM   11  C   UNL     1      29.646  43.222  54.230  1.00  0.00     0.050 C 
HETATM   12  H   UNL     1      28.611  47.470  57.185  1.00  0.00     0.169 HD
ENDROOT
BRANCH   1  13
HETATM   13  C   UNL     1      27.501  44.954  53.419  1.00  0.00     0.050 C 
BRANCH  13  14
HETATM   14  C   UNL     1      26.034  44.520  53.452  1.00  0.00     0.108 C 
BRANCH  14  15
HETATM   15  C   UNL     1      25.709  43.556  52.321  1.00  0.00     0.222 C 
HETATM   16  N   UNL     1      26.780  42.759  51.958  1.00  0.00    -0.327 N 
HETATM   17  H   UNL     1      27.664  42.936  52.419  1.00  0.00     0.169 HD
HETATM   18  O   UNL     1      24.587  43.545  51.824  1.00  0.00    -0.273 OA
BRANCH  16  19
HETATM   19  C   UNL     1      26.794  41.726  50.995  1.00  0.00     0.035 A 
HETATM   20  C   UNL     1      25.868  41.622  49.952  1.00  0.00     0.044 A 
HETATM   21  C   UNL     1      25.929  40.533  49.050  1.00  0.00     0.005 A 
HETATM   22  C   UNL     1      26.935  39.579  49.207  1.00  0.00     0.046 A 
HETATM   23  C   UNL     1      25.131  40.141  47.929  1.00  0.00     0.003 A 
HETATM   24  N   UNL     1      26.764  38.643  48.204  1.00  0.00    -0.346 N 
HETATM   25  C   UNL     1      27.882  39.672  50.237  1.00  0.00     0.033 A 
HETATM   26  C   UNL     1      25.669  38.958  47.419  1.00  0.00     0.046 A 
HETATM   27  C   UNL     1      25.109  38.308  46.306  1.00  0.00     0.030 A 
HETATM   28  C   UNL     1      23.976  38.871  45.711  1.00  0.00     0.002 A 
HETATM   29  C   UNL     1      23.421  40.047  46.205  1.00  0.00     0.001 A 
HETATM   30  C   UNL     1      23.989  40.691  47.309  1.00  0.00     0.014 A 
HETATM   31  C   UNL     1      27.785  40.748  51.127  1.00  0.00     0.032 A 
BRANCH  24  32
HETATM   32  C   UNL     1      27.608  37.476  48.004  1.00  0.00     0.125 C 
HETATM   33  C   UNL     1      28.768  37.759  47.066  1.00  0.00     0.027 C 
ENDBRANCH  24  32
ENDBRANCH  16  19
ENDBRANCH  14  15
ENDBRANCH  13  14
ENDBRANCH   1  13
TORSDOF 5
ENDMDL
MODEL 10
REMARK VINA RESULT:      -8.3      4.779     10.169
REMARK  5 active torsions:
REMARK  status: ('A' for Active; 'I' for Inactive)
REMARK    1  A    between atoms: C_2  and  N_3 
REMARK    2  A    between atoms: C_7  and  N_8 
REMARK       I    between atoms: N_8  and  C_9 
REMARK    3  A    between atoms: C_9  and  C_10 
REMARK    4  A    between atoms: C_10  and  C_11 
REMARK    5  A    between atoms: C_11  and  C_12 
ROOT
HETATM    1  C   UNL     1      18.544  49.285  48.599  1.00  0.00    -0.028 A 
HETATM    2  C   UNL     1      18.621  48.362  49.592  1.00  0.00     0.015 A 
HETATM    3  C   UNL     1      18.588  48.622  51.075  1.00  0.00     0.069 C 
HETATM    4  N   UNL     1      18.771  47.027  49.279  1.00  0.00    -0.326 N 
HETATM    5  C   UNL     1      18.859  46.504  48.019  1.00  0.00     0.266 A 
HETATM    6  O   UNL     1      18.989  45.300  47.836  1.00  0.00    -0.267 OA
HETATM    7  C   UNL     1      18.790  47.483  46.915  1.00  0.00     0.105 A 
HETATM    8  C   UNL     1      18.877  46.933  45.500  1.00  0.00     0.026 C 
HETATM    9  N   UNL     1      18.949  46.476  44.328  1.00  0.00    -0.096 N 
HETATM   10  C   UNL     1      18.641  48.802  47.183  1.00  0.00    -0.029 A 
HETATM   11  C   UNL     1      18.581  49.825  46.066  1.00  0.00     0.050 C 
HETATM   12  H   UNL     1      18.834  46.334  50.016  1.00  0.00     0.169 HD
ENDROOT
BRANCH   1  13
HETATM   13  C   UNL     1      18.374  50.802  48.760  1.00  0.00     0.050 C 
BRANCH  13  14
HETATM   14  C   UNL     1      19.576  51.748  48.745  1.00  0.00     0.108 C 
BRANCH  14  15
HETATM   15  C   UNL     1      20.818  51.084  49.321  1.00  0.00     0.222 C 
HETATM   16  N   UNL     1      21.566  50.410  48.373  1.00  0.00    -0.327 N 
HETATM   17  H   UNL     1      21.193  50.369  47.433  1.00  0.00     0.169 HD
HETATM   18  O   UNL     1      21.066  51.176  50.519  1.00  0.00    -0.273 OA
BRANCH  16  19
HETATM   19  C   UNL     1      22.799  49.747  48.565  1.00  0.00     0.035 A 
HETATM   20  C   UNL     1      22.920  48.489  49.162  1.00  0.00     0.044 A 
HETATM   21  C   UNL     1      24.198  47.908  49.351  1.00  0.00     0.005 A 
HETATM   22  C   UNL     1      25.327  48.603  48.917  1.00  0.00     0.046 A 
HETATM   23  C   UNL     1      24.642  46.683  49.941  1.00  0.00     0.003 A 
HETATM   24  N   UNL     1      26.425  47.818  49.219  1.00  0.00    -0.346 N 
HETATM   25  C   UNL     1      25.227  49.859  48.303  1.00  0.00     0.033 A 
HETATM   26  C   UNL     1      26.035  46.650  49.849  1.00  0.00     0.046 A 
HETATM   27  C   UNL     1      26.785  45.568  50.342  1.00  0.00     0.030 A 
HETATM   28  C   UNL     1      26.100  44.509  50.947  1.00  0.00     0.002 A 
HETATM   29  C   UNL     1      24.714  44.523  51.052  1.00  0.00     0.001 A 
HETATM   30  C   UNL     1      23.975  45.600  50.553  1.00  0.00     0.014 A 
HETATM   31  C   UNL     1      23.952  50.418  48.147  1.00  0.00     0.032 A 
BRANCH  24  32
HETATM   32  C   UNL     1      27.805  48.173  48.929  1.00  0.00     0.125 C 
HETATM   33  C   UNL     1      28.157  49.564  49.427  1.00  0.00     0.027 C 
ENDBRANCH  24  32
ENDBRANCH  16  19
ENDBRANCH  14  15
ENDBRANCH  13  14
ENDBRANCH   1  13
TORSDOF 5
ENDMDL
