MODEL 1
REMARK VINA RESULT:      -8.6      0.000      0.000
REMARK  7 active torsions:
REMARK  status: ('A' for Active; 'I' for Inactive)
REMARK    1  A    between atoms: C_2  and  C_3 
REMARK    2  A    between atoms: C_3  and  O_4 
REMARK    3  A    between atoms: O_4  and  C_5 
REMARK    4  A    between atoms: C_9  and  C_10 
REMARK    5  A    between atoms: C_10  and  N_11 
REMARK    6  A    between atoms: N_11  and  C_12 
REMARK    7  A    between atoms: C_19  and  C_20 
REMARK       I    between atoms: C_20  and  N_21 
ROOT
HETATM    1  C   UNL     1      25.704  47.112  50.599  1.00  0.00     0.009 A 
HETATM    2  C   UNL     1      24.455  47.494  50.073  1.00  0.00     0.039 A 
HETATM    3  C   UNL     1      24.366  48.516  49.105  1.00  0.00     0.030 A 
HETATM    4  C   UNL     1      25.529  49.161  48.710  1.00  0.00     0.063 A 
HETATM    5  N   UNL     1      25.136  50.089  47.789  1.00  0.00    -0.277 N 
HETATM    6  H   UNL     1      25.724  50.748  47.291  1.00  0.00     0.189 HD
HETATM    7  N   UNL     1      23.814  50.105  47.544  1.00  0.00    -0.168 NA
HETATM    8  C   UNL     1      23.326  49.138  48.354  1.00  0.00     0.156 A 
HETATM    9  C   UNL     1      26.785  48.846  49.232  1.00  0.00     0.034 A 
HETATM   10  C   UNL     1      26.840  47.822  50.190  1.00  0.00     0.026 A 
ENDROOT
BRANCH   1  11
HETATM   11  N   UNL     1      25.726  46.140  51.609  1.00  0.00    -0.289 NA
HETATM   12  H   UNL     1      26.528  45.519  51.516  1.00  0.00     0.128 HD
BRANCH  11  13
HETATM   13  C   UNL     1      25.495  46.539  52.989  1.00  0.00     0.131 C 
BRANCH  13  14
HETATM   14  C   UNL     1      26.734  46.260  53.810  1.00  0.00    -0.043 A 
HETATM   15  C   UNL     1      27.412  45.040  53.700  1.00  0.00     0.035 A 
HETATM   16  C   UNL     1      28.576  44.808  54.441  1.00  0.00     0.068 A 
HETATM   17  C   UNL     1      29.088  45.793  55.297  1.00  0.00     0.090 A 
HETATM   18 CL   UNL     1      29.373  43.286  54.240  1.00  0.00    -0.081 Cl
HETATM   19  C   UNL     1      28.390  46.996  55.437  1.00  0.00     0.039 A 
HETATM   20  C   UNL     1      27.226  47.228  54.696  1.00  0.00     0.011 A 
BRANCH  17  21
HETATM   21  O   UNL     1      30.237  45.500  55.985  1.00  0.00    -0.346 OA
BRANCH  21  22
HETATM   22  C   UNL     1      30.101  45.374  57.400  1.00  0.00     0.202 C 
BRANCH  22  23
HETATM   23  C   UNL     1      31.175  44.440  57.871  1.00  0.00    -0.011 C 
HETATM   24  C   UNL     1      31.542  43.315  57.243  1.00  0.00     0.009 C 
ENDBRANCH  22  23
ENDBRANCH  21  22
ENDBRANCH  17  21
ENDBRANCH  13  14
ENDBRANCH  11  13
ENDBRANCH   1  11
BRANCH   8  25
HETATM   25  C   UNL     1      21.890  48.826  48.393  1.00  0.00     0.270 C 
HETATM   26  N   UNL     1      21.268  49.206  49.551  1.00  0.00    -0.365 N 
HETATM   27  H   UNL     1      21.819  49.658  50.270  1.00  0.00     0.159 HD
HETATM   28  H   UNL     1      20.281  49.038  49.668  1.00  0.00     0.159 HD
HETATM   29  O   UNL     1      21.270  48.280  47.486  1.00  0.00    -0.266 OA
ENDBRANCH   8  25
TORSDOF 7
ENDMDL
MODEL 2
REMARK VINA RESULT:      -8.3      3.660      8.903
REMARK  7 active torsions:
REMARK  status: ('A' for Active; 'I' for Inactive)
REMARK    1  A    between atoms: C_2  and  C_3 
REMARK    2  A    between atoms: C_3  and  O_4 
REMARK    3  A    between atoms: O_4  and  C_5 
REMARK    4  A    between atoms: C_9  and  C_10 
REMARK    5  A    between atoms: C_10  and  N_11 
REMARK    6  A    between atoms: N_11  and  C_12 
REMARK    7  A    between atoms: C_19  and  C_20 
REMARK       I    between atoms: C_20  and  N_21 
ROOT
HETATM    1  C   UNL     1      27.733  43.741  52.474  1.00  0.00     0.009 A 
HETATM    2  C   UNL     1      27.793  44.544  53.629  1.00  0.00     0.039 A 
HETATM    3  C   UNL     1      28.885  44.443  54.518  1.00  0.00     0.030 A 
HETATM    4  C   UNL     1      29.878  43.513  54.248  1.00  0.00     0.063 A 
HETATM    5  N   UNL     1      30.779  43.637  55.267  1.00  0.00    -0.277 N 
HETATM    6  H   UNL     1      31.634  43.108  55.400  1.00  0.00     0.189 HD
HETATM    7  N   UNL     1      30.463  44.573  56.179  1.00  0.00    -0.168 NA
HETATM    8  C   UNL     1      29.291  45.078  55.728  1.00  0.00     0.156 A 
HETATM    9  C   UNL     1      29.843  42.667  53.139  1.00  0.00     0.034 A 
HETATM   10  C   UNL     1      28.746  42.795  52.272  1.00  0.00     0.026 A 
ENDROOT
BRANCH   1  11
HETATM   11  N   UNL     1      26.593  43.833  51.665  1.00  0.00    -0.289 NA
HETATM   12  H   UNL     1      25.845  44.351  52.125  1.00  0.00     0.128 HD
BRANCH  11  13
HETATM   13  C   UNL     1      26.739  44.204  50.266  1.00  0.00     0.131 C 
BRANCH  13  14
HETATM   14  C   UNL     1      26.206  45.604  50.054  1.00  0.00    -0.043 A 
HETATM   15  C   UNL     1      27.065  46.659  49.721  1.00  0.00     0.035 A 
HETATM   16  C   UNL     1      26.555  47.941  49.494  1.00  0.00     0.068 A 
HETATM   17  C   UNL     1      25.178  48.192  49.588  1.00  0.00     0.090 A 
HETATM   18 CL   UNL     1      27.670  49.192  49.065  1.00  0.00    -0.081 Cl
HETATM   19  C   UNL     1      24.325  47.148  49.960  1.00  0.00     0.039 A 
HETATM   20  C   UNL     1      24.836  45.866  50.186  1.00  0.00     0.011 A 
BRANCH  17  21
HETATM   21  O   UNL     1      24.748  49.470  49.344  1.00  0.00    -0.346 OA
BRANCH  21  22
HETATM   22  C   UNL     1      24.175  49.701  48.058  1.00  0.00     0.202 C 
BRANCH  22  23
HETATM   23  C   UNL     1      23.305  50.917  48.166  1.00  0.00    -0.011 C 
HETATM   24  C   UNL     1      22.117  50.957  48.783  1.00  0.00     0.009 C 
ENDBRANCH  22  23
ENDBRANCH  21  22
ENDBRANCH  17  21
ENDBRANCH  13  14
ENDBRANCH  11  13
ENDBRANCH   1  11
BRANCH   8  25
HETATM   25  C   UNL     1      28.591  46.148  56.452  1.00  0.00     0.270 C 
HETATM   26  N   UNL     1      28.850  46.174  57.796  1.00  0.00    -0.365 N 
HETATM   27  H   UNL     1      29.483  45.483  58.181  1.00  0.00     0.159 HD
HETATM   28  H   UNL     1      28.419  46.876  58.376  1.00  0.00     0.159 HD
HETATM   29  O   UNL     1      27.838  46.965  55.933  1.00  0.00    -0.266 OA
ENDBRANCH   8  25
TORSDOF 7
ENDMDL
MODEL 3
REMARK VINA RESULT:      -8.3      2.492      3.649
REMARK  7 active torsions:
REMARK  status: ('A' for Active; 'I' for Inactive)
REMARK    1  A    between atoms: C_2  and  C_3 
REMARK    2  A    between atoms: C_3  and  O_4 
REMARK    3  A    between atoms: O_4  and  C_5 
REMARK    4  A    between atoms: C_9  and  C_10 
REMARK    5  A    between atoms: C_10  and  N_11 
REMARK    6  A    between atoms: N_11  and  C_12 
REMARK    7  A    between atoms: C_19  and  C_20 
REMARK       I    between atoms: C_20  and  N_21 
ROOT
HETATM    1  C   UNL     1      26.323  44.478  50.439  1.00  0.00     0.009 A 
HETATM    2  C   UNL     1      26.684  45.747  49.948  1.00  0.00     0.039 A 
HETATM    3  C   UNL     1      25.726  46.779  49.854  1.00  0.00     0.030 A 
HETATM    4  C   UNL     1      24.416  46.507  50.220  1.00  0.00     0.063 A 
HETATM    5  N   UNL     1      23.732  47.672  50.017  1.00  0.00    -0.277 N 
HETATM    6  H   UNL     1      22.744  47.839  50.175  1.00  0.00     0.189 HD
HETATM    7  N   UNL     1      24.483  48.685  49.551  1.00  0.00    -0.168 NA
HETATM    8  C   UNL     1      25.719  48.145  49.444  1.00  0.00     0.156 A 
HETATM    9  C   UNL     1      24.001  45.254  50.675  1.00  0.00     0.034 A 
HETATM   10  C   UNL     1      24.978  44.250  50.761  1.00  0.00     0.026 A 
ENDROOT
BRANCH   1  11
HETATM   11  N   UNL     1      27.297  43.471  50.445  1.00  0.00    -0.289 NA
HETATM   12  H   UNL     1      28.219  43.837  50.214  1.00  0.00     0.128 HD
BRANCH  11  13
HETATM   13  C   UNL     1      27.341  42.528  51.552  1.00  0.00     0.131 C 
BRANCH  13  14
HETATM   14  C   UNL     1      28.299  43.031  52.609  1.00  0.00    -0.043 A 
HETATM   15  C   UNL     1      27.935  44.072  53.473  1.00  0.00     0.035 A 
HETATM   16  C   UNL     1      28.816  44.505  54.469  1.00  0.00     0.068 A 
HETATM   17  C   UNL     1      30.073  43.902  54.625  1.00  0.00     0.090 A 
HETATM   18 CL   UNL     1      28.294  45.780  55.514  1.00  0.00    -0.081 Cl
HETATM   19  C   UNL     1      30.452  42.891  53.738  1.00  0.00     0.039 A 
HETATM   20  C   UNL     1      29.570  42.457  52.742  1.00  0.00     0.011 A 
BRANCH  17  21
HETATM   21  O   UNL     1      30.882  44.372  55.627  1.00  0.00    -0.346 OA
BRANCH  21  22
HETATM   22  C   UNL     1      31.179  43.448  56.673  1.00  0.00     0.202 C 
BRANCH  22  23
HETATM   23  C   UNL     1      31.371  44.242  57.931  1.00  0.00    -0.011 C 
HETATM   24  C   UNL     1      30.585  45.252  58.327  1.00  0.00     0.009 C 
ENDBRANCH  22  23
ENDBRANCH  21  22
ENDBRANCH  17  21
ENDBRANCH  13  14
ENDBRANCH  11  13
ENDBRANCH   1  11
BRANCH   8  25
HETATM   25  C   UNL     1      26.859  48.936  48.960  1.00  0.00     0.270 C 
HETATM   26  N   UNL     1      26.503  50.045  48.241  1.00  0.00    -0.365 N 
HETATM   27  H   UNL     1      25.518  50.236  48.100  1.00  0.00     0.159 HD
HETATM   28  H   UNL     1      27.217  50.653  47.871  1.00  0.00     0.159 HD
HETATM   29  O   UNL     1      28.036  48.661  49.165  1.00  0.00    -0.266 OA
ENDBRANCH   8  25
TORSDOF 7
ENDMDL
MODEL 4
REMARK VINA RESULT:      -8.1      1.584      2.156
REMARK  7 active torsions:
REMARK  status: ('A' for Active; 'I' for Inactive)
REMARK    1  A    between atoms: C_2  and  C_3 
REMARK    2  A    between atoms: C_3  and  O_4 
REMARK    3  A    between atoms: O_4  and  C_5 
REMARK    4  A    between atoms: C_9  and  C_10 
REMARK    5  A    between atoms: C_10  and  N_11 
REMARK    6  A    between atoms: N_11  and  C_12 
REMARK    7  A    between atoms: C_19  and  C_20 
REMARK       I    between atoms: C_20  and  N_21 
ROOT
HETATM    1  C   UNL     1      24.825  46.138  50.875  1.00  0.00     0.009 A 
HETATM    2  C   UNL     1      24.528  47.328  50.184  1.00  0.00     0.039 A 
HETATM    3  C   UNL     1      23.566  47.337  49.152  1.00  0.00     0.030 A 
HETATM    4  C   UNL     1      22.947  46.145  48.809  1.00  0.00     0.063 A 
HETATM    5  N   UNL     1      22.089  46.459  47.793  1.00  0.00    -0.277 N 
HETATM    6  H   UNL     1      21.474  45.828  47.291  1.00  0.00     0.189 HD
HETATM    7  N   UNL     1      22.092  47.757  47.444  1.00  0.00    -0.168 NA
HETATM    8  C   UNL     1      23.003  48.312  48.276  1.00  0.00     0.156 A 
HETATM    9  C   UNL     1      23.237  44.932  49.437  1.00  0.00     0.034 A 
HETATM   10  C   UNL     1      24.195  44.956  50.462  1.00  0.00     0.026 A 
ENDROOT
BRANCH   1  11
HETATM   11  N   UNL     1      25.839  46.171  51.843  1.00  0.00    -0.289 NA
HETATM   12  H   UNL     1      26.307  47.076  51.866  1.00  0.00     0.128 HD
BRANCH  11  13
HETATM   13  C   UNL     1      25.569  45.657  53.176  1.00  0.00     0.131 C 
BRANCH  13  14
HETATM   14  C   UNL     1      26.852  45.625  53.976  1.00  0.00    -0.043 A 
HETATM   15  C   UNL     1      27.746  44.553  53.863  1.00  0.00     0.035 A 
HETATM   16  C   UNL     1      28.945  44.552  54.583  1.00  0.00     0.068 A 
HETATM   17  C   UNL     1      29.278  45.625  55.422  1.00  0.00     0.090 A 
HETATM   18 CL   UNL     1      30.012  43.206  54.378  1.00  0.00    -0.081 Cl
HETATM   19  C   UNL     1      28.368  46.677  55.567  1.00  0.00     0.039 A 
HETATM   20  C   UNL     1      27.169  46.677  54.846  1.00  0.00     0.011 A 
BRANCH  17  21
HETATM   21  O   UNL     1      30.473  45.562  56.090  1.00  0.00    -0.346 OA
BRANCH  21  22
HETATM   22  C   UNL     1      30.392  45.584  57.515  1.00  0.00     0.202 C 
BRANCH  22  23
HETATM   23  C   UNL     1      31.142  44.390  58.024  1.00  0.00    -0.011 C 
HETATM   24  C   UNL     1      31.957  43.624  57.286  1.00  0.00     0.009 C 
ENDBRANCH  22  23
ENDBRANCH  21  22
ENDBRANCH  17  21
ENDBRANCH  13  14
ENDBRANCH  11  13
ENDBRANCH   1  11
BRANCH   8  25
HETATM   25  C   UNL     1      23.314  49.747  48.222  1.00  0.00     0.270 C 
HETATM   26  N   UNL     1      22.837  50.462  49.287  1.00  0.00    -0.365 N 
HETATM   27  H   UNL     1      22.326  49.971  50.010  1.00  0.00     0.159 HD
HETATM   28  H   UNL     1      23.005  51.454  49.340  1.00  0.00     0.159 HD
HETATM   29  O   UNL     1      23.946  50.290  47.322  1.00  0.00    -0.266 OA
ENDBRANCH   8  25
TORSDOF 7
ENDMDL
MODEL 5
REMARK VINA RESULT:      -8.1      1.487      1.949
REMARK  7 active torsions:
REMARK  status: ('A' for Active; 'I' for Inactive)
REMARK    1  A    between atoms: C_2  and  C_3 
REMARK    2  A    between atoms: C_3  and  O_4 
REMARK    3  A    between atoms: O_4  and  C_5 
REMARK    4  A    between atoms: C_9  and  C_10 
REMARK    5  A    between atoms: C_10  and  N_11 
REMARK    6  A    between atoms: N_11  and  C_12 
REMARK    7  A    between atoms: C_19  and  C_20 
REMARK       I    between atoms: C_20  and  N_21 
ROOT
HETATM    1  C   UNL     1      25.004  47.162  50.536  1.00  0.00     0.009 A 
HETATM    2  C   UNL     1      23.922  47.782  49.881  1.00  0.00     0.039 A 
HETATM    3  C   UNL     1      24.147  48.803  48.933  1.00  0.00     0.030 A 
HETATM    4  C   UNL     1      25.451  49.209  48.689  1.00  0.00     0.063 A 
HETATM    5  N   UNL     1      25.354  50.198  47.752  1.00  0.00    -0.277 N 
HETATM    6  H   UNL     1      26.113  50.729  47.340  1.00  0.00     0.189 HD
HETATM    7  N   UNL     1      24.098  50.472  47.359  1.00  0.00    -0.168 NA
HETATM    8  C   UNL     1      23.341  49.618  48.085  1.00  0.00     0.156 A 
HETATM    9  C   UNL     1      26.552  48.653  49.342  1.00  0.00     0.034 A 
HETATM   10  C   UNL     1      26.296  47.637  50.275  1.00  0.00     0.026 A 
ENDROOT
BRANCH   1  11
HETATM   11  N   UNL     1      24.720  46.203  51.517  1.00  0.00    -0.289 NA
HETATM   12  H   UNL     1      23.721  46.152  51.716  1.00  0.00     0.128 HD
BRANCH  11  13
HETATM   13  C   UNL     1      25.331  44.886  51.427  1.00  0.00     0.131 C 
BRANCH  13  14
HETATM   14  C   UNL     1      26.482  44.794  52.402  1.00  0.00    -0.043 A 
HETATM   15  C   UNL     1      26.618  45.717  53.446  1.00  0.00     0.035 A 
HETATM   16  C   UNL     1      27.668  45.600  54.363  1.00  0.00     0.068 A 
HETATM   17  C   UNL     1      28.597  44.555  54.258  1.00  0.00     0.090 A 
HETATM   18 CL   UNL     1      27.763  46.763  55.640  1.00  0.00    -0.081 Cl
HETATM   19  C   UNL     1      28.486  43.655  53.193  1.00  0.00     0.039 A 
HETATM   20  C   UNL     1      27.434  43.773  52.277  1.00  0.00     0.011 A 
BRANCH  17  21
HETATM   21  O   UNL     1      29.596  44.496  55.196  1.00  0.00    -0.346 OA
BRANCH  21  22
HETATM   22  C   UNL     1      30.337  43.278  55.241  1.00  0.00     0.202 C 
BRANCH  22  23
HETATM   23  C   UNL     1      31.527  43.511  56.124  1.00  0.00    -0.011 C 
HETATM   24  C   UNL     1      31.494  43.534  57.463  1.00  0.00     0.009 C 
ENDBRANCH  22  23
ENDBRANCH  21  22
ENDBRANCH  17  21
ENDBRANCH  13  14
ENDBRANCH  11  13
ENDBRANCH   1  11
BRANCH   8  25
HETATM   25  C   UNL     1      21.878  49.593  47.953  1.00  0.00     0.270 C 
HETATM   26  N   UNL     1      21.370  48.373  47.597  1.00  0.00    -0.365 N 
HETATM   27  H   UNL     1      22.013  47.603  47.456  1.00  0.00     0.159 HD
HETATM   28  H   UNL     1      20.375  48.257  47.487  1.00  0.00     0.159 HD
HETATM   29  O   UNL     1      21.144  50.557  48.143  1.00  0.00    -0.266 OA
ENDBRANCH   8  25
TORSDOF 7
ENDMDL
MODEL 6
REMARK VINA RESULT:      -7.8      3.842      8.898
REMARK  7 active torsions:
REMARK  status: ('A' for Active; 'I' for Inactive)
REMARK    1  A    between atoms: C_2  and  C_3 
REMARK    2  A    between atoms: C_3  and  O_4 
REMARK    3  A    between atoms: O_4  and  C_5 
REMARK    4  A    between atoms: C_9  and  C_10 
REMARK    5  A    between atoms: C_10  and  N_11 
REMARK    6  A    between atoms: N_11  and  C_12 
REMARK    7  A    between atoms: C_19  and  C_20 
REMARK       I    between atoms: C_20  and  N_21 
ROOT
HETATM    1  C   UNL     1      28.186  43.497  52.623  1.00  0.00     0.009 A 
HETATM    2  C   UNL     1      28.124  44.362  53.731  1.00  0.00     0.039 A 
HETATM    3  C   UNL     1      29.158  44.373  54.692  1.00  0.00     0.030 A 
HETATM    4  C   UNL     1      30.216  43.490  54.540  1.00  0.00     0.063 A 
HETATM    5  N   UNL     1      31.039  43.721  55.606  1.00  0.00    -0.277 N 
HETATM    6  H   UNL     1      31.910  43.250  55.822  1.00  0.00     0.189 HD
HETATM    7  N   UNL     1      30.611  44.684  56.441  1.00  0.00    -0.168 NA
HETATM    8  C   UNL     1      29.446  45.094  55.887  1.00  0.00     0.156 A 
HETATM    9  C   UNL     1      30.302  42.585  53.480  1.00  0.00     0.034 A 
HETATM   10  C   UNL     1      29.261  42.602  52.540  1.00  0.00     0.026 A 
ENDROOT
BRANCH   1  11
HETATM   11  N   UNL     1      27.099  43.478  51.738  1.00  0.00    -0.289 NA
HETATM   12  H   UNL     1      27.060  42.609  51.208  1.00  0.00     0.128 HD
BRANCH  11  13
HETATM   13  C   UNL     1      25.787  43.894  52.210  1.00  0.00     0.131 C 
BRANCH  13  14
HETATM   14  C   UNL     1      25.311  45.081  51.403  1.00  0.00    -0.043 A 
HETATM   15  C   UNL     1      24.342  44.930  50.404  1.00  0.00     0.035 A 
HETATM   16  C   UNL     1      23.885  46.042  49.688  1.00  0.00     0.068 A 
HETATM   17  C   UNL     1      24.380  47.324  49.963  1.00  0.00     0.090 A 
HETATM   18 CL   UNL     1      22.671  45.785  48.482  1.00  0.00    -0.081 Cl
HETATM   19  C   UNL     1      25.376  47.470  50.933  1.00  0.00     0.039 A 
HETATM   20  C   UNL     1      25.833  46.358  51.649  1.00  0.00     0.011 A 
BRANCH  17  21
HETATM   21  O   UNL     1      23.881  48.369  49.229  1.00  0.00    -0.346 OA
BRANCH  21  22
HETATM   22  C   UNL     1      24.841  49.313  48.757  1.00  0.00     0.202 C 
BRANCH  22  23
HETATM   23  C   UNL     1      24.103  50.328  47.935  1.00  0.00    -0.011 C 
HETATM   24  C   UNL     1      22.778  50.338  47.737  1.00  0.00     0.009 C 
ENDBRANCH  22  23
ENDBRANCH  21  22
ENDBRANCH  17  21
ENDBRANCH  13  14
ENDBRANCH  11  13
ENDBRANCH   1  11
BRANCH   8  25
HETATM   25  C   UNL     1      28.641  46.158  56.503  1.00  0.00     0.270 C 
HETATM   26  N   UNL     1      28.092  47.033  55.605  1.00  0.00    -0.365 N 
HETATM   27  H   UNL     1      28.270  46.890  54.619  1.00  0.00     0.159 HD
HETATM   28  H   UNL     1      27.519  47.794  55.933  1.00  0.00     0.159 HD
HETATM   29  O   UNL     1      28.453  46.281  57.709  1.00  0.00    -0.266 OA
ENDBRANCH   8  25
TORSDOF 7
ENDMDL
MODEL 7
REMARK VINA RESULT:      -7.4      4.070      8.202
REMARK  7 active torsions:
REMARK  status: ('A' for Active; 'I' for Inactive)
REMARK    1  A    between atoms: C_2  and  C_3 
REMARK    2  A    between atoms: C_3  and  O_4 
REMARK    3  A    between atoms: O_4  and  C_5 
REMARK    4  A    between atoms: C_9  and  C_10 
REMARK    5  A    between atoms: C_10  and  N_11 
REMARK    6  A    between atoms: N_11  and  C_12 
REMARK    7  A    between atoms: C_19  and  C_20 
REMARK       I    between atoms: C_20  and  N_21 
ROOT
HETATM    1  C   UNL     1      28.029  42.741  53.403  1.00  0.00     0.009 A 
HETATM    2  C   UNL     1      27.584  44.040  53.716  1.00  0.00     0.039 A 
HETATM    3  C   UNL     1      28.341  44.872  54.567  1.00  0.00     0.030 A 
HETATM    4  C   UNL     1      29.513  44.372  55.116  1.00  0.00     0.063 A 
HETATM    5  N   UNL     1      30.013  45.382  55.888  1.00  0.00    -0.277 N 
HETATM    6  H   UNL     1      30.860  45.368  56.445  1.00  0.00     0.189 HD
HETATM    7  N   UNL     1      29.270  46.503  55.888  1.00  0.00    -0.168 NA
HETATM    8  C   UNL     1      28.231  46.199  55.076  1.00  0.00     0.156 A 
HETATM    9  C   UNL     1      29.974  43.079  54.867  1.00  0.00     0.034 A 
HETATM   10  C   UNL     1      29.201  42.277  54.014  1.00  0.00     0.026 A 
ENDROOT
BRANCH   1  11
HETATM   11  N   UNL     1      27.202  41.934  52.609  1.00  0.00    -0.289 NA
HETATM   12  H   UNL     1      26.230  41.979  52.911  1.00  0.00     0.128 HD
BRANCH  11  13
HETATM   13  C   UNL     1      27.333  41.984  51.161  1.00  0.00     0.131 C 
BRANCH  13  14
HETATM   14  C   UNL     1      26.447  43.079  50.611  1.00  0.00    -0.043 A 
HETATM   15  C   UNL     1      25.056  42.926  50.567  1.00  0.00     0.035 A 
HETATM   16  C   UNL     1      24.245  43.960  50.086  1.00  0.00     0.068 A 
HETATM   17  C   UNL     1      24.808  45.168  49.650  1.00  0.00     0.090 A 
HETATM   18 CL   UNL     1      22.533  43.711  50.080  1.00  0.00    -0.081 Cl
HETATM   19  C   UNL     1      26.200  45.307  49.656  1.00  0.00     0.039 A 
HETATM   20  C   UNL     1      27.009  44.272  50.137  1.00  0.00     0.011 A 
BRANCH  17  21
HETATM   21  O   UNL     1      23.953  46.141  49.200  1.00  0.00    -0.346 OA
BRANCH  21  22
HETATM   22  C   UNL     1      24.158  47.447  49.736  1.00  0.00     0.202 C 
BRANCH  22  23
HETATM   23  C   UNL     1      23.205  48.372  49.040  1.00  0.00    -0.011 C 
HETATM   24  C   UNL     1      23.566  49.403  48.264  1.00  0.00     0.009 C 
ENDBRANCH  22  23
ENDBRANCH  21  22
ENDBRANCH  17  21
ENDBRANCH  13  14
ENDBRANCH  11  13
ENDBRANCH   1  11
BRANCH   8  25
HETATM   25  C   UNL     1      27.166  47.173  54.803  1.00  0.00     0.270 C 
HETATM   26  N   UNL     1      26.818  47.939  55.883  1.00  0.00    -0.365 N 
HETATM   27  H   UNL     1      27.302  47.787  56.759  1.00  0.00     0.159 HD
HETATM   28  H   UNL     1      26.099  48.639  55.791  1.00  0.00     0.159 HD
HETATM   29  O   UNL     1      26.617  47.320  53.715  1.00  0.00    -0.266 OA
ENDBRANCH   8  25
TORSDOF 7
ENDMDL
MODEL 8
REMARK VINA RESULT:      -7.4      1.729      2.072
REMARK  7 active torsions:
REMARK  status: ('A' for Active; 'I' for Inactive)
REMARK    1  A    between atoms: C_2  and  C_3 
REMARK    2  A    between atoms: C_3  and  O_4 
REMARK    3  A    between atoms: O_4  and  C_5 
REMARK    4  A    between atoms: C_9  and  C_10 
REMARK    5  A    between atoms: C_10  and  N_11 
REMARK    6  A    between atoms: N_11  and  C_12 
REMARK    7  A    between atoms: C_19  and  C_20 
REMARK       I    between atoms: C_20  and  N_21 
ROOT
HETATM    1  C   UNL     1      25.271  45.646  50.194  1.00  0.00     0.009 A 
HETATM    2  C   UNL     1      23.970  45.513  49.673  1.00  0.00     0.039 A 
HETATM    3  C   UNL     1      23.300  46.627  49.122  1.00  0.00     0.030 A 
HETATM    4  C   UNL     1      23.935  47.860  49.139  1.00  0.00     0.063 A 
HETATM    5  N   UNL     1      23.056  48.729  48.559  1.00  0.00    -0.277 N 
HETATM    6  H   UNL     1      23.186  49.724  48.408  1.00  0.00     0.189 HD
HETATM    7  N   UNL     1      21.901  48.170  48.160  1.00  0.00    -0.168 NA
HETATM    8  C   UNL     1      22.038  46.869  48.505  1.00  0.00     0.156 A 
HETATM    9  C   UNL     1      25.208  48.049  49.681  1.00  0.00     0.034 A 
HETATM   10  C   UNL     1      25.849  46.922  50.217  1.00  0.00     0.026 A 
ENDROOT
BRANCH   1  11
HETATM   11  N   UNL     1      25.861  44.523  50.791  1.00  0.00    -0.289 NA
HETATM   12  H   UNL     1      26.875  44.531  50.689  1.00  0.00     0.128 HD
BRANCH  11  13
HETATM   13  C   UNL     1      25.446  44.125  52.128  1.00  0.00     0.131 C 
BRANCH  13  14
HETATM   14  C   UNL     1      26.433  44.655  53.143  1.00  0.00    -0.043 A 
HETATM   15  C   UNL     1      27.614  43.959  53.431  1.00  0.00     0.035 A 
HETATM   16  C   UNL     1      28.536  44.476  54.348  1.00  0.00     0.068 A 
HETATM   17  C   UNL     1      28.298  45.702  54.987  1.00  0.00     0.090 A 
HETATM   18 CL   UNL     1      29.983  43.575  54.638  1.00  0.00    -0.081 Cl
HETATM   19  C   UNL     1      27.102  46.378  54.730  1.00  0.00     0.039 A 
HETATM   20  C   UNL     1      26.181  45.859  53.813  1.00  0.00     0.011 A 
BRANCH  17  21
HETATM   21  O   UNL     1      29.248  46.153  55.867  1.00  0.00    -0.346 OA
BRANCH  21  22
HETATM   22  C   UNL     1      28.865  46.173  57.241  1.00  0.00     0.202 C 
BRANCH  22  23
HETATM   23  C   UNL     1      30.103  45.938  58.054  1.00  0.00    -0.011 C 
HETATM   24  C   UNL     1      30.853  44.829  58.006  1.00  0.00     0.009 C 
ENDBRANCH  22  23
ENDBRANCH  21  22
ENDBRANCH  17  21
ENDBRANCH  13  14
ENDBRANCH  11  13
ENDBRANCH   1  11
BRANCH   8  25
HETATM   25  C   UNL     1      20.974  45.891  48.239  1.00  0.00     0.270 C 
HETATM   26  N   UNL     1      20.145  45.665  49.304  1.00  0.00    -0.365 N 
HETATM   27  H   UNL     1      20.315  46.169  50.166  1.00  0.00     0.159 HD
HETATM   28  H   UNL     1      19.381  45.014  49.216  1.00  0.00     0.159 HD
HETATM   29  O   UNL     1      20.809  45.314  47.170  1.00  0.00    -0.266 OA
ENDBRANCH   8  25
TORSDOF 7
ENDMDL
MODEL 9
REMARK VINA RESULT:      -7.4      4.114      6.124
REMARK  7 active torsions:
REMARK  status: ('A' for Active; 'I' for Inactive)
REMARK    1  A    between atoms: C_2  and  C_3 
REMARK    2  A    between atoms: C_3  and  O_4 
REMARK    3  A    between atoms: O_4  and  C_5 
REMARK    4  A    between atoms: C_9  and  C_10 
REMARK    5  A    between atoms: C_10  and  N_11 
REMARK    6  A    between atoms: N_11  and  C_12 
REMARK    7  A    between atoms: C_19  and  C_20 
REMARK       I    between atoms: C_20  and  N_21 
ROOT
HETATM    1  C   UNL     1      25.907  44.054  50.286  1.00  0.00     0.009 A 
HETATM    2  C   UNL     1      26.794  42.962  50.294  1.00  0.00     0.039 A 
HETATM    3  C   UNL     1      26.412  41.722  49.737  1.00  0.00     0.030 A 
HETATM    4  C   UNL     1      25.133  41.594  49.216  1.00  0.00     0.063 A 
HETATM    5  N   UNL     1      25.051  40.306  48.767  1.00  0.00    -0.277 N 
HETATM    6  H   UNL     1      24.254  39.858  48.329  1.00  0.00     0.189 HD
HETATM    7  N   UNL     1      26.169  39.582  48.947  1.00  0.00    -0.168 NA
HETATM    8  C   UNL     1      27.019  40.446  49.549  1.00  0.00     0.156 A 
HETATM    9  C   UNL     1      24.204  42.635  49.221  1.00  0.00     0.034 A 
HETATM   10  C   UNL     1      24.616  43.856  49.778  1.00  0.00     0.026 A 
ENDROOT
BRANCH   1  11
HETATM   11  N   UNL     1      26.313  45.239  50.914  1.00  0.00    -0.289 NA
HETATM   12  H   UNL     1      26.359  46.017  50.257  1.00  0.00     0.128 HD
BRANCH  11  13
HETATM   13  C   UNL     1      25.702  45.623  52.178  1.00  0.00     0.131 C 
BRANCH  13  14
HETATM   14  C   UNL     1      26.764  45.701  53.251  1.00  0.00    -0.043 A 
HETATM   15  C   UNL     1      27.651  44.638  53.466  1.00  0.00     0.035 A 
HETATM   16  C   UNL     1      28.650  44.736  54.439  1.00  0.00     0.068 A 
HETATM   17  C   UNL     1      28.788  45.900  55.209  1.00  0.00     0.090 A 
HETATM   18 CL   UNL     1      29.724  43.394  54.636  1.00  0.00    -0.081 Cl
HETATM   19  C   UNL     1      27.879  46.946  55.023  1.00  0.00     0.039 A 
HETATM   20  C   UNL     1      26.879  46.847  54.049  1.00  0.00     0.011 A 
BRANCH  17  21
HETATM   21  O   UNL     1      29.795  45.930  56.139  1.00  0.00    -0.346 OA
BRANCH  21  22
HETATM   22  C   UNL     1      29.383  46.018  57.502  1.00  0.00     0.202 C 
BRANCH  22  23
HETATM   23  C   UNL     1      30.451  45.374  58.335  1.00  0.00    -0.011 C 
HETATM   24  C   UNL     1      31.249  44.380  57.924  1.00  0.00     0.009 C 
ENDBRANCH  22  23
ENDBRANCH  21  22
ENDBRANCH  17  21
ENDBRANCH  13  14
ENDBRANCH  11  13
ENDBRANCH   1  11
BRANCH   8  25
HETATM   25  C   UNL     1      28.380  40.042  49.926  1.00  0.00     0.270 C 
HETATM   26  N   UNL     1      29.267  40.029  48.883  1.00  0.00    -0.365 N 
HETATM   27  H   UNL     1      28.936  40.291  47.963  1.00  0.00     0.159 HD
HETATM   28  H   UNL     1      30.227  39.769  49.045  1.00  0.00     0.159 HD
HETATM   29  O   UNL     1      28.729  39.740  51.062  1.00  0.00    -0.266 OA
ENDBRANCH   8  25
TORSDOF 7
ENDMDL
MODEL 10
REMARK VINA RESULT:      -7.3      5.729     10.820
REMARK  7 active torsions:
REMARK  status: ('A' for Active; 'I' for Inactive)
REMARK    1  A    between atoms: C_2  and  C_3 
REMARK    2  A    between atoms: C_3  and  O_4 
REMARK    3  A    between atoms: O_4  and  C_5 
REMARK    4  A    between atoms: C_9  and  C_10 
REMARK    5  A    between atoms: C_10  and  N_11 
REMARK    6  A    between atoms: N_11  and  C_12 
REMARK    7  A    between atoms: C_19  and  C_20 
REMARK       I    between atoms: C_20  and  N_21 
ROOT
HETATM    1  C   UNL     1      22.517  49.094  49.207  1.00  0.00     0.009 A 
HETATM    2  C   UNL     1      23.605  48.249  49.496  1.00  0.00     0.039 A 
HETATM    3  C   UNL     1      24.915  48.612  49.117  1.00  0.00     0.030 A 
HETATM    4  C   UNL     1      25.103  49.798  48.424  1.00  0.00     0.063 A 
HETATM    5  N   UNL     1      26.447  49.874  48.190  1.00  0.00    -0.277 N 
HETATM    6  H   UNL     1      26.944  50.610  47.700  1.00  0.00     0.189 HD
HETATM    7  N   UNL     1      27.156  48.840  48.675  1.00  0.00    -0.168 NA
HETATM    8  C   UNL     1      26.219  48.050  49.249  1.00  0.00     0.156 A 
HETATM    9  C   UNL     1      24.052  50.649  48.079  1.00  0.00     0.034 A 
HETATM   10  C   UNL     1      22.761  50.262  48.473  1.00  0.00     0.026 A 
ENDROOT
BRANCH   1  11
HETATM   11  N   UNL     1      21.230  48.652  49.543  1.00  0.00    -0.289 NA
HETATM   12  H   UNL     1      20.851  49.166  50.338  1.00  0.00     0.128 HD
BRANCH  11  13
HETATM   13  C   UNL     1      20.244  48.460  48.492  1.00  0.00     0.131 C 
BRANCH  13  14
HETATM   14  C   UNL     1      19.061  49.371  48.733  1.00  0.00    -0.043 A 
HETATM   15  C   UNL     1      17.865  49.201  48.025  1.00  0.00     0.035 A 
HETATM   16  C   UNL     1      16.767  50.028  48.281  1.00  0.00     0.068 A 
HETATM   17  C   UNL     1      16.841  51.035  49.255  1.00  0.00     0.090 A 
HETATM   18 CL   UNL     1      15.314  49.748  47.385  1.00  0.00    -0.081 Cl
HETATM   19  C   UNL     1      18.047  51.231  49.934  1.00  0.00     0.039 A 
HETATM   20  C   UNL     1      19.145  50.403  49.677  1.00  0.00     0.011 A 
BRANCH  17  21
HETATM   21  O   UNL     1      15.724  51.803  49.460  1.00  0.00    -0.346 OA
BRANCH  21  22
HETATM   22  C   UNL     1      15.954  53.108  49.989  1.00  0.00     0.202 C 
BRANCH  22  23
HETATM   23  C   UNL     1      14.676  53.564  50.628  1.00  0.00    -0.011 C 
HETATM   24  C   UNL     1      14.588  54.492  51.590  1.00  0.00     0.009 C 
ENDBRANCH  22  23
ENDBRANCH  21  22
ENDBRANCH  17  21
ENDBRANCH  13  14
ENDBRANCH  11  13
ENDBRANCH   1  11
BRANCH   8  25
HETATM   25  C   UNL     1      26.584  46.789  49.909  1.00  0.00     0.270 C 
HETATM   26  N   UNL     1      26.190  46.709  51.217  1.00  0.00    -0.365 N 
HETATM   27  H   UNL     1      25.693  47.493  51.622  1.00  0.00     0.159 HD
HETATM   28  H   UNL     1      26.392  45.879  51.752  1.00  0.00     0.159 HD
HETATM   29  O   UNL     1      27.183  45.866  49.367  1.00  0.00    -0.266 OA
ENDBRANCH   8  25
TORSDOF 7
ENDMDL
