MODEL 1
REMARK VINA RESULT:      -9.1      0.000      0.000
REMARK  6 active torsions:
REMARK  status: ('A' for Active; 'I' for Inactive)
REMARK    1  A    between atoms: C_3  and  N_4 
REMARK       I    between atoms: N_4  and  C_5 
REMARK    2  A    between atoms: C_5  and  C_6 
REMARK    3  A    between atoms: C_6  and  O_7 
REMARK    4  A    between atoms: O_7  and  C_8 
REMARK    5  A    between atoms: C_10  and  N_11 
REMARK       I    between atoms: N_11  and  C_12 
REMARK    6  A    between atoms: C_12  and  C_13 
ROOT
HETATM    1  C   UNL     1      25.812  44.698  51.393  1.00  0.00     0.278 C 
ENDROOT
BRANCH   1   2
HETATM    2  C   UNL     1      26.401  44.415  52.780  1.00  0.00     0.246 C 
HETATM    3  N   UNL     1      27.782  44.504  52.798  1.00  0.00    -0.323 N 
HETATM    4  H   UNL     1      28.142  44.999  51.986  1.00  0.00     0.169 HD
HETATM    5  O   UNL     1      25.662  44.168  53.727  1.00  0.00    -0.271 OA
BRANCH   3   6
HETATM    6  C   UNL     1      28.676  44.338  53.886  1.00  0.00     0.065 A 
HETATM    7  C   UNL     1      28.871  45.261  54.927  1.00  0.00    -0.031 A 
HETATM    8  C   UNL     1      28.070  46.515  55.140  1.00  0.00     0.050 C 
HETATM    9  C   UNL     1      29.864  44.992  55.887  1.00  0.00     0.035 A 
HETATM   10  C   UNL     1      30.573  43.801  55.845  1.00  0.00     0.031 A 
HETATM   11  N   UNL     1      30.338  42.862  54.909  1.00  0.00    -0.256 NA
HETATM   12  C   UNL     1      31.637  43.515  56.861  1.00  0.00     0.070 C 
HETATM   13  C   UNL     1      29.407  43.129  53.956  1.00  0.00     0.058 A 
HETATM   14  C   UNL     1      29.231  42.027  52.946  1.00  0.00     0.073 C 
ENDBRANCH   3   6
ENDBRANCH   1   2
BRANCH   1  15
HETATM   15  O   UNL     1      24.912  45.805  51.392  1.00  0.00    -0.342 OA
BRANCH  15  16
HETATM   16  C   UNL     1      25.234  46.849  50.569  1.00  0.00     0.071 A 
HETATM   17  C   UNL     1      24.149  47.526  50.000  1.00  0.00     0.066 A 
HETATM   18  C   UNL     1      24.352  48.634  49.177  1.00  0.00     0.037 A 
HETATM   19  C   UNL     1      25.664  49.070  48.947  1.00  0.00     0.029 A 
HETATM   20  C   UNL     1      26.748  48.411  49.534  1.00  0.00     0.005 A 
HETATM   21  C   UNL     1      26.535  47.303  50.352  1.00  0.00     0.037 A 
BRANCH  18  22
HETATM   22  N   UNL     1      23.315  49.358  48.554  1.00  0.00    -0.327 N 
HETATM   23  C   UNL     1      22.640  50.454  49.051  1.00  0.00     0.226 C 
HETATM   24  O   UNL     1      22.832  51.008  50.123  1.00  0.00    -0.273 OA
HETATM   25  H   UNL     1      23.049  49.041  47.635  1.00  0.00     0.169 HD
BRANCH  23  26
HETATM   26  C   UNL     1      21.571  51.018  48.169  1.00  0.00     0.078 A 
HETATM   27  C   UNL     1      20.304  50.225  47.937  1.00  0.00     0.015 A 
HETATM   28  C   UNL     1      20.235  51.563  48.612  1.00  0.00     0.015 A 
ENDBRANCH  23  26
ENDBRANCH  18  22
ENDBRANCH  15  16
ENDBRANCH   1  15
TORSDOF 6
ENDMDL
MODEL 2
REMARK VINA RESULT:      -9.0      0.954      1.888
REMARK  6 active torsions:
REMARK  status: ('A' for Active; 'I' for Inactive)
REMARK    1  A    between atoms: C_3  and  N_4 
REMARK       I    between atoms: N_4  and  C_5 
REMARK    2  A    between atoms: C_5  and  C_6 
REMARK    3  A    between atoms: C_6  and  O_7 
REMARK    4  A    between atoms: O_7  and  C_8 
REMARK    5  A    between atoms: C_10  and  N_11 
REMARK       I    between atoms: N_11  and  C_12 
REMARK    6  A    between atoms: C_12  and  C_13 
ROOT
HETATM    1  C   UNL     1      25.181  46.365  51.949  1.00  0.00     0.278 C 
ENDROOT
BRANCH   1   2
HETATM    2  C   UNL     1      25.886  45.434  52.942  1.00  0.00     0.246 C 
HETATM    3  N   UNL     1      27.263  45.567  52.907  1.00  0.00    -0.323 N 
HETATM    4  H   UNL     1      27.551  46.427  52.448  1.00  0.00     0.169 HD
HETATM    5  O   UNL     1      25.231  44.698  53.672  1.00  0.00    -0.271 OA
BRANCH   3   6
HETATM    6  C   UNL     1      28.247  44.905  53.685  1.00  0.00     0.065 A 
HETATM    7  C   UNL     1      28.812  43.653  53.389  1.00  0.00    -0.031 A 
HETATM    8  C   UNL     1      28.575  42.867  52.129  1.00  0.00     0.050 C 
HETATM    9  C   UNL     1      29.711  43.086  54.310  1.00  0.00     0.035 A 
HETATM   10  C   UNL     1      30.088  43.789  55.443  1.00  0.00     0.031 A 
HETATM   11  N   UNL     1      29.628  45.028  55.701  1.00  0.00    -0.256 NA
HETATM   12  C   UNL     1      31.039  43.185  56.431  1.00  0.00     0.070 C 
HETATM   13  C   UNL     1      28.731  45.570  54.836  1.00  0.00     0.058 A 
HETATM   14  C   UNL     1      28.263  46.948  55.221  1.00  0.00     0.073 C 
ENDBRANCH   3   6
ENDBRANCH   1   2
BRANCH   1  15
HETATM   15  O   UNL     1      25.664  46.217  50.615  1.00  0.00    -0.342 OA
BRANCH  15  16
HETATM   16  C   UNL     1      25.791  47.365  49.883  1.00  0.00     0.071 A 
HETATM   17  C   UNL     1      24.590  47.972  49.501  1.00  0.00     0.066 A 
HETATM   18  C   UNL     1      24.592  49.172  48.787  1.00  0.00     0.037 A 
HETATM   19  C   UNL     1      25.821  49.769  48.479  1.00  0.00     0.029 A 
HETATM   20  C   UNL     1      27.022  49.178  48.882  1.00  0.00     0.005 A 
HETATM   21  C   UNL     1      27.009  47.978  49.592  1.00  0.00     0.037 A 
BRANCH  18  22
HETATM   22  N   UNL     1      23.427  49.836  48.351  1.00  0.00    -0.327 N 
HETATM   23  C   UNL     1      22.568  50.608  49.106  1.00  0.00     0.226 C 
HETATM   24  O   UNL     1      22.672  50.869  50.295  1.00  0.00    -0.273 OA
HETATM   25  H   UNL     1      23.209  49.741  47.372  1.00  0.00     0.169 HD
BRANCH  23  26
HETATM   26  C   UNL     1      21.397  51.187  48.376  1.00  0.00     0.078 A 
HETATM   27  C   UNL     1      20.166  50.337  48.154  1.00  0.00     0.015 A 
HETATM   28  C   UNL     1      20.072  51.588  48.978  1.00  0.00     0.015 A 
ENDBRANCH  23  26
ENDBRANCH  18  22
ENDBRANCH  15  16
ENDBRANCH   1  15
TORSDOF 6
ENDMDL
MODEL 3
REMARK VINA RESULT:      -8.4      2.532      9.830
REMARK  6 active torsions:
REMARK  status: ('A' for Active; 'I' for Inactive)
REMARK    1  A    between atoms: C_3  and  N_4 
REMARK       I    between atoms: N_4  and  C_5 
REMARK    2  A    between atoms: C_5  and  C_6 
REMARK    3  A    between atoms: C_6  and  O_7 
REMARK    4  A    between atoms: O_7  and  C_8 
REMARK    5  A    between atoms: C_10  and  N_11 
REMARK       I    between atoms: N_11  and  C_12 
REMARK    6  A    between atoms: C_12  and  C_13 
ROOT
HETATM    1  C   UNL     1      23.100  46.380  48.918  1.00  0.00     0.278 C 
ENDROOT
BRANCH   1   2
HETATM    2  C   UNL     1      22.194  47.487  48.366  1.00  0.00     0.246 C 
HETATM    3  N   UNL     1      21.667  48.287  49.364  1.00  0.00    -0.323 N 
HETATM    4  H   UNL     1      22.171  48.186  50.240  1.00  0.00     0.169 HD
HETATM    5  O   UNL     1      22.025  47.602  47.157  1.00  0.00    -0.271 OA
BRANCH   3   6
HETATM    6  C   UNL     1      20.816  49.416  49.251  1.00  0.00     0.065 A 
HETATM    7  C   UNL     1      21.225  50.708  48.877  1.00  0.00    -0.031 A 
HETATM    8  C   UNL     1      22.600  51.083  48.400  1.00  0.00     0.050 C 
HETATM    9  C   UNL     1      20.275  51.746  48.900  1.00  0.00     0.035 A 
HETATM   10  C   UNL     1      18.950  51.476  49.208  1.00  0.00     0.031 A 
HETATM   11  N   UNL     1      18.520  50.230  49.481  1.00  0.00    -0.256 NA
HETATM   12  C   UNL     1      17.939  52.580  49.242  1.00  0.00     0.070 C 
HETATM   13  C   UNL     1      19.437  49.226  49.496  1.00  0.00     0.058 A 
HETATM   14  C   UNL     1      18.861  47.876  49.830  1.00  0.00     0.073 C 
ENDBRANCH   3   6
ENDBRANCH   1   2
BRANCH   1  15
HETATM   15  O   UNL     1      23.998  46.852  49.921  1.00  0.00    -0.342 OA
BRANCH  15  16
HETATM   16  C   UNL     1      24.566  45.901  50.723  1.00  0.00     0.071 A 
HETATM   17  C   UNL     1      25.500  46.374  51.651  1.00  0.00     0.066 A 
HETATM   18  C   UNL     1      26.115  45.503  52.552  1.00  0.00     0.037 A 
HETATM   19  C   UNL     1      25.763  44.148  52.524  1.00  0.00     0.029 A 
HETATM   20  C   UNL     1      24.812  43.676  51.615  1.00  0.00     0.005 A 
HETATM   21  C   UNL     1      24.206  44.554  50.717  1.00  0.00     0.037 A 
BRANCH  18  22
HETATM   22  N   UNL     1      27.077  45.899  53.505  1.00  0.00    -0.327 N 
HETATM   23  C   UNL     1      26.896  46.742  54.581  1.00  0.00     0.226 C 
HETATM   24  O   UNL     1      25.856  47.292  54.914  1.00  0.00    -0.273 OA
HETATM   25  H   UNL     1      27.998  45.507  53.386  1.00  0.00     0.169 HD
BRANCH  23  26
HETATM   26  C   UNL     1      28.106  46.994  55.426  1.00  0.00     0.078 A 
HETATM   27  C   UNL     1      28.368  46.113  56.627  1.00  0.00     0.015 A 
HETATM   28  C   UNL     1      29.349  46.140  55.491  1.00  0.00     0.015 A 
ENDBRANCH  23  26
ENDBRANCH  18  22
ENDBRANCH  15  16
ENDBRANCH   1  15
TORSDOF 6
ENDMDL
MODEL 4
REMARK VINA RESULT:      -8.4      1.704      2.629
REMARK  6 active torsions:
REMARK  status: ('A' for Active; 'I' for Inactive)
REMARK    1  A    between atoms: C_3  and  N_4 
REMARK       I    between atoms: N_4  and  C_5 
REMARK    2  A    between atoms: C_5  and  C_6 
REMARK    3  A    between atoms: C_6  and  O_7 
REMARK    4  A    between atoms: O_7  and  C_8 
REMARK    5  A    between atoms: C_10  and  N_11 
REMARK       I    between atoms: N_11  and  C_12 
REMARK    6  A    between atoms: C_12  and  C_13 
ROOT
HETATM    1  C   UNL     1      25.348  44.052  51.437  1.00  0.00     0.278 C 
ENDROOT
BRANCH   1   2
HETATM    2  C   UNL     1      25.906  44.193  52.858  1.00  0.00     0.246 C 
HETATM    3  N   UNL     1      27.228  44.602  52.870  1.00  0.00    -0.323 N 
HETATM    4  H   UNL     1      27.513  44.996  51.978  1.00  0.00     0.169 HD
HETATM    5  O   UNL     1      25.189  43.974  53.828  1.00  0.00    -0.271 OA
BRANCH   3   6
HETATM    6  C   UNL     1      28.073  44.866  53.978  1.00  0.00     0.065 A 
HETATM    7  C   UNL     1      29.098  44.022  54.438  1.00  0.00    -0.031 A 
HETATM    8  C   UNL     1      29.565  42.767  53.756  1.00  0.00     0.050 C 
HETATM    9  C   UNL     1      29.791  44.383  55.609  1.00  0.00     0.035 A 
HETATM   10  C   UNL     1      29.516  45.585  56.243  1.00  0.00     0.031 A 
HETATM   11  N   UNL     1      28.600  46.450  55.767  1.00  0.00    -0.256 NA
HETATM   12  C   UNL     1      30.244  45.967  57.494  1.00  0.00     0.070 C 
HETATM   13  C   UNL     1      27.900  46.094  54.657  1.00  0.00     0.058 A 
HETATM   14  C   UNL     1      26.890  47.118  54.216  1.00  0.00     0.073 C 
ENDBRANCH   3   6
ENDBRANCH   1   2
BRANCH   1  15
HETATM   15  O   UNL     1      25.530  45.232  50.654  1.00  0.00    -0.342 OA
BRANCH  15  16
HETATM   16  C   UNL     1      24.502  45.569  49.817  1.00  0.00     0.071 A 
HETATM   17  C   UNL     1      24.026  46.879  49.945  1.00  0.00     0.066 A 
HETATM   18  C   UNL     1      23.008  47.351  49.116  1.00  0.00     0.037 A 
HETATM   19  C   UNL     1      22.484  46.495  48.138  1.00  0.00     0.029 A 
HETATM   20  C   UNL     1      22.975  45.195  47.991  1.00  0.00     0.005 A 
HETATM   21  C   UNL     1      23.991  44.731  48.827  1.00  0.00     0.037 A 
BRANCH  18  22
HETATM   22  N   UNL     1      22.463  48.650  49.192  1.00  0.00    -0.327 N 
HETATM   23  C   UNL     1      22.725  49.721  48.363  1.00  0.00     0.226 C 
HETATM   24  O   UNL     1      23.473  49.732  47.396  1.00  0.00    -0.273 OA
HETATM   25  H   UNL     1      21.797  48.803  49.933  1.00  0.00     0.169 HD
BRANCH  23  26
HETATM   26  C   UNL     1      22.005  50.992  48.689  1.00  0.00     0.078 A 
HETATM   27  C   UNL     1      20.579  51.178  48.220  1.00  0.00     0.015 A 
HETATM   28  C   UNL     1      20.886  51.160  49.688  1.00  0.00     0.015 A 
ENDBRANCH  23  26
ENDBRANCH  18  22
ENDBRANCH  15  16
ENDBRANCH   1  15
TORSDOF 6
ENDMDL
MODEL 5
REMARK VINA RESULT:      -8.3      4.365      6.927
REMARK  6 active torsions:
REMARK  status: ('A' for Active; 'I' for Inactive)
REMARK    1  A    between atoms: C_3  and  N_4 
REMARK       I    between atoms: N_4  and  C_5 
REMARK    2  A    between atoms: C_5  and  C_6 
REMARK    3  A    between atoms: C_6  and  O_7 
REMARK    4  A    between atoms: O_7  and  C_8 
REMARK    5  A    between atoms: C_10  and  N_11 
REMARK       I    between atoms: N_11  and  C_12 
REMARK    6  A    between atoms: C_12  and  C_13 
ROOT
HETATM    1  C   UNL     1      25.599  44.738  52.232  1.00  0.00     0.278 C 
ENDROOT
BRANCH   1   2
HETATM    2  C   UNL     1      26.428  44.255  53.428  1.00  0.00     0.246 C 
HETATM    3  N   UNL     1      27.760  44.618  53.330  1.00  0.00    -0.323 N 
HETATM    4  H   UNL     1      27.904  45.357  52.648  1.00  0.00     0.169 HD
HETATM    5  O   UNL     1      25.893  43.641  54.344  1.00  0.00    -0.271 OA
BRANCH   3   6
HETATM    6  C   UNL     1      28.822  44.381  54.240  1.00  0.00     0.065 A 
HETATM    7  C   UNL     1      29.712  43.295  54.186  1.00  0.00    -0.031 A 
HETATM    8  C   UNL     1      29.780  42.279  53.080  1.00  0.00     0.050 C 
HETATM    9  C   UNL     1      30.658  43.150  55.217  1.00  0.00     0.035 A 
HETATM   10  C   UNL     1      30.756  44.105  56.218  1.00  0.00     0.031 A 
HETATM   11  N   UNL     1      29.972  45.200  56.239  1.00  0.00    -0.256 NA
HETATM   12  C   UNL     1      31.755  43.948  57.322  1.00  0.00     0.070 C 
HETATM   13  C   UNL     1      29.031  45.331  55.266  1.00  0.00     0.058 A 
HETATM   14  C   UNL     1      28.196  46.577  55.388  1.00  0.00     0.073 C 
ENDBRANCH   3   6
ENDBRANCH   1   2
BRANCH   1  15
HETATM   15  O   UNL     1      24.369  44.028  52.092  1.00  0.00    -0.342 OA
BRANCH  15  16
HETATM   16  C   UNL     1      24.210  43.311  50.938  1.00  0.00     0.071 A 
HETATM   17  C   UNL     1      25.176  42.327  50.702  1.00  0.00     0.066 A 
HETATM   18  C   UNL     1      25.096  41.503  49.578  1.00  0.00     0.037 A 
HETATM   19  C   UNL     1      24.016  41.668  48.700  1.00  0.00     0.029 A 
HETATM   20  C   UNL     1      23.037  42.633  48.946  1.00  0.00     0.005 A 
HETATM   21  C   UNL     1      23.128  43.453  50.070  1.00  0.00     0.037 A 
BRANCH  18  22
HETATM   22  N   UNL     1      26.036  40.501  49.261  1.00  0.00    -0.327 N 
HETATM   23  C   UNL     1      27.209  40.644  48.551  1.00  0.00     0.226 C 
HETATM   24  O   UNL     1      27.656  41.679  48.077  1.00  0.00    -0.273 OA
HETATM   25  H   UNL     1      25.825  39.578  49.607  1.00  0.00     0.169 HD
BRANCH  23  26
HETATM   26  C   UNL     1      28.013  39.397  48.357  1.00  0.00     0.078 A 
HETATM   27  C   UNL     1      29.100  39.052  49.350  1.00  0.00     0.015 A 
HETATM   28  C   UNL     1      27.925  38.134  49.179  1.00  0.00     0.015 A 
ENDBRANCH  23  26
ENDBRANCH  18  22
ENDBRANCH  15  16
ENDBRANCH   1  15
TORSDOF 6
ENDMDL
MODEL 6
REMARK VINA RESULT:      -8.1      2.461      3.941
REMARK  6 active torsions:
REMARK  status: ('A' for Active; 'I' for Inactive)
REMARK    1  A    between atoms: C_3  and  N_4 
REMARK       I    between atoms: N_4  and  C_5 
REMARK    2  A    between atoms: C_5  and  C_6 
REMARK    3  A    between atoms: C_6  and  O_7 
REMARK    4  A    between atoms: O_7  and  C_8 
REMARK    5  A    between atoms: C_10  and  N_11 
REMARK       I    between atoms: N_11  and  C_12 
REMARK    6  A    between atoms: C_12  and  C_13 
ROOT
HETATM    1  C   UNL     1      24.252  47.411  50.086  1.00  0.00     0.278 C 
ENDROOT
BRANCH   1   2
HETATM    2  C   UNL     1      25.546  47.147  50.866  1.00  0.00     0.246 C 
HETATM    3  N   UNL     1      25.527  45.932  51.527  1.00  0.00    -0.323 N 
HETATM    4  H   UNL     1      24.801  45.315  51.171  1.00  0.00     0.169 HD
HETATM    5  O   UNL     1      26.462  47.961  50.837  1.00  0.00    -0.271 OA
BRANCH   3   6
HETATM    6  C   UNL     1      26.536  45.329  52.321  1.00  0.00     0.065 A 
HETATM    7  C   UNL     1      26.853  45.687  53.642  1.00  0.00    -0.031 A 
HETATM    8  C   UNL     1      26.090  46.670  54.486  1.00  0.00     0.050 C 
HETATM    9  C   UNL     1      27.944  45.054  54.267  1.00  0.00     0.035 A 
HETATM   10  C   UNL     1      28.635  44.045  53.614  1.00  0.00     0.031 A 
HETATM   11  N   UNL     1      28.291  43.625  52.382  1.00  0.00    -0.256 NA
HETATM   12  C   UNL     1      29.803  43.376  54.272  1.00  0.00     0.070 C 
HETATM   13  C   UNL     1      27.261  44.254  51.757  1.00  0.00     0.058 A 
HETATM   14  C   UNL     1      26.966  43.724  50.379  1.00  0.00     0.073 C 
ENDBRANCH   3   6
ENDBRANCH   1   2
BRANCH   1  15
HETATM   15  O   UNL     1      24.366  48.511  49.185  1.00  0.00    -0.342 OA
BRANCH  15  16
HETATM   16  C   UNL     1      23.225  49.229  48.955  1.00  0.00     0.071 A 
HETATM   17  C   UNL     1      22.043  48.482  48.904  1.00  0.00     0.066 A 
HETATM   18  C   UNL     1      20.810  49.109  48.717  1.00  0.00     0.037 A 
HETATM   19  C   UNL     1      20.776  50.504  48.603  1.00  0.00     0.029 A 
HETATM   20  C   UNL     1      21.952  51.256  48.679  1.00  0.00     0.005 A 
HETATM   21  C   UNL     1      23.179  50.619  48.863  1.00  0.00     0.037 A 
BRANCH  18  22
HETATM   22  N   UNL     1      19.579  48.426  48.637  1.00  0.00    -0.327 N 
HETATM   23  C   UNL     1      18.626  48.294  49.626  1.00  0.00     0.226 C 
HETATM   24  O   UNL     1      18.673  48.762  50.755  1.00  0.00    -0.273 OA
HETATM   25  H   UNL     1      19.372  47.998  47.749  1.00  0.00     0.169 HD
BRANCH  23  26
HETATM   26  C   UNL     1      17.411  47.501  49.262  1.00  0.00     0.078 A 
HETATM   27  C   UNL     1      16.341  48.136  48.402  1.00  0.00     0.015 A 
HETATM   28  C   UNL     1      17.083  46.931  47.903  1.00  0.00     0.015 A 
ENDBRANCH  23  26
ENDBRANCH  18  22
ENDBRANCH  15  16
ENDBRANCH   1  15
TORSDOF 6
ENDMDL
MODEL 7
REMARK VINA RESULT:      -8.0      2.535     10.043
REMARK  6 active torsions:
REMARK  status: ('A' for Active; 'I' for Inactive)
REMARK    1  A    between atoms: C_3  and  N_4 
REMARK       I    between atoms: N_4  and  C_5 
REMARK    2  A    between atoms: C_5  and  C_6 
REMARK    3  A    between atoms: C_6  and  O_7 
REMARK    4  A    between atoms: O_7  and  C_8 
REMARK    5  A    between atoms: C_10  and  N_11 
REMARK       I    between atoms: N_11  and  C_12 
REMARK    6  A    between atoms: C_12  and  C_13 
ROOT
HETATM    1  C   UNL     1      23.431  46.293  49.186  1.00  0.00     0.278 C 
ENDROOT
BRANCH   1   2
HETATM    2  C   UNL     1      22.538  47.336  48.503  1.00  0.00     0.246 C 
HETATM    3  N   UNL     1      22.026  48.261  49.395  1.00  0.00    -0.323 N 
HETATM    4  H   UNL     1      22.533  48.262  50.276  1.00  0.00     0.169 HD
HETATM    5  O   UNL     1      22.364  47.303  47.290  1.00  0.00    -0.271 OA
BRANCH   3   6
HETATM    6  C   UNL     1      21.191  49.380  49.145  1.00  0.00     0.065 A 
HETATM    7  C   UNL     1      21.633  50.651  48.740  1.00  0.00    -0.031 A 
HETATM    8  C   UNL     1      23.046  51.004  48.368  1.00  0.00     0.050 C 
HETATM    9  C   UNL     1      20.687  51.685  48.621  1.00  0.00     0.035 A 
HETATM   10  C   UNL     1      19.339  51.428  48.824  1.00  0.00     0.031 A 
HETATM   11  N   UNL     1      18.884  50.197  49.124  1.00  0.00    -0.256 NA
HETATM   12  C   UNL     1      18.330  52.529  48.707  1.00  0.00     0.070 C 
HETATM   13  C   UNL     1      19.795  49.199  49.277  1.00  0.00     0.058 A 
HETATM   14  C   UNL     1      19.189  47.867  49.630  1.00  0.00     0.073 C 
ENDBRANCH   3   6
ENDBRANCH   1   2
BRANCH   1  15
HETATM   15  O   UNL     1      22.871  44.981  49.152  1.00  0.00    -0.342 OA
BRANCH  15  16
HETATM   16  C   UNL     1      23.701  43.958  49.519  1.00  0.00     0.071 A 
HETATM   17  C   UNL     1      24.352  44.120  50.747  1.00  0.00     0.066 A 
HETATM   18  C   UNL     1      25.192  43.123  51.246  1.00  0.00     0.037 A 
HETATM   19  C   UNL     1      25.354  41.946  50.504  1.00  0.00     0.029 A 
HETATM   20  C   UNL     1      24.685  41.771  49.289  1.00  0.00     0.005 A 
HETATM   21  C   UNL     1      23.851  42.774  48.798  1.00  0.00     0.037 A 
BRANCH  18  22
HETATM   22  N   UNL     1      25.896  43.217  52.465  1.00  0.00    -0.327 N 
HETATM   23  C   UNL     1      27.195  43.640  52.653  1.00  0.00     0.226 C 
HETATM   24  O   UNL     1      27.971  44.028  51.792  1.00  0.00    -0.273 OA
HETATM   25  H   UNL     1      25.380  42.954  53.290  1.00  0.00     0.169 HD
BRANCH  23  26
HETATM   26  C   UNL     1      27.688  43.628  54.066  1.00  0.00     0.078 A 
HETATM   27  C   UNL     1      29.021  42.986  54.382  1.00  0.00     0.015 A 
HETATM   28  C   UNL     1      28.820  44.453  54.630  1.00  0.00     0.015 A 
ENDBRANCH  23  26
ENDBRANCH  18  22
ENDBRANCH  15  16
ENDBRANCH   1  15
TORSDOF 6
ENDMDL
MODEL 8
REMARK VINA RESULT:      -7.9      2.982      4.963
REMARK  6 active torsions:
REMARK  status: ('A' for Active; 'I' for Inactive)
REMARK    1  A    between atoms: C_3  and  N_4 
REMARK       I    between atoms: N_4  and  C_5 
REMARK    2  A    between atoms: C_5  and  C_6 
REMARK    3  A    between atoms: C_6  and  O_7 
REMARK    4  A    between atoms: O_7  and  C_8 
REMARK    5  A    between atoms: C_10  and  N_11 
REMARK       I    between atoms: N_11  and  C_12 
REMARK    6  A    between atoms: C_12  and  C_13 
ROOT
HETATM    1  C   UNL     1      25.428  45.309  53.095  1.00  0.00     0.278 C 
ENDROOT
BRANCH   1   2
HETATM    2  C   UNL     1      26.378  44.562  54.039  1.00  0.00     0.246 C 
HETATM    3  N   UNL     1      27.691  44.975  53.905  1.00  0.00    -0.323 N 
HETATM    4  H   UNL     1      27.763  45.867  53.423  1.00  0.00     0.169 HD
HETATM    5  O   UNL     1      25.941  43.721  54.817  1.00  0.00    -0.271 OA
BRANCH   3   6
HETATM    6  C   UNL     1      28.842  44.545  54.614  1.00  0.00     0.065 A 
HETATM    7  C   UNL     1      29.679  43.481  54.237  1.00  0.00    -0.031 A 
HETATM    8  C   UNL     1      29.581  42.709  52.951  1.00  0.00     0.050 C 
HETATM    9  C   UNL     1      30.733  43.117  55.096  1.00  0.00     0.035 A 
HETATM   10  C   UNL     1      30.981  43.849  56.248  1.00  0.00     0.031 A 
HETATM   11  N   UNL     1      30.246  44.927  56.581  1.00  0.00    -0.256 NA
HETATM   12  C   UNL     1      32.095  43.459  57.169  1.00  0.00     0.070 C 
HETATM   13  C   UNL     1      29.204  45.265  55.776  1.00  0.00     0.058 A 
HETATM   14  C   UNL     1      28.435  46.471  56.244  1.00  0.00     0.073 C 
ENDBRANCH   3   6
ENDBRANCH   1   2
BRANCH   1  15
HETATM   15  O   UNL     1      26.065  45.725  51.888  1.00  0.00    -0.342 OA
BRANCH  15  16
HETATM   16  C   UNL     1      25.250  45.922  50.808  1.00  0.00     0.071 A 
HETATM   17  C   UNL     1      25.034  44.799  50.002  1.00  0.00     0.066 A 
HETATM   18  C   UNL     1      24.187  44.867  48.895  1.00  0.00     0.037 A 
HETATM   19  C   UNL     1      23.539  46.078  48.618  1.00  0.00     0.029 A 
HETATM   20  C   UNL     1      23.732  47.195  49.435  1.00  0.00     0.005 A 
HETATM   21  C   UNL     1      24.583  47.117  50.537  1.00  0.00     0.037 A 
BRANCH  18  22
HETATM   22  N   UNL     1      23.931  43.787  48.026  1.00  0.00    -0.327 N 
HETATM   23  C   UNL     1      23.138  42.684  48.268  1.00  0.00     0.226 C 
HETATM   24  O   UNL     1      22.498  42.451  49.282  1.00  0.00    -0.273 OA
HETATM   25  H   UNL     1      24.371  43.839  47.121  1.00  0.00     0.169 HD
BRANCH  23  26
HETATM   26  C   UNL     1      23.056  41.682  47.159  1.00  0.00     0.078 A 
HETATM   27  C   UNL     1      24.078  40.570  47.085  1.00  0.00     0.015 A 
HETATM   28  C   UNL     1      22.628  40.240  47.281  1.00  0.00     0.015 A 
ENDBRANCH  23  26
ENDBRANCH  18  22
ENDBRANCH  15  16
ENDBRANCH   1  15
TORSDOF 6
ENDMDL
MODEL 9
REMARK VINA RESULT:      -7.8      2.679      4.099
REMARK  6 active torsions:
REMARK  status: ('A' for Active; 'I' for Inactive)
REMARK    1  A    between atoms: C_3  and  N_4 
REMARK       I    between atoms: N_4  and  C_5 
REMARK    2  A    between atoms: C_5  and  C_6 
REMARK    3  A    between atoms: C_6  and  O_7 
REMARK    4  A    between atoms: O_7  and  C_8 
REMARK    5  A    between atoms: C_10  and  N_11 
REMARK       I    between atoms: N_11  and  C_12 
REMARK    6  A    between atoms: C_12  and  C_13 
ROOT
HETATM    1  C   UNL     1      24.358  45.392  50.369  1.00  0.00     0.278 C 
ENDROOT
BRANCH   1   2
HETATM    2  C   UNL     1      24.782  43.940  50.613  1.00  0.00     0.246 C 
HETATM    3  N   UNL     1      25.962  43.616  49.967  1.00  0.00    -0.323 N 
HETATM    4  H   UNL     1      26.478  44.443  49.679  1.00  0.00     0.169 HD
HETATM    5  O   UNL     1      24.110  43.212  51.335  1.00  0.00    -0.271 OA
BRANCH   3   6
HETATM    6  C   UNL     1      26.680  42.393  49.972  1.00  0.00     0.065 A 
HETATM    7  C   UNL     1      26.479  41.328  49.079  1.00  0.00    -0.031 A 
HETATM    8  C   UNL     1      25.569  41.355  47.882  1.00  0.00     0.050 C 
HETATM    9  C   UNL     1      27.210  40.141  49.271  1.00  0.00     0.035 A 
HETATM   10  C   UNL     1      28.164  40.062  50.274  1.00  0.00     0.031 A 
HETATM   11  N   UNL     1      28.437  41.102  51.084  1.00  0.00    -0.256 NA
HETATM   12  C   UNL     1      28.938  38.797  50.488  1.00  0.00     0.070 C 
HETATM   13  C   UNL     1      27.710  42.241  50.929  1.00  0.00     0.058 A 
HETATM   14  C   UNL     1      28.077  43.337  51.893  1.00  0.00     0.073 C 
ENDBRANCH   3   6
ENDBRANCH   1   2
BRANCH   1  15
HETATM   15  O   UNL     1      25.351  46.333  50.776  1.00  0.00    -0.342 OA
BRANCH  15  16
HETATM   16  C   UNL     1      25.509  47.433  49.979  1.00  0.00     0.071 A 
HETATM   17  C   UNL     1      24.325  48.075  49.597  1.00  0.00     0.066 A 
HETATM   18  C   UNL     1      24.361  49.233  48.819  1.00  0.00     0.037 A 
HETATM   19  C   UNL     1      25.607  49.753  48.444  1.00  0.00     0.029 A 
HETATM   20  C   UNL     1      26.791  49.129  48.845  1.00  0.00     0.005 A 
HETATM   21  C   UNL     1      26.744  47.971  49.620  1.00  0.00     0.037 A 
BRANCH  18  22
HETATM   22  N   UNL     1      23.215  49.927  48.379  1.00  0.00    -0.327 N 
HETATM   23  C   UNL     1      22.357  50.697  49.137  1.00  0.00     0.226 C 
HETATM   24  O   UNL     1      22.447  50.930  50.334  1.00  0.00    -0.273 OA
HETATM   25  H   UNL     1      23.012  49.859  47.395  1.00  0.00     0.169 HD
BRANCH  23  26
HETATM   26  C   UNL     1      21.209  51.313  48.403  1.00  0.00     0.078 A 
HETATM   27  C   UNL     1      19.978  50.482  48.118  1.00  0.00     0.015 A 
HETATM   28  C   UNL     1      19.872  51.701  48.987  1.00  0.00     0.015 A 
ENDBRANCH  23  26
ENDBRANCH  18  22
ENDBRANCH  15  16
ENDBRANCH   1  15
TORSDOF 6
ENDMDL
MODEL 10
REMARK VINA RESULT:      -7.6     12.666     15.856
REMARK  6 active torsions:
REMARK  status: ('A' for Active; 'I' for Inactive)
REMARK    1  A    between atoms: C_3  and  N_4 
REMARK       I    between atoms: N_4  and  C_5 
REMARK    2  A    between atoms: C_5  and  C_6 
REMARK    3  A    between atoms: C_6  and  O_7 
REMARK    4  A    between atoms: O_7  and  C_8 
REMARK    5  A    between atoms: C_10  and  N_11 
REMARK       I    between atoms: N_11  and  C_12 
REMARK    6  A    between atoms: C_12  and  C_13 
ROOT
HETATM    1  C   UNL     1      33.192  51.402  39.524  1.00  0.00     0.278 C 
ENDROOT
BRANCH   1   2
HETATM    2  C   UNL     1      31.996  51.068  38.624  1.00  0.00     0.246 C 
HETATM    3  N   UNL     1      30.860  50.753  39.349  1.00  0.00    -0.323 N 
HETATM    4  H   UNL     1      30.928  51.057  40.316  1.00  0.00     0.169 HD
HETATM    5  O   UNL     1      32.106  51.121  37.404  1.00  0.00    -0.271 OA
BRANCH   3   6
HETATM    6  C   UNL     1      29.564  50.419  38.881  1.00  0.00     0.065 A 
HETATM    7  C   UNL     1      28.559  51.340  38.539  1.00  0.00    -0.031 A 
HETATM    8  C   UNL     1      28.730  52.833  38.478  1.00  0.00     0.050 C 
HETATM    9  C   UNL     1      27.291  50.849  38.177  1.00  0.00     0.035 A 
HETATM   10  C   UNL     1      27.070  49.484  38.085  1.00  0.00     0.031 A 
HETATM   11  N   UNL     1      28.044  48.585  38.320  1.00  0.00    -0.256 NA
HETATM   12  C   UNL     1      25.719  48.957  37.709  1.00  0.00     0.070 C 
HETATM   13  C   UNL     1      29.262  49.048  38.705  1.00  0.00     0.058 A 
HETATM   14  C   UNL     1      30.276  47.966  38.962  1.00  0.00     0.073 C 
ENDBRANCH   3   6
ENDBRANCH   1   2
BRANCH   1  15
HETATM   15  O   UNL     1      33.399  50.431  40.549  1.00  0.00    -0.342 OA
BRANCH  15  16
HETATM   16  C   UNL     1      33.359  50.889  41.836  1.00  0.00     0.071 A 
HETATM   17  C   UNL     1      34.577  51.341  42.355  1.00  0.00     0.066 A 
HETATM   18  C   UNL     1      34.652  51.870  43.644  1.00  0.00     0.037 A 
HETATM   19  C   UNL     1      33.478  51.960  44.403  1.00  0.00     0.029 A 
HETATM   20  C   UNL     1      32.255  51.533  43.879  1.00  0.00     0.005 A 
HETATM   21  C   UNL     1      32.192  51.003  42.591  1.00  0.00     0.037 A 
BRANCH  18  22
HETATM   22  N   UNL     1      35.843  52.331  44.243  1.00  0.00    -0.327 N 
HETATM   23  C   UNL     1      36.762  53.212  43.715  1.00  0.00     0.226 C 
HETATM   24  O   UNL     1      36.702  53.770  42.629  1.00  0.00    -0.273 OA
HETATM   25  H   UNL     1      36.031  51.980  45.169  1.00  0.00     0.169 HD
BRANCH  23  26
HETATM   26  C   UNL     1      37.947  53.517  44.577  1.00  0.00     0.078 A 
HETATM   27  C   UNL     1      37.809  54.518  45.702  1.00  0.00     0.015 A 
HETATM   28  C   UNL     1      38.148  53.089  46.011  1.00  0.00     0.015 A 
ENDBRANCH  23  26
ENDBRANCH  18  22
ENDBRANCH  15  16
ENDBRANCH   1  15
TORSDOF 6
ENDMDL
