MODEL 1
REMARK VINA RESULT:      -7.5      0.000      0.000
REMARK  5 active torsions:
REMARK  status: ('A' for Active; 'I' for Inactive)
REMARK    1  A    between atoms: C_2  and  C_3 
REMARK    2  A    between atoms: C_3  and  N_4 
REMARK    3  A    between atoms: C_3  and  C_14 
REMARK       I    between atoms: N_4  and  C_5 
REMARK    4  A    between atoms: C_5  and  C_6 
REMARK    5  A    between atoms: C_17  and  O_18 
ROOT
HETATM    1  C   UNL     1      27.235  43.349  52.588  1.00  0.00     0.117 C 
ENDROOT
BRANCH   1   2
HETATM    2  C   UNL     1      27.733  42.185  51.709  1.00  0.00     0.025 C 
HETATM    3  C   UNL     1      26.609  41.452  50.987  1.00  0.00     0.007 C 
ENDBRANCH   1   2
BRANCH   1   4
HETATM    4  N   UNL     1      26.925  44.532  51.794  1.00  0.00    -0.348 N 
HETATM    5  C   UNL     1      25.647  45.034  51.686  1.00  0.00     0.253 C 
HETATM    6  O   UNL     1      24.672  44.536  52.232  1.00  0.00    -0.268 OA
HETATM    7  H   UNL     1      27.666  44.903  51.221  1.00  0.00     0.163 HD
BRANCH   5   8
HETATM    8  C   UNL     1      25.475  46.227  50.822  1.00  0.00     0.050 A 
HETATM    9  C   UNL     1      24.195  46.543  50.375  1.00  0.00     0.133 A 
HETATM   10  N   UNL     1      23.912  47.598  49.569  1.00  0.00    -0.271 NA
HETATM   11  C   UNL     1      24.955  48.380  49.207  1.00  0.00     0.135 A 
HETATM   12  C   UNL     1      26.260  48.155  49.619  1.00  0.00     0.029 A 
HETATM   13 BR   UNL     1      27.653  49.305  49.074  1.00  0.00    -0.050 Br
HETATM   14  C   UNL     1      26.528  47.065  50.443  1.00  0.00     0.039 A 
ENDBRANCH   5   8
ENDBRANCH   1   4
BRANCH   1  15
HETATM   15  C   UNL     1      28.268  43.709  53.646  1.00  0.00    -0.035 A 
HETATM   16  C   UNL     1      29.359  42.860  53.870  1.00  0.00     0.012 A 
HETATM   17  C   UNL     1      30.314  43.170  54.842  1.00  0.00     0.037 A 
HETATM   18  C   UNL     1      30.195  44.324  55.618  1.00  0.00     0.068 A 
HETATM   19  C   UNL     1      29.117  45.179  55.400  1.00  0.00     0.037 A 
HETATM   20  C   UNL     1      28.164  44.877  54.420  1.00  0.00     0.012 A 
BRANCH  18  21
HETATM   21  O   UNL     1      31.192  44.502  56.537  1.00  0.00    -0.356 OA
HETATM   22  C   UNL     1      31.747  43.329  57.117  1.00  0.00     0.210 C 
ENDBRANCH  18  21
ENDBRANCH   1  15
TORSDOF 5
ENDMDL
MODEL 2
REMARK VINA RESULT:      -7.4      1.920      2.160
REMARK  5 active torsions:
REMARK  status: ('A' for Active; 'I' for Inactive)
REMARK    1  A    between atoms: C_2  and  C_3 
REMARK    2  A    between atoms: C_3  and  N_4 
REMARK    3  A    between atoms: C_3  and  C_14 
REMARK       I    between atoms: N_4  and  C_5 
REMARK    4  A    between atoms: C_5  and  C_6 
REMARK    5  A    between atoms: C_17  and  O_18 
ROOT
HETATM    1  C   UNL     1      27.740  43.372  53.221  1.00  0.00     0.117 C 
ENDROOT
BRANCH   1   2
HETATM    2  C   UNL     1      28.715  42.472  52.438  1.00  0.00     0.025 C 
HETATM    3  C   UNL     1      28.567  40.992  52.769  1.00  0.00     0.007 C 
ENDBRANCH   1   2
BRANCH   1   4
HETATM    4  N   UNL     1      27.055  44.317  52.347  1.00  0.00    -0.348 N 
HETATM    5  C   UNL     1      25.698  44.541  52.420  1.00  0.00     0.253 C 
HETATM    6  O   UNL     1      24.955  43.970  53.208  1.00  0.00    -0.268 OA
HETATM    7  H   UNL     1      27.595  44.716  51.596  1.00  0.00     0.163 HD
BRANCH   5   8
HETATM    8  C   UNL     1      25.133  45.510  51.449  1.00  0.00     0.050 A 
HETATM    9  C   UNL     1      25.512  46.845  51.550  1.00  0.00     0.133 A 
HETATM   10  N   UNL     1      25.054  47.827  50.732  1.00  0.00    -0.271 NA
HETATM   11  C   UNL     1      24.190  47.452  49.761  1.00  0.00     0.135 A 
HETATM   12  C   UNL     1      23.772  46.144  49.572  1.00  0.00     0.029 A 
HETATM   13 BR   UNL     1      22.572  45.708  48.183  1.00  0.00    -0.050 Br
HETATM   14  C   UNL     1      24.253  45.153  50.424  1.00  0.00     0.039 A 
ENDBRANCH   5   8
ENDBRANCH   1   4
BRANCH   1  15
HETATM   15  C   UNL     1      28.467  44.136  54.318  1.00  0.00    -0.035 A 
HETATM   16  C   UNL     1      29.718  43.689  54.763  1.00  0.00     0.012 A 
HETATM   17  C   UNL     1      30.399  44.373  55.774  1.00  0.00     0.037 A 
HETATM   18  C   UNL     1      29.843  45.506  56.369  1.00  0.00     0.068 A 
HETATM   19  C   UNL     1      28.602  45.964  55.930  1.00  0.00     0.037 A 
HETATM   20  C   UNL     1      27.922  45.287  54.910  1.00  0.00     0.012 A 
BRANCH  18  21
HETATM   21  O   UNL     1      30.609  46.073  57.350  1.00  0.00    -0.356 OA
HETATM   22  C   UNL     1      30.782  45.321  58.544  1.00  0.00     0.210 C 
ENDBRANCH  18  21
ENDBRANCH   1  15
TORSDOF 5
ENDMDL
MODEL 3
REMARK VINA RESULT:      -7.3      1.814      2.391
REMARK  5 active torsions:
REMARK  status: ('A' for Active; 'I' for Inactive)
REMARK    1  A    between atoms: C_2  and  C_3 
REMARK    2  A    between atoms: C_3  and  N_4 
REMARK    3  A    between atoms: C_3  and  C_14 
REMARK       I    between atoms: N_4  and  C_5 
REMARK    4  A    between atoms: C_5  and  C_6 
REMARK    5  A    between atoms: C_17  and  O_18 
ROOT
HETATM    1  C   UNL     1      26.603  44.468  51.988  1.00  0.00     0.117 C 
ENDROOT
BRANCH   1   2
HETATM    2  C   UNL     1      26.978  43.241  51.135  1.00  0.00     0.025 C 
HETATM    3  C   UNL     1      25.784  42.360  50.789  1.00  0.00     0.007 C 
ENDBRANCH   1   2
BRANCH   1   4
HETATM    4  N   UNL     1      26.615  45.697  51.203  1.00  0.00    -0.348 N 
HETATM    5  C   UNL     1      25.467  46.252  50.682  1.00  0.00     0.253 C 
HETATM    6  O   UNL     1      24.352  45.767  50.824  1.00  0.00    -0.268 OA
HETATM    7  H   UNL     1      27.517  46.065  50.947  1.00  0.00     0.163 HD
BRANCH   5   8
HETATM    8  C   UNL     1      25.634  47.488  49.880  1.00  0.00     0.050 A 
HETATM    9  C   UNL     1      26.924  47.910  49.574  1.00  0.00     0.133 A 
HETATM   10  N   UNL     1      27.206  49.030  48.861  1.00  0.00    -0.271 NA
HETATM   11  C   UNL     1      26.149  49.752  48.423  1.00  0.00     0.135 A 
HETATM   12  C   UNL     1      24.830  49.399  48.663  1.00  0.00     0.029 A 
HETATM   13 BR   UNL     1      23.415  50.459  48.004  1.00  0.00    -0.050 Br
HETATM   14  C   UNL     1      24.563  48.247  49.398  1.00  0.00     0.039 A 
ENDBRANCH   5   8
ENDBRANCH   1   4
BRANCH   1  15
HETATM   15  C   UNL     1      27.550  44.617  53.170  1.00  0.00    -0.035 A 
HETATM   16  C   UNL     1      27.429  45.724  54.022  1.00  0.00     0.012 A 
HETATM   17  C   UNL     1      28.292  45.883  55.109  1.00  0.00     0.037 A 
HETATM   18  C   UNL     1      29.299  44.951  55.363  1.00  0.00     0.068 A 
HETATM   19  C   UNL     1      29.425  43.843  54.527  1.00  0.00     0.037 A 
HETATM   20  C   UNL     1      28.555  43.676  53.442  1.00  0.00     0.012 A 
BRANCH  18  21
HETATM   21  O   UNL     1      30.078  45.231  56.451  1.00  0.00    -0.356 OA
HETATM   22  C   UNL     1      29.461  45.942  57.516  1.00  0.00     0.210 C 
ENDBRANCH  18  21
ENDBRANCH   1  15
TORSDOF 5
ENDMDL
MODEL 4
REMARK VINA RESULT:      -7.3      3.495      5.304
REMARK  5 active torsions:
REMARK  status: ('A' for Active; 'I' for Inactive)
REMARK    1  A    between atoms: C_2  and  C_3 
REMARK    2  A    between atoms: C_3  and  N_4 
REMARK    3  A    between atoms: C_3  and  C_14 
REMARK       I    between atoms: N_4  and  C_5 
REMARK    4  A    between atoms: C_5  and  C_6 
REMARK    5  A    between atoms: C_17  and  O_18 
ROOT
HETATM    1  C   UNL     1      27.287  44.048  52.507  1.00  0.00     0.117 C 
ENDROOT
BRANCH   1   2
HETATM    2  C   UNL     1      25.855  44.295  53.018  1.00  0.00     0.025 C 
HETATM    3  C   UNL     1      25.055  45.244  52.134  1.00  0.00     0.007 C 
ENDBRANCH   1   2
BRANCH   1   4
HETATM    4  N   UNL     1      27.428  42.724  51.911  1.00  0.00    -0.348 N 
HETATM    5  C   UNL     1      27.342  42.511  50.553  1.00  0.00     0.253 C 
HETATM    6  O   UNL     1      27.135  43.401  49.738  1.00  0.00    -0.268 OA
HETATM    7  H   UNL     1      27.470  41.942  52.545  1.00  0.00     0.163 HD
BRANCH   5   8
HETATM    8  C   UNL     1      27.477  41.109  50.092  1.00  0.00     0.050 A 
HETATM    9  C   UNL     1      26.575  40.633  49.145  1.00  0.00     0.133 A 
HETATM   10  N   UNL     1      26.586  39.366  48.656  1.00  0.00    -0.271 NA
HETATM   11  C   UNL     1      27.552  38.544  49.127  1.00  0.00     0.135 A 
HETATM   12  C   UNL     1      28.505  38.935  50.056  1.00  0.00     0.029 A 
HETATM   13 BR   UNL     1      29.825  37.726  50.649  1.00  0.00    -0.050 Br
HETATM   14  C   UNL     1      28.473  40.239  50.545  1.00  0.00     0.039 A 
ENDBRANCH   5   8
ENDBRANCH   1   4
BRANCH   1  15
HETATM   15  C   UNL     1      28.300  44.204  53.632  1.00  0.00    -0.035 A 
HETATM   16  C   UNL     1      29.324  43.259  53.781  1.00  0.00     0.012 A 
HETATM   17  C   UNL     1      30.260  43.381  54.811  1.00  0.00     0.037 A 
HETATM   18  C   UNL     1      30.189  44.439  55.719  1.00  0.00     0.068 A 
HETATM   19  C   UNL     1      29.179  45.388  55.576  1.00  0.00     0.037 A 
HETATM   20  C   UNL     1      28.246  45.274  54.539  1.00  0.00     0.012 A 
BRANCH  18  21
HETATM   21  O   UNL     1      31.160  44.434  56.682  1.00  0.00    -0.356 OA
HETATM   22  C   UNL     1      31.641  43.164  57.101  1.00  0.00     0.210 C 
ENDBRANCH  18  21
ENDBRANCH   1  15
TORSDOF 5
ENDMDL
MODEL 5
REMARK VINA RESULT:      -7.0      3.340      4.634
REMARK  5 active torsions:
REMARK  status: ('A' for Active; 'I' for Inactive)
REMARK    1  A    between atoms: C_2  and  C_3 
REMARK    2  A    between atoms: C_3  and  N_4 
REMARK    3  A    between atoms: C_3  and  C_14 
REMARK       I    between atoms: N_4  and  C_5 
REMARK    4  A    between atoms: C_5  and  C_6 
REMARK    5  A    between atoms: C_17  and  O_18 
ROOT
HETATM    1  C   UNL     1      27.177  44.811  52.978  1.00  0.00     0.117 C 
ENDROOT
BRANCH   1   2
HETATM    2  C   UNL     1      25.858  45.208  53.668  1.00  0.00     0.025 C 
HETATM    3  C   UNL     1      25.276  44.100  54.539  1.00  0.00     0.007 C 
ENDBRANCH   1   2
BRANCH   1   4
HETATM    4  N   UNL     1      27.038  43.578  52.211  1.00  0.00    -0.348 N 
HETATM    5  C   UNL     1      27.071  43.556  50.834  1.00  0.00     0.253 C 
HETATM    6  O   UNL     1      27.212  44.556  50.142  1.00  0.00    -0.268 OA
HETATM    7  H   UNL     1      26.790  42.748  52.726  1.00  0.00     0.163 HD
BRANCH   5   8
HETATM    8  C   UNL     1      26.888  42.234  50.189  1.00  0.00     0.050 A 
HETATM    9  C   UNL     1      26.409  41.180  50.961  1.00  0.00     0.133 A 
HETATM   10  N   UNL     1      26.213  39.922  50.489  1.00  0.00    -0.271 NA
HETATM   11  C   UNL     1      26.496  39.714  49.183  1.00  0.00     0.135 A 
HETATM   12  C   UNL     1      26.959  40.707  48.332  1.00  0.00     0.029 A 
HETATM   13 BR   UNL     1      27.317  40.332  46.519  1.00  0.00    -0.050 Br
HETATM   14  C   UNL     1      27.154  41.990  48.838  1.00  0.00     0.039 A 
ENDBRANCH   5   8
ENDBRANCH   1   4
BRANCH   1  15
HETATM   15  C   UNL     1      28.296  44.646  53.997  1.00  0.00    -0.035 A 
HETATM   16  C   UNL     1      28.547  45.667  54.923  1.00  0.00     0.012 A 
HETATM   17  C   UNL     1      29.574  45.538  55.862  1.00  0.00     0.037 A 
HETATM   18  C   UNL     1      30.377  44.397  55.890  1.00  0.00     0.068 A 
HETATM   19  C   UNL     1      30.132  43.372  54.978  1.00  0.00     0.037 A 
HETATM   20  C   UNL     1      29.097  43.494  54.042  1.00  0.00     0.012 A 
BRANCH  18  21
HETATM   21  O   UNL     1      31.349  44.404  56.852  1.00  0.00    -0.356 OA
HETATM   22  C   UNL     1      31.884  43.144  57.233  1.00  0.00     0.210 C 
ENDBRANCH  18  21
ENDBRANCH   1  15
TORSDOF 5
ENDMDL
MODEL 6
REMARK VINA RESULT:      -6.9     10.538     14.115
REMARK  5 active torsions:
REMARK  status: ('A' for Active; 'I' for Inactive)
REMARK    1  A    between atoms: C_2  and  C_3 
REMARK    2  A    between atoms: C_3  and  N_4 
REMARK    3  A    between atoms: C_3  and  C_14 
REMARK       I    between atoms: N_4  and  C_5 
REMARK    4  A    between atoms: C_5  and  C_6 
REMARK    5  A    between atoms: C_17  and  O_18 
ROOT
HETATM    1  C   UNL     1      16.293  52.091  49.682  1.00  0.00     0.117 C 
ENDROOT
BRANCH   1   2
HETATM    2  C   UNL     1      15.581  51.971  48.321  1.00  0.00     0.025 C 
HETATM    3  C   UNL     1      15.590  50.554  47.760  1.00  0.00     0.007 C 
ENDBRANCH   1   2
BRANCH   1   4
HETATM    4  N   UNL     1      16.201  53.442  50.224  1.00  0.00    -0.348 N 
HETATM    5  C   UNL     1      15.079  53.901  50.879  1.00  0.00     0.253 C 
HETATM    6  O   UNL     1      14.072  53.228  51.056  1.00  0.00    -0.268 OA
HETATM    7  H   UNL     1      16.948  54.077  49.992  1.00  0.00     0.163 HD
BRANCH   5   8
HETATM    8  C   UNL     1      15.117  55.306  51.352  1.00  0.00     0.050 A 
HETATM    9  C   UNL     1      15.409  56.307  50.430  1.00  0.00     0.133 A 
HETATM   10  N   UNL     1      15.486  57.626  50.742  1.00  0.00    -0.271 NA
HETATM   11  C   UNL     1      15.247  57.958  52.032  1.00  0.00     0.135 A 
HETATM   12  C   UNL     1      14.929  57.033  53.014  1.00  0.00     0.029 A 
HETATM   13 BR   UNL     1      14.598  57.586  54.787  1.00  0.00    -0.050 Br
HETATM   14  C   UNL     1      14.857  55.685  52.672  1.00  0.00     0.039 A 
ENDBRANCH   5   8
ENDBRANCH   1   4
BRANCH   1  15
HETATM   15  C   UNL     1      17.757  51.694  49.566  1.00  0.00    -0.035 A 
HETATM   16  C   UNL     1      18.245  50.612  50.311  1.00  0.00     0.012 A 
HETATM   17  C   UNL     1      19.587  50.235  50.223  1.00  0.00     0.037 A 
HETATM   18  C   UNL     1      20.473  50.936  49.404  1.00  0.00     0.068 A 
HETATM   19  C   UNL     1      19.999  52.010  48.654  1.00  0.00     0.037 A 
HETATM   20  C   UNL     1      18.651  52.384  48.731  1.00  0.00     0.012 A 
BRANCH  18  21
HETATM   21  O   UNL     1      21.759  50.469  49.418  1.00  0.00    -0.356 OA
HETATM   22  C   UNL     1      22.623  50.937  48.392  1.00  0.00     0.210 C 
ENDBRANCH  18  21
ENDBRANCH   1  15
TORSDOF 5
ENDMDL
MODEL 7
REMARK VINA RESULT:      -6.7      3.489      6.255
REMARK  5 active torsions:
REMARK  status: ('A' for Active; 'I' for Inactive)
REMARK    1  A    between atoms: C_2  and  C_3 
REMARK    2  A    between atoms: C_3  and  N_4 
REMARK    3  A    between atoms: C_3  and  C_14 
REMARK       I    between atoms: N_4  and  C_5 
REMARK    4  A    between atoms: C_5  and  C_6 
REMARK    5  A    between atoms: C_17  and  O_18 
ROOT
HETATM    1  C   UNL     1      26.453  43.322  50.730  1.00  0.00     0.117 C 
ENDROOT
BRANCH   1   2
HETATM    2  C   UNL     1      26.166  44.369  49.637  1.00  0.00     0.025 C 
HETATM    3  C   UNL     1      27.027  45.620  49.759  1.00  0.00     0.007 C 
ENDBRANCH   1   2
BRANCH   1   4
HETATM    4  N   UNL     1      27.273  43.872  51.804  1.00  0.00    -0.348 N 
HETATM    5  C   UNL     1      26.764  44.152  53.053  1.00  0.00     0.253 C 
HETATM    6  O   UNL     1      25.593  43.974  53.365  1.00  0.00    -0.268 OA
HETATM    7  H   UNL     1      28.208  44.158  51.562  1.00  0.00     0.163 HD
BRANCH   5   8
HETATM    8  C   UNL     1      27.707  44.734  54.037  1.00  0.00     0.050 A 
HETATM    9  C   UNL     1      27.494  46.041  54.466  1.00  0.00     0.133 A 
HETATM   10  N   UNL     1      28.295  46.688  55.351  1.00  0.00    -0.271 NA
HETATM   11  C   UNL     1      29.346  45.991  55.840  1.00  0.00     0.135 A 
HETATM   12  C   UNL     1      29.625  44.679  55.486  1.00  0.00     0.029 A 
HETATM   13 BR   UNL     1      31.108  43.778  56.225  1.00  0.00    -0.050 Br
HETATM   14  C   UNL     1      28.792  44.035  54.574  1.00  0.00     0.039 A 
ENDBRANCH   5   8
ENDBRANCH   1   4
BRANCH   1  15
HETATM   15  C   UNL     1      27.145  42.100  50.144  1.00  0.00    -0.035 A 
HETATM   16  C   UNL     1      27.780  41.186  50.995  1.00  0.00     0.012 A 
HETATM   17  C   UNL     1      28.427  40.061  50.476  1.00  0.00     0.037 A 
HETATM   18  C   UNL     1      28.465  39.831  49.100  1.00  0.00     0.068 A 
HETATM   19  C   UNL     1      27.832  40.730  48.244  1.00  0.00     0.037 A 
HETATM   20  C   UNL     1      27.174  41.853  48.762  1.00  0.00     0.012 A 
BRANCH  18  21
HETATM   21  O   UNL     1      29.137  38.701  48.726  1.00  0.00    -0.356 OA
HETATM   22  C   UNL     1      29.651  37.885  49.771  1.00  0.00     0.210 C 
ENDBRANCH  18  21
ENDBRANCH   1  15
TORSDOF 5
ENDMDL
MODEL 8
REMARK VINA RESULT:      -6.7      8.077     10.282
REMARK  5 active torsions:
REMARK  status: ('A' for Active; 'I' for Inactive)
REMARK    1  A    between atoms: C_2  and  C_3 
REMARK    2  A    between atoms: C_3  and  N_4 
REMARK    3  A    between atoms: C_3  and  C_14 
REMARK       I    between atoms: N_4  and  C_5 
REMARK    4  A    between atoms: C_5  and  C_6 
REMARK    5  A    between atoms: C_17  and  O_18 
ROOT
HETATM    1  C   UNL     1      20.400  48.502  49.328  1.00  0.00     0.117 C 
ENDROOT
BRANCH   1   2
HETATM    2  C   UNL     1      20.130  47.074  48.817  1.00  0.00     0.025 C 
HETATM    3  C   UNL     1      19.962  46.997  47.304  1.00  0.00     0.007 C 
ENDBRANCH   1   2
BRANCH   1   4
HETATM    4  N   UNL     1      19.348  49.429  48.928  1.00  0.00    -0.348 N 
HETATM    5  C   UNL     1      18.473  49.989  49.834  1.00  0.00     0.253 C 
HETATM    6  O   UNL     1      18.497  49.756  51.035  1.00  0.00    -0.268 OA
HETATM    7  H   UNL     1      19.201  49.552  47.939  1.00  0.00     0.163 HD
BRANCH   5   8
HETATM    8  C   UNL     1      17.436  50.892  49.280  1.00  0.00     0.050 A 
HETATM    9  C   UNL     1      16.870  50.575  48.049  1.00  0.00     0.133 A 
HETATM   10  N   UNL     1      15.923  51.328  47.433  1.00  0.00    -0.271 NA
HETATM   11  C   UNL     1      15.516  52.441  48.086  1.00  0.00     0.135 A 
HETATM   12  C   UNL     1      16.008  52.826  49.324  1.00  0.00     0.029 A 
HETATM   13 BR   UNL     1      15.374  54.389  50.168  1.00  0.00    -0.050 Br
HETATM   14  C   UNL     1      16.980  52.039  49.936  1.00  0.00     0.039 A 
ENDBRANCH   5   8
ENDBRANCH   1   4
BRANCH   1  15
HETATM   15  C   UNL     1      21.741  49.015  48.823  1.00  0.00    -0.035 A 
HETATM   16  C   UNL     1      22.920  48.348  49.181  1.00  0.00     0.012 A 
HETATM   17  C   UNL     1      24.162  48.807  48.733  1.00  0.00     0.037 A 
HETATM   18  C   UNL     1      24.255  49.945  47.930  1.00  0.00     0.068 A 
HETATM   19  C   UNL     1      23.089  50.612  47.562  1.00  0.00     0.037 A 
HETATM   20  C   UNL     1      21.842  50.149  48.001  1.00  0.00     0.012 A 
BRANCH  18  21
HETATM   21  O   UNL     1      25.528  50.289  47.571  1.00  0.00    -0.356 OA
HETATM   22  C   UNL     1      26.584  49.756  48.359  1.00  0.00     0.210 C 
ENDBRANCH  18  21
ENDBRANCH   1  15
TORSDOF 5
ENDMDL
MODEL 9
REMARK VINA RESULT:      -6.6      2.835      7.139
REMARK  5 active torsions:
REMARK  status: ('A' for Active; 'I' for Inactive)
REMARK    1  A    between atoms: C_2  and  C_3 
REMARK    2  A    between atoms: C_3  and  N_4 
REMARK    3  A    between atoms: C_3  and  C_14 
REMARK       I    between atoms: N_4  and  C_5 
REMARK    4  A    between atoms: C_5  and  C_6 
REMARK    5  A    between atoms: C_17  and  O_18 
ROOT
HETATM    1  C   UNL     1      25.943  44.264  50.726  1.00  0.00     0.117 C 
ENDROOT
BRANCH   1   2
HETATM    2  C   UNL     1      24.740  43.361  51.056  1.00  0.00     0.025 C 
HETATM    3  C   UNL     1      24.615  42.159  50.129  1.00  0.00     0.007 C 
ENDBRANCH   1   2
BRANCH   1   4
HETATM    4  N   UNL     1      26.848  44.398  51.861  1.00  0.00    -0.348 N 
HETATM    5  C   UNL     1      27.873  43.508  52.098  1.00  0.00     0.253 C 
HETATM    6  O   UNL     1      28.106  42.536  51.391  1.00  0.00    -0.268 OA
HETATM    7  H   UNL     1      26.621  45.103  52.544  1.00  0.00     0.163 HD
BRANCH   5   8
HETATM    8  C   UNL     1      28.696  43.753  53.306  1.00  0.00     0.050 A 
HETATM    9  C   UNL     1      29.850  42.995  53.486  1.00  0.00     0.133 A 
HETATM   10  N   UNL     1      30.677  43.115  54.556  1.00  0.00    -0.271 NA
HETATM   11  C   UNL     1      30.341  44.046  55.479  1.00  0.00     0.135 A 
HETATM   12  C   UNL     1      29.223  44.859  55.375  1.00  0.00     0.029 A 
HETATM   13 BR   UNL     1      28.837  46.140  56.705  1.00  0.00    -0.050 Br
HETATM   14  C   UNL     1      28.387  44.717  54.270  1.00  0.00     0.039 A 
ENDBRANCH   5   8
ENDBRANCH   1   4
BRANCH   1  15
HETATM   15  C   UNL     1      25.480  45.646  50.285  1.00  0.00    -0.035 A 
HETATM   16  C   UNL     1      26.392  46.709  50.262  1.00  0.00     0.012 A 
HETATM   17  C   UNL     1      25.986  47.987  49.868  1.00  0.00     0.037 A 
HETATM   18  C   UNL     1      24.663  48.233  49.500  1.00  0.00     0.068 A 
HETATM   19  C   UNL     1      23.748  47.182  49.513  1.00  0.00     0.037 A 
HETATM   20  C   UNL     1      24.155  45.898  49.898  1.00  0.00     0.012 A 
BRANCH  18  21
HETATM   21  O   UNL     1      24.398  49.527  49.145  1.00  0.00    -0.356 OA
HETATM   22  C   UNL     1      23.034  49.925  49.142  1.00  0.00     0.210 C 
ENDBRANCH  18  21
ENDBRANCH   1  15
TORSDOF 5
ENDMDL
MODEL 10
REMARK VINA RESULT:      -6.6      3.662      8.699
REMARK  5 active torsions:
REMARK  status: ('A' for Active; 'I' for Inactive)
REMARK    1  A    between atoms: C_2  and  C_3 
REMARK    2  A    between atoms: C_3  and  N_4 
REMARK    3  A    between atoms: C_3  and  C_14 
REMARK       I    between atoms: N_4  and  C_5 
REMARK    4  A    between atoms: C_5  and  C_6 
REMARK    5  A    between atoms: C_17  and  O_18 
ROOT
HETATM    1  C   UNL     1      25.333  48.817  49.368  1.00  0.00     0.117 C 
ENDROOT
BRANCH   1   2
HETATM    2  C   UNL     1      26.307  49.585  48.454  1.00  0.00     0.025 C 
HETATM    3  C   UNL     1      27.742  49.583  48.965  1.00  0.00     0.007 C 
ENDBRANCH   1   2
BRANCH   1   4
HETATM    4  N   UNL     1      25.749  47.433  49.562  1.00  0.00    -0.348 N 
HETATM    5  C   UNL     1      26.039  46.915  50.805  1.00  0.00     0.253 C 
HETATM    6  O   UNL     1      25.981  47.563  51.842  1.00  0.00    -0.268 OA
HETATM    7  H   UNL     1      25.938  46.894  48.732  1.00  0.00     0.163 HD
BRANCH   5   8
HETATM    8  C   UNL     1      26.477  45.499  50.847  1.00  0.00     0.050 A 
HETATM    9  C   UNL     1      26.541  44.790  49.651  1.00  0.00     0.133 A 
HETATM   10  N   UNL     1      26.912  43.487  49.561  1.00  0.00    -0.271 NA
HETATM   11  C   UNL     1      27.247  42.871  50.718  1.00  0.00     0.135 A 
HETATM   12  C   UNL     1      27.232  43.502  51.953  1.00  0.00     0.029 A 
HETATM   13 BR   UNL     1      27.726  42.570  53.517  1.00  0.00    -0.050 Br
HETATM   14  C   UNL     1      26.846  44.838  52.022  1.00  0.00     0.039 A 
ENDBRANCH   5   8
ENDBRANCH   1   4
BRANCH   1  15
HETATM   15  C   UNL     1      23.921  48.844  48.802  1.00  0.00    -0.035 A 
HETATM   16  C   UNL     1      23.432  50.015  48.209  1.00  0.00     0.012 A 
HETATM   17  C   UNL     1      22.136  50.062  47.689  1.00  0.00     0.037 A 
HETATM   18  C   UNL     1      21.297  48.949  47.761  1.00  0.00     0.068 A 
HETATM   19  C   UNL     1      21.774  47.777  48.343  1.00  0.00     0.037 A 
HETATM   20  C   UNL     1      23.076  47.723  48.856  1.00  0.00     0.012 A 
BRANCH  18  21
HETATM   21  O   UNL     1      20.053  49.134  47.223  1.00  0.00    -0.356 OA
HETATM   22  C   UNL     1      18.962  49.178  48.132  1.00  0.00     0.210 C 
ENDBRANCH  18  21
ENDBRANCH   1  15
TORSDOF 5
ENDMDL
