MODEL 1
REMARK VINA RESULT:      -8.8      0.000      0.000
REMARK  7 active torsions:
REMARK  status: ('A' for Active; 'I' for Inactive)
REMARK    1  A    between atoms: CG_4  and  CB_5 
REMARK    2  A    between atoms: CB_5  and  CA_6 
REMARK    3  A    between atoms: CA_6  and  N_7 
REMARK    4  A    between atoms: CA_6  and  C_8 
REMARK       I    between atoms: N_7  and  C_14 
REMARK    5  A    between atoms: C_8  and  O_9 
REMARK       I    between atoms: C_14  and  N_15 
REMARK    6  A    between atoms: N_15  and  C_16 
REMARK    7  A    between atoms: C_22  and  C_23 
ROOT
ATOM      1  N   PHE A   1      26.714  42.911  52.132  1.00  0.00    -0.336 N 
ATOM      2  H   PHE A   1      25.957  42.432  52.593  1.00  0.00     0.164 HD
HETATM    3  C   UNK A   0      26.407  43.833  51.159  1.00  0.00     0.321 C 
HETATM    4  N   UNK A   0      25.096  44.234  51.241  1.00  0.00    -0.309 N 
HETATM    5  O   UNK A   0      27.249  44.202  50.350  1.00  0.00    -0.247 OA
HETATM    6  H   UNK A   0      24.563  43.843  52.001  1.00  0.00     0.170 HD
ENDROOT
BRANCH   1   7
ATOM      7  CA  PHE A   1      28.073  42.380  52.317  1.00  0.00     0.113 C 
BRANCH   7   8
ATOM      8  CB  PHE A   1      28.338  42.076  53.806  1.00  0.00     0.065 C 
BRANCH   8   9
ATOM      9  CG  PHE A   1      29.013  43.205  54.554  1.00  0.00    -0.056 A 
ATOM     10  CD1 PHE A   1      28.372  44.442  54.703  1.00  0.00     0.007 A 
ATOM     11  CE1 PHE A   1      28.995  45.485  55.393  1.00  0.00     0.001 A 
ATOM     12  CZ  PHE A   1      30.262  45.299  55.944  1.00  0.00     0.000 A 
ATOM     13  CE2 PHE A   1      30.904  44.071  55.812  1.00  0.00     0.001 A 
ATOM     14  CD2 PHE A   1      30.282  43.027  55.124  1.00  0.00     0.007 A 
ENDBRANCH   8   9
ENDBRANCH   7   8
BRANCH   7  15
ATOM     15  C   PHE A   1      28.296  41.107  51.473  1.00  0.00     0.189 C 
BRANCH  15  16
ATOM     16  O   PHE A   1      29.055  40.118  52.164  1.00  0.00    -0.399 OA
ATOM     17  H   PHE A   1      29.874  40.542  52.503  1.00  0.00     0.209 HD
ENDBRANCH  15  16
ENDBRANCH   7  15
ENDBRANCH   1   7
BRANCH   4  18
HETATM   18  C   UNK A   0      24.436  45.197  50.447  1.00  0.00     0.038 A 
HETATM   19  C   UNK A   0      24.704  46.570  50.508  1.00  0.00     0.063 A 
HETATM   20  C   UNK A   0      23.963  47.447  49.699  1.00  0.00     0.087 A 
HETATM   21  C   UNK A   0      22.993  46.937  48.845  1.00  0.00     0.063 A 
HETATM   22  N   UNK A   0      24.026  48.817  49.601  1.00  0.00    -0.228 NA
HETATM   23  N   UNK A   0      22.471  48.041  48.223  1.00  0.00    -0.338 N 
HETATM   24  C   UNK A   0      22.707  45.578  48.743  1.00  0.00     0.034 A 
HETATM   25  H   UNK A   0      21.734  48.046  47.531  1.00  0.00     0.167 HD
HETATM   26  C   UNK A   0      23.110  49.155  48.710  1.00  0.00     0.170 A 
HETATM   27  C   UNK A   0      23.448  44.720  49.568  1.00  0.00     0.032 A 
BRANCH  26  28
HETATM   28  C   UNK A   0      22.742  50.514  48.239  1.00  0.00     0.422 C 
HETATM   29  F   UNK A   0      22.340  51.290  49.283  1.00  0.00    -0.206 F 
HETATM   30  F   UNK A   0      23.827  51.148  47.711  1.00  0.00    -0.206 F 
ENDBRANCH  26  28
ENDBRANCH   4  18
TORSDOF 7
ENDMDL
MODEL 2
REMARK VINA RESULT:      -8.6      2.378      3.081
REMARK  7 active torsions:
REMARK  status: ('A' for Active; 'I' for Inactive)
REMARK    1  A    between atoms: CG_4  and  CB_5 
REMARK    2  A    between atoms: CB_5  and  CA_6 
REMARK    3  A    between atoms: CA_6  and  N_7 
REMARK    4  A    between atoms: CA_6  and  C_8 
REMARK       I    between atoms: N_7  and  C_14 
REMARK    5  A    between atoms: C_8  and  O_9 
REMARK       I    between atoms: C_14  and  N_15 
REMARK    6  A    between atoms: N_15  and  C_16 
REMARK    7  A    between atoms: C_22  and  C_23 
ROOT
ATOM      1  N   PHE A   1      26.889  45.211  52.153  1.00  0.00    -0.336 N 
ATOM      2  H   PHE A   1      27.575  44.941  51.466  1.00  0.00     0.164 HD
HETATM    3  C   UNK A   0      26.088  46.296  51.885  1.00  0.00     0.321 C 
HETATM    4  N   UNK A   0      26.090  46.606  50.547  1.00  0.00    -0.309 N 
HETATM    5  O   UNK A   0      25.478  46.868  52.780  1.00  0.00    -0.247 OA
HETATM    6  H   UNK A   0      26.630  45.994  49.955  1.00  0.00     0.170 HD
ENDROOT
BRANCH   1   7
ATOM      7  CA  PHE A   1      26.998  44.623  53.496  1.00  0.00     0.113 C 
BRANCH   7   8
ATOM      8  CB  PHE A   1      27.751  45.579  54.446  1.00  0.00     0.065 C 
BRANCH   8   9
ATOM      9  CG  PHE A   1      28.950  44.953  55.125  1.00  0.00    -0.056 A 
ATOM     10  CD1 PHE A   1      29.490  43.751  54.648  1.00  0.00     0.007 A 
ATOM     11  CE1 PHE A   1      30.596  43.173  55.275  1.00  0.00     0.001 A 
ATOM     12  CZ  PHE A   1      31.176  43.792  56.380  1.00  0.00     0.000 A 
ATOM     13  CE2 PHE A   1      30.656  44.993  56.857  1.00  0.00     0.001 A 
ATOM     14  CD2 PHE A   1      29.551  45.574  56.230  1.00  0.00     0.007 A 
ENDBRANCH   8   9
ENDBRANCH   7   8
BRANCH   7  15
ATOM     15  C   PHE A   1      25.607  44.294  54.079  1.00  0.00     0.189 C 
BRANCH  15  16
ATOM     16  O   PHE A   1      24.740  43.694  53.120  1.00  0.00    -0.399 OA
ATOM     17  H   PHE A   1      23.907  44.214  53.092  1.00  0.00     0.209 HD
ENDBRANCH  15  16
ENDBRANCH   7  15
ENDBRANCH   1   7
BRANCH   4  18
HETATM   18  C   UNK A   0      25.356  47.619  49.893  1.00  0.00     0.038 A 
HETATM   19  C   UNK A   0      23.957  47.656  49.846  1.00  0.00     0.063 A 
HETATM   20  C   UNK A   0      23.325  48.691  49.136  1.00  0.00     0.087 A 
HETATM   21  C   UNK A   0      24.096  49.662  48.511  1.00  0.00     0.063 A 
HETATM   22  N   UNK A   0      21.986  48.924  48.929  1.00  0.00    -0.228 NA
HETATM   23  N   UNK A   0      23.182  50.495  47.920  1.00  0.00    -0.338 N 
HETATM   24  C   UNK A   0      25.488  49.670  48.547  1.00  0.00     0.034 A 
HETATM   25  H   UNK A   0      23.389  51.319  47.372  1.00  0.00     0.167 HD
HETATM   26  C   UNK A   0      21.923  50.015  48.185  1.00  0.00     0.170 A 
HETATM   27  C   UNK A   0      26.100  48.622  49.249  1.00  0.00     0.032 A 
BRANCH  26  28
HETATM   28  C   UNK A   0      20.717  50.697  47.654  1.00  0.00     0.422 C 
HETATM   29  F   UNK A   0      19.594  49.987  47.952  1.00  0.00    -0.206 F 
HETATM   30  F   UNK A   0      20.549  51.910  48.254  1.00  0.00    -0.206 F 
ENDBRANCH  26  28
ENDBRANCH   4  18
TORSDOF 7
ENDMDL
MODEL 3
REMARK VINA RESULT:      -8.6      5.634      7.375
REMARK  7 active torsions:
REMARK  status: ('A' for Active; 'I' for Inactive)
REMARK    1  A    between atoms: CG_4  and  CB_5 
REMARK    2  A    between atoms: CB_5  and  CA_6 
REMARK    3  A    between atoms: CA_6  and  N_7 
REMARK    4  A    between atoms: CA_6  and  C_8 
REMARK       I    between atoms: N_7  and  C_14 
REMARK    5  A    between atoms: C_8  and  O_9 
REMARK       I    between atoms: C_14  and  N_15 
REMARK    6  A    between atoms: N_15  and  C_16 
REMARK    7  A    between atoms: C_22  and  C_23 
ROOT
ATOM      1  N   PHE A   1      27.425  45.721  53.810  1.00  0.00    -0.336 N 
ATOM      2  H   PHE A   1      27.293  46.411  53.088  1.00  0.00     0.164 HD
HETATM    3  C   UNK A   0      27.102  44.413  53.531  1.00  0.00     0.321 C 
HETATM    4  N   UNK A   0      27.013  44.195  52.178  1.00  0.00    -0.309 N 
HETATM    5  O   UNK A   0      26.928  43.599  54.429  1.00  0.00    -0.247 OA
HETATM    6  H   UNK A   0      27.227  44.985  51.590  1.00  0.00     0.170 HD
ENDROOT
BRANCH   1   7
ATOM      7  CA  PHE A   1      27.661  46.200  55.180  1.00  0.00     0.113 C 
BRANCH   7   8
ATOM      8  CB  PHE A   1      29.151  46.548  55.384  1.00  0.00     0.065 C 
BRANCH   8   9
ATOM      9  CG  PHE A   1      29.945  45.466  56.083  1.00  0.00    -0.056 A 
ATOM     10  CD1 PHE A   1      30.281  44.283  55.411  1.00  0.00     0.007 A 
ATOM     11  CE1 PHE A   1      31.014  43.285  56.057  1.00  0.00     0.001 A 
ATOM     12  CZ  PHE A   1      31.421  43.461  57.378  1.00  0.00     0.000 A 
ATOM     13  CE2 PHE A   1      31.103  44.636  58.053  1.00  0.00     0.001 A 
ATOM     14  CD2 PHE A   1      30.372  45.637  57.408  1.00  0.00     0.007 A 
ENDBRANCH   8   9
ENDBRANCH   7   8
BRANCH   7  15
ATOM     15  C   PHE A   1      26.787  47.431  55.502  1.00  0.00     0.189 C 
BRANCH  15  16
ATOM     16  O   PHE A   1      25.733  47.615  54.561  1.00  0.00    -0.399 OA
ATOM     17  H   PHE A   1      25.276  46.754  54.438  1.00  0.00     0.209 HD
ENDBRANCH  15  16
ENDBRANCH   7  15
ENDBRANCH   1   7
BRANCH   4  18
HETATM   18  C   UNK A   0      26.751  42.977  51.514  1.00  0.00     0.038 A 
HETATM   19  C   UNK A   0      27.692  41.949  51.377  1.00  0.00     0.063 A 
HETATM   20  C   UNK A   0      27.338  40.790  50.666  1.00  0.00     0.087 A 
HETATM   21  C   UNK A   0      26.061  40.679  50.129  1.00  0.00     0.063 A 
HETATM   22  N   UNK A   0      28.085  39.672  50.380  1.00  0.00    -0.228 NA
HETATM   23  N   UNK A   0      26.057  39.456  49.510  1.00  0.00    -0.338 N 
HETATM   24  C   UNK A   0      25.092  41.671  50.257  1.00  0.00     0.034 A 
HETATM   25  H   UNK A   0      25.284  39.042  49.007  1.00  0.00     0.167 HD
HETATM   26  C   UNK A   0      27.294  38.883  49.674  1.00  0.00     0.170 A 
HETATM   27  C   UNK A   0      25.469  42.824  50.958  1.00  0.00     0.032 A 
BRANCH  26  28
HETATM   28  C   UNK A   0      27.604  37.554  49.090  1.00  0.00     0.422 C 
HETATM   29  F   UNK A   0      28.871  37.535  48.588  1.00  0.00    -0.206 F 
HETATM   30  F   UNK A   0      27.581  36.590  50.053  1.00  0.00    -0.206 F 
ENDBRANCH  26  28
ENDBRANCH   4  18
TORSDOF 7
ENDMDL
MODEL 4
REMARK VINA RESULT:      -8.5      4.425      9.689
REMARK  7 active torsions:
REMARK  status: ('A' for Active; 'I' for Inactive)
REMARK    1  A    between atoms: CG_4  and  CB_5 
REMARK    2  A    between atoms: CB_5  and  CA_6 
REMARK    3  A    between atoms: CA_6  and  N_7 
REMARK    4  A    between atoms: CA_6  and  C_8 
REMARK       I    between atoms: N_7  and  C_14 
REMARK    5  A    between atoms: C_8  and  O_9 
REMARK       I    between atoms: C_14  and  N_15 
REMARK    6  A    between atoms: N_15  and  C_16 
REMARK    7  A    between atoms: C_22  and  C_23 
ROOT
ATOM      1  N   PHE A   1      23.327  47.995  49.728  1.00  0.00    -0.336 N 
ATOM      2  H   PHE A   1      22.558  48.059  50.376  1.00  0.00     0.164 HD
HETATM    3  C   UNK A   0      24.560  47.623  50.212  1.00  0.00     0.321 C 
HETATM    4  N   UNK A   0      24.456  47.022  51.443  1.00  0.00    -0.309 N 
HETATM    5  O   UNK A   0      25.581  47.836  49.571  1.00  0.00    -0.247 OA
HETATM    6  H   UNK A   0      23.521  46.903  51.797  1.00  0.00     0.170 HD
ENDROOT
BRANCH   1   7
ATOM      7  CA  PHE A   1      23.149  48.586  48.393  1.00  0.00     0.113 C 
BRANCH   7   8
ATOM      8  CB  PHE A   1      21.666  48.529  47.969  1.00  0.00     0.065 C 
BRANCH   8   9
ATOM      9  CG  PHE A   1      20.809  49.616  48.582  1.00  0.00    -0.056 A 
ATOM     10  CD1 PHE A   1      20.696  50.867  47.960  1.00  0.00     0.007 A 
ATOM     11  CE1 PHE A   1      19.905  51.870  48.526  1.00  0.00     0.001 A 
ATOM     12  CZ  PHE A   1      19.218  51.631  49.714  1.00  0.00     0.000 A 
ATOM     13  CE2 PHE A   1      19.314  50.388  50.335  1.00  0.00     0.001 A 
ATOM     14  CD2 PHE A   1      20.102  49.383  49.770  1.00  0.00     0.007 A 
ENDBRANCH   8   9
ENDBRANCH   7   8
BRANCH   7  15
ATOM     15  C   PHE A   1      23.650  50.046  48.356  1.00  0.00     0.189 C 
BRANCH  15  16
ATOM     16  O   PHE A   1      24.556  50.287  47.284  1.00  0.00    -0.399 OA
ATOM     17  H   PHE A   1      24.317  49.692  46.540  1.00  0.00     0.209 HD
ENDBRANCH  15  16
ENDBRANCH   7  15
ENDBRANCH   1   7
BRANCH   4  18
HETATM   18  C   UNK A   0      25.495  46.470  52.224  1.00  0.00     0.038 A 
HETATM   19  C   UNK A   0      26.149  45.272  51.912  1.00  0.00     0.063 A 
HETATM   20  C   UNK A   0      27.146  44.793  52.778  1.00  0.00     0.087 A 
HETATM   21  C   UNK A   0      27.473  45.520  53.915  1.00  0.00     0.063 A 
HETATM   22  N   UNK A   0      27.901  43.647  52.699  1.00  0.00    -0.228 NA
HETATM   23  N   UNK A   0      28.454  44.781  54.523  1.00  0.00    -0.338 N 
HETATM   24  C   UNK A   0      26.857  46.723  54.254  1.00  0.00     0.034 A 
HETATM   25  H   UNK A   0      28.929  45.010  55.385  1.00  0.00     0.167 HD
HETATM   26  C   UNK A   0      28.679  43.656  53.768  1.00  0.00     0.170 A 
HETATM   27  C   UNK A   0      25.857  47.178  53.384  1.00  0.00     0.032 A 
BRANCH  26  28
HETATM   28  C   UNK A   0      29.679  42.642  54.187  1.00  0.00     0.422 C 
HETATM   29  F   UNK A   0      30.662  42.524  53.252  1.00  0.00    -0.206 F 
HETATM   30  F   UNK A   0      30.309  43.034  55.330  1.00  0.00    -0.206 F 
ENDBRANCH  26  28
ENDBRANCH   4  18
TORSDOF 7
ENDMDL
MODEL 5
REMARK VINA RESULT:      -8.4      4.432      9.546
REMARK  7 active torsions:
REMARK  status: ('A' for Active; 'I' for Inactive)
REMARK    1  A    between atoms: CG_4  and  CB_5 
REMARK    2  A    between atoms: CB_5  and  CA_6 
REMARK    3  A    between atoms: CA_6  and  N_7 
REMARK    4  A    between atoms: CA_6  and  C_8 
REMARK       I    between atoms: N_7  and  C_14 
REMARK    5  A    between atoms: C_8  and  O_9 
REMARK       I    between atoms: C_14  and  N_15 
REMARK    6  A    between atoms: N_15  and  C_16 
REMARK    7  A    between atoms: C_22  and  C_23 
ROOT
ATOM      1  N   PHE A   1      23.280  48.032  49.637  1.00  0.00    -0.336 N 
ATOM      2  H   PHE A   1      22.511  48.142  50.279  1.00  0.00     0.164 HD
HETATM    3  C   UNK A   0      24.498  47.633  50.139  1.00  0.00     0.321 C 
HETATM    4  N   UNK A   0      24.368  47.075  51.388  1.00  0.00    -0.309 N 
HETATM    5  O   UNK A   0      25.528  47.789  49.497  1.00  0.00    -0.247 OA
HETATM    6  H   UNK A   0      23.428  47.000  51.741  1.00  0.00     0.170 HD
ENDROOT
BRANCH   1   7
ATOM      7  CA  PHE A   1      23.128  48.586  48.284  1.00  0.00     0.113 C 
BRANCH   7   8
ATOM      8  CB  PHE A   1      21.646  48.568  47.854  1.00  0.00     0.065 C 
BRANCH   8   9
ATOM      9  CG  PHE A   1      20.798  49.624  48.530  1.00  0.00    -0.056 A 
ATOM     10  CD1 PHE A   1      20.134  49.341  49.731  1.00  0.00     0.007 A 
ATOM     11  CE1 PHE A   1      19.350  50.316  50.354  1.00  0.00     0.001 A 
ATOM     12  CZ  PHE A   1      19.227  51.582  49.786  1.00  0.00     0.000 A 
ATOM     13  CE2 PHE A   1      19.891  51.878  48.598  1.00  0.00     0.001 A 
ATOM     14  CD2 PHE A   1      20.676  50.906  47.975  1.00  0.00     0.007 A 
ENDBRANCH   8   9
ENDBRANCH   7   8
BRANCH   7  15
ATOM     15  C   PHE A   1      23.681  50.025  48.203  1.00  0.00     0.189 C 
BRANCH  15  16
ATOM     16  O   PHE A   1      24.863  50.114  47.412  1.00  0.00    -0.399 OA
ATOM     17  H   PHE A   1      25.566  49.588  47.851  1.00  0.00     0.209 HD
ENDBRANCH  15  16
ENDBRANCH   7  15
ENDBRANCH   1   7
BRANCH   4  18
HETATM   18  C   UNK A   0      25.383  46.512  52.192  1.00  0.00     0.038 A 
HETATM   19  C   UNK A   0      25.903  47.133  53.334  1.00  0.00     0.063 A 
HETATM   20  C   UNK A   0      26.939  46.502  54.043  1.00  0.00     0.087 A 
HETATM   21  C   UNK A   0      27.415  45.271  53.609  1.00  0.00     0.063 A 
HETATM   22  N   UNK A   0      27.618  46.919  55.164  1.00  0.00    -0.228 NA
HETATM   23  N   UNK A   0      28.403  44.953  54.504  1.00  0.00    -0.338 N 
HETATM   24  C   UNK A   0      26.915  44.614  52.488  1.00  0.00     0.034 A 
HETATM   25  H   UNK A   0      28.974  44.119  54.494  1.00  0.00     0.167 HD
HETATM   26  C   UNK A   0      28.503  45.972  55.419  1.00  0.00     0.170 A 
HETATM   27  C   UNK A   0      25.891  45.266  51.787  1.00  0.00     0.032 A 
BRANCH  26  28
HETATM   28  C   UNK A   0      29.510  45.924  56.509  1.00  0.00     0.422 C 
HETATM   29  F   UNK A   0      28.898  45.874  57.725  1.00  0.00    -0.206 F 
HETATM   30  F   UNK A   0      30.250  44.781  56.427  1.00  0.00    -0.206 F 
ENDBRANCH  26  28
ENDBRANCH   4  18
TORSDOF 7
ENDMDL
MODEL 6
REMARK VINA RESULT:      -8.4      1.735      2.220
REMARK  7 active torsions:
REMARK  status: ('A' for Active; 'I' for Inactive)
REMARK    1  A    between atoms: CG_4  and  CB_5 
REMARK    2  A    between atoms: CB_5  and  CA_6 
REMARK    3  A    between atoms: CA_6  and  N_7 
REMARK    4  A    between atoms: CA_6  and  C_8 
REMARK       I    between atoms: N_7  and  C_14 
REMARK    5  A    between atoms: C_8  and  O_9 
REMARK       I    between atoms: C_14  and  N_15 
REMARK    6  A    between atoms: N_15  and  C_16 
REMARK    7  A    between atoms: C_22  and  C_23 
ROOT
ATOM      1  N   PHE A   1      27.866  44.198  52.276  1.00  0.00    -0.336 N 
ATOM      2  H   PHE A   1      28.492  44.043  51.502  1.00  0.00     0.164 HD
HETATM    3  C   UNK A   0      26.791  45.036  52.088  1.00  0.00     0.321 C 
HETATM    4  N   UNK A   0      26.528  45.224  50.753  1.00  0.00    -0.309 N 
HETATM    5  O   UNK A   0      26.192  45.520  53.040  1.00  0.00    -0.247 OA
HETATM    6  H   UNK A   0      27.112  44.711  50.112  1.00  0.00     0.170 HD
ENDROOT
BRANCH   1   7
ATOM      7  CA  PHE A   1      28.307  43.768  53.611  1.00  0.00     0.113 C 
BRANCH   7   8
ATOM      8  CB  PHE A   1      28.642  44.991  54.491  1.00  0.00     0.065 C 
BRANCH   8   9
ATOM      9  CG  PHE A   1      29.625  44.697  55.604  1.00  0.00    -0.056 A 
ATOM     10  CD1 PHE A   1      30.493  43.601  55.514  1.00  0.00     0.007 A 
ATOM     11  CE1 PHE A   1      31.400  43.329  56.541  1.00  0.00     0.001 A 
ATOM     12  CZ  PHE A   1      31.450  44.152  57.665  1.00  0.00     0.000 A 
ATOM     13  CE2 PHE A   1      30.600  45.250  57.761  1.00  0.00     0.001 A 
ATOM     14  CD2 PHE A   1      29.694  45.525  56.734  1.00  0.00     0.007 A 
ENDBRANCH   8   9
ENDBRANCH   7   8
BRANCH   7  15
ATOM     15  C   PHE A   1      27.232  42.903  54.304  1.00  0.00     0.189 C 
BRANCH  15  16
ATOM     16  O   PHE A   1      26.342  43.673  55.106  1.00  0.00    -0.399 OA
ATOM     17  H   PHE A   1      26.745  44.558  55.249  1.00  0.00     0.209 HD
ENDBRANCH  15  16
ENDBRANCH   7  15
ENDBRANCH   1   7
BRANCH   4  18
HETATM   18  C   UNK A   0      25.480  45.975  50.177  1.00  0.00     0.038 A 
HETATM   19  C   UNK A   0      25.464  47.375  50.128  1.00  0.00     0.063 A 
HETATM   20  C   UNK A   0      24.354  48.025  49.563  1.00  0.00     0.087 A 
HETATM   21  C   UNK A   0      23.305  47.271  49.052  1.00  0.00     0.063 A 
HETATM   22  N   UNK A   0      24.100  49.369  49.424  1.00  0.00    -0.228 NA
HETATM   23  N   UNK A   0      22.408  48.201  48.595  1.00  0.00    -0.338 N 
HETATM   24  C   UNK A   0      23.290  45.878  49.067  1.00  0.00     0.034 A 
HETATM   25  H   UNK A   0      21.517  48.009  48.158  1.00  0.00     0.167 HD
HETATM   26  C   UNK A   0      22.915  49.452  48.844  1.00  0.00     0.170 A 
HETATM   27  C   UNK A   0      24.400  45.249  49.647  1.00  0.00     0.032 A 
BRANCH  26  28
HETATM   28  C   UNK A   0      22.153  50.673  48.480  1.00  0.00     0.422 C 
HETATM   29  F   UNK A   0      22.993  51.734  48.324  1.00  0.00    -0.206 F 
HETATM   30  F   UNK A   0      21.541  50.513  47.273  1.00  0.00    -0.206 F 
ENDBRANCH  26  28
ENDBRANCH   4  18
TORSDOF 7
ENDMDL
MODEL 7
REMARK VINA RESULT:      -8.2      4.495      9.837
REMARK  7 active torsions:
REMARK  status: ('A' for Active; 'I' for Inactive)
REMARK    1  A    between atoms: CG_4  and  CB_5 
REMARK    2  A    between atoms: CB_5  and  CA_6 
REMARK    3  A    between atoms: CA_6  and  N_7 
REMARK    4  A    between atoms: CA_6  and  C_8 
REMARK       I    between atoms: N_7  and  C_14 
REMARK    5  A    between atoms: C_8  and  O_9 
REMARK       I    between atoms: C_14  and  N_15 
REMARK    6  A    between atoms: N_15  and  C_16 
REMARK    7  A    between atoms: C_22  and  C_23 
ROOT
ATOM      1  N   PHE A   1      22.851  48.450  49.508  1.00  0.00    -0.336 N 
ATOM      2  H   PHE A   1      22.106  48.127  50.104  1.00  0.00     0.164 HD
HETATM    3  C   UNK A   0      24.111  47.932  49.699  1.00  0.00     0.321 C 
HETATM    4  N   UNK A   0      24.072  46.766  50.425  1.00  0.00    -0.309 N 
HETATM    5  O   UNK A   0      25.101  48.496  49.250  1.00  0.00    -0.247 OA
HETATM    6  H   UNK A   0      23.154  46.437  50.678  1.00  0.00     0.170 HD
ENDROOT
BRANCH   1   7
ATOM      7  CA  PHE A   1      22.606  49.649  48.694  1.00  0.00     0.113 C 
BRANCH   7   8
ATOM      8  CB  PHE A   1      21.258  49.534  47.951  1.00  0.00     0.065 C 
BRANCH   8   9
ATOM      9  CG  PHE A   1      20.136  50.325  48.588  1.00  0.00    -0.056 A 
ATOM     10  CD1 PHE A   1      19.904  51.656  48.216  1.00  0.00     0.007 A 
ATOM     11  CE1 PHE A   1      18.868  52.386  48.805  1.00  0.00     0.001 A 
ATOM     12  CZ  PHE A   1      18.053  51.792  49.766  1.00  0.00     0.000 A 
ATOM     13  CE2 PHE A   1      18.267  50.467  50.136  1.00  0.00     0.001 A 
ATOM     14  CD2 PHE A   1      19.300  49.735  49.547  1.00  0.00     0.007 A 
ENDBRANCH   8   9
ENDBRANCH   7   8
BRANCH   7  15
ATOM     15  C   PHE A   1      22.620  50.927  49.561  1.00  0.00     0.189 C 
BRANCH  15  16
ATOM     16  O   PHE A   1      22.304  50.666  50.925  1.00  0.00    -0.399 OA
ATOM     17  H   PHE A   1      21.501  50.101  50.952  1.00  0.00     0.209 HD
ENDBRANCH  15  16
ENDBRANCH   7  15
ENDBRANCH   1   7
BRANCH   4  18
HETATM   18  C   UNK A   0      25.154  45.930  50.775  1.00  0.00     0.038 A 
HETATM   19  C   UNK A   0      25.707  45.875  52.060  1.00  0.00     0.063 A 
HETATM   20  C   UNK A   0      26.807  45.033  52.294  1.00  0.00     0.087 A 
HETATM   21  C   UNK A   0      27.313  44.263  51.254  1.00  0.00     0.063 A 
HETATM   22  N   UNK A   0      27.528  44.828  53.447  1.00  0.00    -0.228 NA
HETATM   23  N   UNK A   0      28.362  43.581  51.814  1.00  0.00    -0.338 N 
HETATM   24  C   UNK A   0      26.782  44.277  49.967  1.00  0.00     0.034 A 
HETATM   25  H   UNK A   0      28.968  42.923  51.343  1.00  0.00     0.167 HD
HETATM   26  C   UNK A   0      28.467  43.953  53.132  1.00  0.00     0.170 A 
HETATM   27  C   UNK A   0      25.693  45.133  49.751  1.00  0.00     0.032 A 
BRANCH  26  28
HETATM   28  C   UNK A   0      29.534  43.396  54.001  1.00  0.00     0.422 C 
HETATM   29  F   UNK A   0      29.057  42.355  54.738  1.00  0.00    -0.206 F 
HETATM   30  F   UNK A   0      30.543  42.875  53.246  1.00  0.00    -0.206 F 
ENDBRANCH  26  28
ENDBRANCH   4  18
TORSDOF 7
ENDMDL
MODEL 8
REMARK VINA RESULT:      -8.1      4.976      9.830
REMARK  7 active torsions:
REMARK  status: ('A' for Active; 'I' for Inactive)
REMARK    1  A    between atoms: CG_4  and  CB_5 
REMARK    2  A    between atoms: CB_5  and  CA_6 
REMARK    3  A    between atoms: CA_6  and  N_7 
REMARK    4  A    between atoms: CA_6  and  C_8 
REMARK       I    between atoms: N_7  and  C_14 
REMARK    5  A    between atoms: C_8  and  O_9 
REMARK       I    between atoms: C_14  and  N_15 
REMARK    6  A    between atoms: N_15  and  C_16 
REMARK    7  A    between atoms: C_22  and  C_23 
ROOT
ATOM      1  N   PHE A   1      23.586  48.983  49.571  1.00  0.00    -0.336 N 
ATOM      2  H   PHE A   1      24.367  49.551  49.857  1.00  0.00     0.164 HD
HETATM    3  C   UNK A   0      23.735  47.615  49.577  1.00  0.00     0.321 C 
HETATM    4  N   UNK A   0      24.807  47.230  50.344  1.00  0.00    -0.309 N 
HETATM    5  O   UNK A   0      22.970  46.894  48.950  1.00  0.00    -0.247 OA
HETATM    6  H   UNK A   0      25.300  47.971  50.815  1.00  0.00     0.170 HD
ENDROOT
BRANCH   1   7
ATOM      7  CA  PHE A   1      22.466  49.652  48.891  1.00  0.00     0.113 C 
BRANCH   7   8
ATOM      8  CB  PHE A   1      21.903  50.791  49.768  1.00  0.00     0.065 C 
BRANCH   8   9
ATOM      9  CG  PHE A   1      20.435  51.077  49.535  1.00  0.00    -0.056 A 
ATOM     10  CD1 PHE A   1      19.453  50.387  50.259  1.00  0.00     0.007 A 
ATOM     11  CE1 PHE A   1      18.098  50.651  50.044  1.00  0.00     0.001 A 
ATOM     12  CZ  PHE A   1      17.713  51.608  49.109  1.00  0.00     0.000 A 
ATOM     13  CE2 PHE A   1      18.679  52.308  48.392  1.00  0.00     0.001 A 
ATOM     14  CD2 PHE A   1      20.034  52.048  48.606  1.00  0.00     0.007 A 
ENDBRANCH   8   9
ENDBRANCH   7   8
BRANCH   7  15
ATOM     15  C   PHE A   1      22.898  50.211  47.519  1.00  0.00     0.189 C 
BRANCH  15  16
ATOM     16  O   PHE A   1      24.310  50.178  47.333  1.00  0.00    -0.399 OA
ATOM     17  H   PHE A   1      24.552  50.886  46.696  1.00  0.00     0.209 HD
ENDBRANCH  15  16
ENDBRANCH   7  15
ENDBRANCH   1   7
BRANCH   4  18
HETATM   18  C   UNK A   0      25.240  45.916  50.625  1.00  0.00     0.038 A 
HETATM   19  C   UNK A   0      26.036  45.159  49.757  1.00  0.00     0.063 A 
HETATM   20  C   UNK A   0      26.382  43.845  50.117  1.00  0.00     0.087 A 
HETATM   21  C   UNK A   0      25.942  43.331  51.331  1.00  0.00     0.063 A 
HETATM   22  N   UNK A   0      27.122  42.911  49.432  1.00  0.00    -0.228 NA
HETATM   23  N   UNK A   0      26.442  42.055  51.361  1.00  0.00    -0.338 N 
HETATM   24  C   UNK A   0      25.163  44.056  52.229  1.00  0.00     0.034 A 
HETATM   25  H   UNK A   0      26.317  41.380  52.103  1.00  0.00     0.167 HD
HETATM   26  C   UNK A   0      27.138  41.835  50.198  1.00  0.00     0.170 A 
HETATM   27  C   UNK A   0      24.818  45.359  51.845  1.00  0.00     0.032 A 
BRANCH  26  28
HETATM   28  C   UNK A   0      27.781  40.524  49.928  1.00  0.00     0.422 C 
HETATM   29  F   UNK A   0      26.844  39.585  49.619  1.00  0.00    -0.206 F 
HETATM   30  F   UNK A   0      28.591  40.603  48.834  1.00  0.00    -0.206 F 
ENDBRANCH  26  28
ENDBRANCH   4  18
TORSDOF 7
ENDMDL
MODEL 9
REMARK VINA RESULT:      -8.1      6.543      8.408
REMARK  7 active torsions:
REMARK  status: ('A' for Active; 'I' for Inactive)
REMARK    1  A    between atoms: CG_4  and  CB_5 
REMARK    2  A    between atoms: CB_5  and  CA_6 
REMARK    3  A    between atoms: CA_6  and  N_7 
REMARK    4  A    between atoms: CA_6  and  C_8 
REMARK       I    between atoms: N_7  and  C_14 
REMARK    5  A    between atoms: C_8  and  O_9 
REMARK       I    between atoms: C_14  and  N_15 
REMARK    6  A    between atoms: N_15  and  C_16 
REMARK    7  A    between atoms: C_22  and  C_23 
ROOT
ATOM      1  N   PHE A   1      28.031  43.052  52.918  1.00  0.00    -0.336 N 
ATOM      2  H   PHE A   1      27.963  43.725  52.171  1.00  0.00     0.164 HD
HETATM    3  C   UNK A   0      27.881  41.719  52.612  1.00  0.00     0.321 C 
HETATM    4  N   UNK A   0      28.047  41.490  51.268  1.00  0.00    -0.309 N 
HETATM    5  O   UNK A   0      27.630  40.895  53.482  1.00  0.00    -0.247 OA
HETATM    6  H   UNK A   0      28.286  42.294  50.710  1.00  0.00     0.170 HD
ENDROOT
BRANCH   1   7
ATOM      7  CA  PHE A   1      27.984  43.555  54.299  1.00  0.00     0.113 C 
BRANCH   7   8
ATOM      8  CB  PHE A   1      28.977  44.721  54.485  1.00  0.00     0.065 C 
BRANCH   8   9
ATOM      9  CG  PHE A   1      29.870  44.581  55.699  1.00  0.00    -0.056 A 
ATOM     10  CD1 PHE A   1      30.826  43.558  55.764  1.00  0.00     0.007 A 
ATOM     11  CE1 PHE A   1      31.650  43.427  56.884  1.00  0.00     0.001 A 
ATOM     12  CZ  PHE A   1      31.530  44.320  57.947  1.00  0.00     0.000 A 
ATOM     13  CE2 PHE A   1      30.592  45.348  57.890  1.00  0.00     0.001 A 
ATOM     14  CD2 PHE A   1      29.769  45.481  56.769  1.00  0.00     0.007 A 
ENDBRANCH   8   9
ENDBRANCH   7   8
BRANCH   7  15
ATOM     15  C   PHE A   1      26.560  44.013  54.679  1.00  0.00     0.189 C 
BRANCH  15  16
ATOM     16  O   PHE A   1      25.761  42.951  55.194  1.00  0.00    -0.399 OA
ATOM     17  H   PHE A   1      25.029  43.344  55.719  1.00  0.00     0.209 HD
ENDBRANCH  15  16
ENDBRANCH   7  15
ENDBRANCH   1   7
BRANCH   4  18
HETATM   18  C   UNK A   0      28.014  40.250  50.593  1.00  0.00     0.038 A 
HETATM   19  C   UNK A   0      26.973  39.857  49.742  1.00  0.00     0.063 A 
HETATM   20  C   UNK A   0      27.021  38.585  49.147  1.00  0.00     0.087 A 
HETATM   21  C   UNK A   0      28.104  37.752  49.400  1.00  0.00     0.063 A 
HETATM   22  N   UNK A   0      26.121  37.973  48.307  1.00  0.00    -0.228 NA
HETATM   23  N   UNK A   0      27.833  36.615  48.684  1.00  0.00    -0.338 N 
HETATM   24  C   UNK A   0      29.165  38.111  50.227  1.00  0.00     0.034 A 
HETATM   25  H   UNK A   0      28.409  35.786  48.635  1.00  0.00     0.167 HD
HETATM   26  C   UNK A   0      26.628  36.781  48.047  1.00  0.00     0.170 A 
HETATM   27  C   UNK A   0      29.092  39.378  50.821  1.00  0.00     0.032 A 
BRANCH  26  28
HETATM   28  C   UNK A   0      26.052  35.701  47.206  1.00  0.00     0.422 C 
HETATM   29  F   UNK A   0      26.710  34.527  47.418  1.00  0.00    -0.206 F 
HETATM   30  F   UNK A   0      24.757  35.460  47.556  1.00  0.00    -0.206 F 
ENDBRANCH  26  28
ENDBRANCH   4  18
TORSDOF 7
ENDMDL
MODEL 10
REMARK VINA RESULT:      -8.0      2.713      4.229
REMARK  7 active torsions:
REMARK  status: ('A' for Active; 'I' for Inactive)
REMARK    1  A    between atoms: CG_4  and  CB_5 
REMARK    2  A    between atoms: CB_5  and  CA_6 
REMARK    3  A    between atoms: CA_6  and  N_7 
REMARK    4  A    between atoms: CA_6  and  C_8 
REMARK       I    between atoms: N_7  and  C_14 
REMARK    5  A    between atoms: C_8  and  O_9 
REMARK       I    between atoms: C_14  and  N_15 
REMARK    6  A    between atoms: N_15  and  C_16 
REMARK    7  A    between atoms: C_22  and  C_23 
ROOT
ATOM      1  N   PHE A   1      25.317  45.833  50.069  1.00  0.00    -0.336 N 
ATOM      2  H   PHE A   1      25.071  45.245  49.288  1.00  0.00     0.164 HD
HETATM    3  C   UNK A   0      24.812  47.112  50.107  1.00  0.00     0.321 C 
HETATM    4  N   UNK A   0      23.738  47.255  49.264  1.00  0.00    -0.309 N 
HETATM    5  O   UNK A   0      25.312  47.967  50.827  1.00  0.00    -0.247 OA
HETATM    6  H   UNK A   0      23.448  46.423  48.775  1.00  0.00     0.170 HD
ENDROOT
BRANCH   1   7
ATOM      7  CA  PHE A   1      26.418  45.393  50.938  1.00  0.00     0.113 C 
BRANCH   7   8
ATOM      8  CB  PHE A   1      25.900  45.102  52.363  1.00  0.00     0.065 C 
BRANCH   8   9
ATOM      9  CG  PHE A   1      26.804  45.617  53.462  1.00  0.00    -0.056 A 
ATOM     10  CD1 PHE A   1      27.734  44.766  54.074  1.00  0.00     0.007 A 
ATOM     11  CE1 PHE A   1      28.568  45.241  55.090  1.00  0.00     0.001 A 
ATOM     12  CZ  PHE A   1      28.483  46.570  55.499  1.00  0.00     0.000 A 
ATOM     13  CE2 PHE A   1      27.570  47.428  54.891  1.00  0.00     0.001 A 
ATOM     14  CD2 PHE A   1      26.737  46.955  53.874  1.00  0.00     0.007 A 
ENDBRANCH   8   9
ENDBRANCH   7   8
BRANCH   7  15
ATOM     15  C   PHE A   1      27.115  44.139  50.367  1.00  0.00     0.189 C 
BRANCH  15  16
ATOM     16  O   PHE A   1      26.669  43.814  49.054  1.00  0.00    -0.399 OA
ATOM     17  H   PHE A   1      26.333  42.891  49.063  1.00  0.00     0.209 HD
ENDBRANCH  15  16
ENDBRANCH   7  15
ENDBRANCH   1   7
BRANCH   4  18
HETATM   18  C   UNK A   0      22.936  48.401  49.071  1.00  0.00     0.038 A 
HETATM   19  C   UNK A   0      21.537  48.388  49.123  1.00  0.00     0.063 A 
HETATM   20  C   UNK A   0      20.834  49.580  48.881  1.00  0.00     0.087 A 
HETATM   21  C   UNK A   0      21.537  50.748  48.612  1.00  0.00     0.063 A 
HETATM   22  N   UNK A   0      19.479  49.811  48.853  1.00  0.00    -0.228 NA
HETATM   23  N   UNK A   0      20.566  51.696  48.423  1.00  0.00    -0.338 N 
HETATM   24  C   UNK A   0      22.928  50.806  48.568  1.00  0.00     0.034 A 
HETATM   25  H   UNK A   0      20.715  52.671  48.204  1.00  0.00     0.167 HD
HETATM   26  C   UNK A   0      19.340  51.093  48.566  1.00  0.00     0.170 A 
HETATM   27  C   UNK A   0      23.611  49.604  48.799  1.00  0.00     0.032 A 
BRANCH  26  28
HETATM   28  C   UNK A   0      18.084  51.866  48.394  1.00  0.00     0.422 C 
HETATM   29  F   UNK A   0      17.028  51.189  48.925  1.00  0.00    -0.206 F 
HETATM   30  F   UNK A   0      18.146  53.041  49.083  1.00  0.00    -0.206 F 
ENDBRANCH  26  28
ENDBRANCH   4  18
TORSDOF 7
ENDMDL
