MODEL 1
REMARK VINA RESULT:      -8.3      0.000      0.000
REMARK  3 active torsions:
REMARK  status: ('A' for Active; 'I' for Inactive)
REMARK    1  A    between atoms: C_9  and  N_10 
REMARK    2  A    between atoms: N_13  and  C_14 
REMARK    3  A    between atoms: C_14  and  C_15 
ROOT
HETATM    1  C   UNL     1      29.672  44.628  55.574  1.00  0.00    -0.006 A 
HETATM    2  C   UNL     1      29.335  45.655  56.486  1.00  0.00     0.052 A 
HETATM    3  C   UNL     1      28.300  46.611  56.195  1.00  0.00     0.100 C 
HETATM    4  N   UNL     1      27.477  47.396  55.961  1.00  0.00    -0.191 NA
HETATM    5  C   UNL     1      30.017  45.757  57.710  1.00  0.00     0.026 A 
HETATM    6  C   UNL     1      31.031  44.854  58.031  1.00  0.00     0.044 A 
HETATM    7  C   UNL     1      31.367  43.855  57.127  1.00  0.00     0.117 A 
HETATM    8  F   UNL     1      32.337  42.985  57.434  1.00  0.00    -0.206 F 
HETATM    9  C   UNL     1      30.704  43.735  55.910  1.00  0.00     0.052 A 
ENDROOT
BRANCH   1  10
HETATM   10  C   UNL     1      28.935  44.452  54.258  1.00  0.00     0.312 C 
BRANCH  10  11
HETATM   11  N   UNL     1      28.619  43.041  54.001  1.00  0.00     0.096 N 
HETATM   12  C   UNL     1      27.187  42.843  53.711  1.00  0.00     0.303 C 
HETATM   13  C   UNL     1      26.788  43.117  52.242  1.00  0.00     0.303 C 
HETATM   14  N   UNL     1      27.554  42.324  51.241  1.00  0.00     0.096 N 
HETATM   15  C   UNL     1      28.985  42.681  51.499  1.00  0.00     0.303 C 
HETATM   16  C   UNL     1      29.464  42.440  52.955  1.00  0.00     0.303 C 
BRANCH  14  17
HETATM   17  C   UNL     1      27.318  40.852  51.302  1.00  0.00     0.227 C 
HETATM   18  C   UNL     1      25.956  40.373  50.722  1.00  0.00     0.069 C 
HETATM   19  C   UNL     1      25.942  40.148  49.205  1.00  0.00     0.190 C 
HETATM   20  N   UNL     1      26.975  39.100  48.852  1.00  0.00    -0.066 N 
HETATM   21  C   UNL     1      26.458  41.341  48.398  1.00  0.00     0.035 C 
HETATM   22  C   UNL     1      26.834  37.729  49.431  1.00  0.00     0.270 C 
HETATM   23  H   UNL     1      26.905  38.953  47.834  1.00  0.00     0.280 HD
HETATM   24  C   UNL     1      28.262  39.856  49.088  1.00  0.00     0.190 C 
HETATM   25  C   UNL     1      27.980  41.152  48.322  1.00  0.00     0.035 C 
HETATM   26  C   UNL     1      28.459  40.062  50.596  1.00  0.00     0.069 C 
ENDBRANCH  14  17
ENDBRANCH  10  11
ENDBRANCH   1  10
TORSDOF 3
ENDMDL
MODEL 2
REMARK VINA RESULT:      -8.0      2.529      3.822
REMARK  3 active torsions:
REMARK  status: ('A' for Active; 'I' for Inactive)
REMARK    1  A    between atoms: C_9  and  N_10 
REMARK    2  A    between atoms: N_13  and  C_14 
REMARK    3  A    between atoms: C_14  and  C_15 
ROOT
HETATM    1  C   UNL     1      27.476  44.622  54.118  1.00  0.00    -0.006 A 
HETATM    2  C   UNL     1      28.673  44.978  54.782  1.00  0.00     0.052 A 
HETATM    3  C   UNL     1      29.722  44.020  55.007  1.00  0.00     0.100 C 
HETATM    4  N   UNL     1      30.567  43.249  55.206  1.00  0.00    -0.191 NA
HETATM    5  C   UNL     1      28.857  46.294  55.238  1.00  0.00     0.026 A 
HETATM    6  C   UNL     1      27.863  47.253  55.045  1.00  0.00     0.044 A 
HETATM    7  C   UNL     1      26.684  46.897  54.403  1.00  0.00     0.117 A 
HETATM    8  F   UNL     1      25.731  47.816  54.215  1.00  0.00    -0.206 F 
HETATM    9  C   UNL     1      26.481  45.600  53.944  1.00  0.00     0.052 A 
ENDROOT
BRANCH   1  10
HETATM   10  C   UNL     1      27.249  43.225  53.570  1.00  0.00     0.312 C 
BRANCH  10  11
HETATM   11  N   UNL     1      27.471  43.170  52.119  1.00  0.00     0.096 N 
HETATM   12  C   UNL     1      28.677  42.395  51.777  1.00  0.00     0.303 C 
HETATM   13  C   UNL     1      28.459  40.865  51.719  1.00  0.00     0.303 C 
HETATM   14  N   UNL     1      27.379  40.434  50.788  1.00  0.00     0.096 N 
HETATM   15  C   UNL     1      26.158  41.147  51.280  1.00  0.00     0.303 C 
HETATM   16  C   UNL     1      26.296  42.690  51.371  1.00  0.00     0.303 C 
BRANCH  14  17
HETATM   17  C   UNL     1      27.654  40.709  49.348  1.00  0.00     0.227 C 
HETATM   18  C   UNL     1      28.955  40.069  48.786  1.00  0.00     0.069 C 
HETATM   19  C   UNL     1      28.811  38.618  48.312  1.00  0.00     0.190 C 
HETATM   20  N   UNL     1      27.771  38.557  47.215  1.00  0.00    -0.066 N 
HETATM   21  C   UNL     1      28.183  37.687  49.354  1.00  0.00     0.035 C 
HETATM   22  C   UNL     1      28.004  39.334  45.960  1.00  0.00     0.270 C 
HETATM   23  H   UNL     1      27.733  37.575  46.903  1.00  0.00     0.280 HD
HETATM   24  C   UNL     1      26.499  38.807  47.994  1.00  0.00     0.190 C 
HETATM   25  C   UNL     1      26.667  37.812  49.147  1.00  0.00     0.035 C 
HETATM   26  C   UNL     1      26.462  40.273  48.446  1.00  0.00     0.069 C 
ENDBRANCH  14  17
ENDBRANCH  10  11
ENDBRANCH   1  10
TORSDOF 3
ENDMDL
MODEL 3
REMARK VINA RESULT:      -8.0      1.490      2.662
REMARK  3 active torsions:
REMARK  status: ('A' for Active; 'I' for Inactive)
REMARK    1  A    between atoms: C_9  and  N_10 
REMARK    2  A    between atoms: N_13  and  C_14 
REMARK    3  A    between atoms: C_14  and  C_15 
ROOT
HETATM    1  C   UNL     1      28.551  43.855  54.515  1.00  0.00    -0.006 A 
HETATM    2  C   UNL     1      28.194  45.164  54.913  1.00  0.00     0.052 A 
HETATM    3  C   UNL     1      26.967  45.776  54.473  1.00  0.00     0.100 C 
HETATM    4  N   UNL     1      25.987  46.282  54.111  1.00  0.00    -0.191 NA
HETATM    5  C   UNL     1      29.045  45.899  55.755  1.00  0.00     0.026 A 
HETATM    6  C   UNL     1      30.246  45.346  56.201  1.00  0.00     0.044 A 
HETATM    7  C   UNL     1      30.599  44.064  55.799  1.00  0.00     0.117 A 
HETATM    8  F   UNL     1      31.749  43.531  56.227  1.00  0.00    -0.206 F 
HETATM    9  C   UNL     1      29.771  43.320  54.964  1.00  0.00     0.052 A 
ENDROOT
BRANCH   1  10
HETATM   10  C   UNL     1      27.645  43.008  53.640  1.00  0.00     0.312 C 
BRANCH  10  11
HETATM   11  N   UNL     1      28.001  43.128  52.220  1.00  0.00     0.096 N 
HETATM   12  C   UNL     1      28.867  42.021  51.776  1.00  0.00     0.303 C 
HETATM   13  C   UNL     1      28.110  40.728  51.394  1.00  0.00     0.303 C 
HETATM   14  N   UNL     1      27.065  40.916  50.349  1.00  0.00     0.096 N 
HETATM   15  C   UNL     1      26.143  41.946  50.925  1.00  0.00     0.303 C 
HETATM   16  C   UNL     1      26.828  43.275  51.339  1.00  0.00     0.303 C 
BRANCH  14  17
HETATM   17  C   UNL     1      27.589  41.312  49.010  1.00  0.00     0.227 C 
HETATM   18  C   UNL     1      28.745  40.427  48.461  1.00  0.00     0.069 C 
HETATM   19  C   UNL     1      28.296  39.156  47.729  1.00  0.00     0.190 C 
HETATM   20  N   UNL     1      27.430  39.545  46.551  1.00  0.00    -0.066 N 
HETATM   21  C   UNL     1      27.318  38.293  48.531  1.00  0.00     0.035 C 
HETATM   22  C   UNL     1      28.020  40.403  45.478  1.00  0.00     0.270 C 
HETATM   23  H   UNL     1      27.184  38.668  46.068  1.00  0.00     0.280 HD
HETATM   24  C   UNL     1      26.174  40.019  47.246  1.00  0.00     0.190 C 
HETATM   25  C   UNL     1      25.926  38.860  48.216  1.00  0.00     0.035 C 
HETATM   26  C   UNL     1      26.456  41.357  47.944  1.00  0.00     0.069 C 
ENDBRANCH  14  17
ENDBRANCH  10  11
ENDBRANCH   1  10
TORSDOF 3
ENDMDL
MODEL 4
REMARK VINA RESULT:      -7.7     10.339     12.111
REMARK  3 active torsions:
REMARK  status: ('A' for Active; 'I' for Inactive)
REMARK    1  A    between atoms: C_9  and  N_10 
REMARK    2  A    between atoms: N_13  and  C_14 
REMARK    3  A    between atoms: C_14  and  C_15 
ROOT
HETATM    1  C   UNL     1      24.626  48.377  49.342  1.00  0.00    -0.006 A 
HETATM    2  C   UNL     1      25.394  47.295  49.830  1.00  0.00     0.052 A 
HETATM    3  C   UNL     1      24.776  46.149  50.442  1.00  0.00     0.100 C 
HETATM    4  N   UNL     1      24.286  45.227  50.950  1.00  0.00    -0.191 NA
HETATM    5  C   UNL     1      26.794  47.324  49.722  1.00  0.00     0.026 A 
HETATM    6  C   UNL     1      27.435  48.419  49.140  1.00  0.00     0.044 A 
HETATM    7  C   UNL     1      26.678  49.484  48.673  1.00  0.00     0.117 A 
HETATM    8  F   UNL     1      27.289  50.534  48.112  1.00  0.00    -0.206 F 
HETATM    9  C   UNL     1      25.290  49.476  48.770  1.00  0.00     0.052 A 
ENDROOT
BRANCH   1  10
HETATM   10  C   UNL     1      23.109  48.373  49.399  1.00  0.00     0.312 C 
BRANCH  10  11
HETATM   11  N   UNL     1      22.527  49.262  48.385  1.00  0.00     0.096 N 
HETATM   12  C   UNL     1      21.495  48.581  47.583  1.00  0.00     0.303 C 
HETATM   13  C   UNL     1      20.095  48.547  48.239  1.00  0.00     0.303 C 
HETATM   14  N   UNL     1      19.556  49.886  48.604  1.00  0.00     0.096 N 
HETATM   15  C   UNL     1      20.584  50.461  49.529  1.00  0.00     0.303 C 
HETATM   16  C   UNL     1      22.021  50.527  48.947  1.00  0.00     0.303 C 
BRANCH  14  17
HETATM   17  C   UNL     1      19.275  50.781  47.444  1.00  0.00     0.227 C 
HETATM   18  C   UNL     1      18.386  50.161  46.328  1.00  0.00     0.069 C 
HETATM   19  C   UNL     1      16.876  50.269  46.568  1.00  0.00     0.190 C 
HETATM   20  N   UNL     1      16.497  51.729  46.685  1.00  0.00    -0.066 N 
HETATM   21  C   UNL     1      16.428  49.748  47.936  1.00  0.00     0.035 C 
HETATM   22  C   UNL     1      16.753  52.633  45.522  1.00  0.00     0.270 C 
HETATM   23  H   UNL     1      15.474  51.756  46.807  1.00  0.00     0.280 HD
HETATM   24  C   UNL     1      17.098  52.089  48.024  1.00  0.00     0.190 C 
HETATM   25  C   UNL     1      16.576  50.940  48.892  1.00  0.00     0.035 C 
HETATM   26  C   UNL     1      18.627  52.121  47.901  1.00  0.00     0.069 C 
ENDBRANCH  14  17
ENDBRANCH  10  11
ENDBRANCH   1  10
TORSDOF 3
ENDMDL
MODEL 5
REMARK VINA RESULT:      -7.4     13.636     15.000
REMARK  3 active torsions:
REMARK  status: ('A' for Active; 'I' for Inactive)
REMARK    1  A    between atoms: C_9  and  N_10 
REMARK    2  A    between atoms: N_13  and  C_14 
REMARK    3  A    between atoms: C_14  and  C_15 
ROOT
HETATM    1  C   UNL     1      31.657  52.079  41.699  1.00  0.00    -0.006 A 
HETATM    2  C   UNL     1      32.790  51.700  40.942  1.00  0.00     0.052 A 
HETATM    3  C   UNL     1      32.757  51.667  39.504  1.00  0.00     0.100 C 
HETATM    4  N   UNL     1      32.735  51.623  38.344  1.00  0.00    -0.191 NA
HETATM    5  C   UNL     1      33.982  51.345  41.594  1.00  0.00     0.026 A 
HETATM    6  C   UNL     1      34.056  51.358  42.988  1.00  0.00     0.044 A 
HETATM    7  C   UNL     1      32.938  51.720  43.727  1.00  0.00     0.117 A 
HETATM    8  F   UNL     1      33.007  51.737  45.064  1.00  0.00    -0.206 F 
HETATM    9  C   UNL     1      31.747  52.075  43.102  1.00  0.00     0.052 A 
ENDROOT
BRANCH   1  10
HETATM   10  C   UNL     1      30.360  52.511  41.039  1.00  0.00     0.312 C 
BRANCH  10  11
HETATM   11  N   UNL     1      29.236  51.660  41.450  1.00  0.00     0.096 N 
HETATM   12  C   UNL     1      27.997  51.999  40.725  1.00  0.00     0.303 C 
HETATM   13  C   UNL     1      27.875  51.346  39.328  1.00  0.00     0.303 C 
HETATM   14  N   UNL     1      27.991  49.861  39.333  1.00  0.00     0.096 N 
HETATM   15  C   UNL     1      29.328  49.595  39.950  1.00  0.00     0.303 C 
HETATM   16  C   UNL     1      29.534  50.220  41.356  1.00  0.00     0.303 C 
BRANCH  14  17
HETATM   17  C   UNL     1      26.887  49.154  40.045  1.00  0.00     0.227 C 
HETATM   18  C   UNL     1      25.478  49.308  39.405  1.00  0.00     0.069 C 
HETATM   19  C   UNL     1      25.167  48.316  38.278  1.00  0.00     0.190 C 
HETATM   20  N   UNL     1      25.263  46.906  38.820  1.00  0.00    -0.066 N 
HETATM   21  C   UNL     1      26.233  48.273  37.180  1.00  0.00     0.035 C 
HETATM   22  C   UNL     1      24.350  46.501  39.932  1.00  0.00     0.270 C 
HETATM   23  H   UNL     1      25.010  46.277  38.043  1.00  0.00     0.280 HD
HETATM   24  C   UNL     1      26.754  46.763  39.020  1.00  0.00     0.190 C 
HETATM   25  C   UNL     1      27.275  47.256  37.667  1.00  0.00     0.035 C 
HETATM   26  C   UNL     1      27.192  47.636  40.204  1.00  0.00     0.069 C 
ENDBRANCH  14  17
ENDBRANCH  10  11
ENDBRANCH   1  10
TORSDOF 3
ENDMDL
MODEL 6
REMARK VINA RESULT:      -7.1     13.359     14.673
REMARK  3 active torsions:
REMARK  status: ('A' for Active; 'I' for Inactive)
REMARK    1  A    between atoms: C_9  and  N_10 
REMARK    2  A    between atoms: N_13  and  C_14 
REMARK    3  A    between atoms: C_14  and  C_15 
ROOT
HETATM    1  C   UNL     1      33.336  50.336  42.204  1.00  0.00    -0.006 A 
HETATM    2  C   UNL     1      33.729  51.276  43.185  1.00  0.00     0.052 A 
HETATM    3  C   UNL     1      32.821  51.720  44.209  1.00  0.00     0.100 C 
HETATM    4  N   UNL     1      32.090  52.094  45.030  1.00  0.00    -0.191 NA
HETATM    5  C   UNL     1      35.032  51.799  43.172  1.00  0.00     0.026 A 
HETATM    6  C   UNL     1      35.943  51.401  42.194  1.00  0.00     0.044 A 
HETATM    7  C   UNL     1      35.550  50.486  41.226  1.00  0.00     0.117 A 
HETATM    8  F   UNL     1      36.423  50.100  40.288  1.00  0.00    -0.206 F 
HETATM    9  C   UNL     1      34.264  49.956  41.219  1.00  0.00     0.052 A 
ENDROOT
BRANCH   1  10
HETATM   10  C   UNL     1      31.952  49.713  42.202  1.00  0.00     0.312 C 
BRANCH  10  11
HETATM   11  N   UNL     1      31.342  49.756  40.866  1.00  0.00     0.096 N 
HETATM   12  C   UNL     1      30.950  48.414  40.398  1.00  0.00     0.303 C 
HETATM   13  C   UNL     1      29.577  47.929  40.920  1.00  0.00     0.303 C 
HETATM   14  N   UNL     1      28.446  48.850  40.616  1.00  0.00     0.096 N 
HETATM   15  C   UNL     1      28.847  50.150  41.241  1.00  0.00     0.303 C 
HETATM   16  C   UNL     1      30.218  50.704  40.773  1.00  0.00     0.303 C 
BRANCH  14  17
HETATM   17  C   UNL     1      28.134  48.993  39.164  1.00  0.00     0.227 C 
HETATM   18  C   UNL     1      28.028  47.658  38.373  1.00  0.00     0.069 C 
HETATM   19  C   UNL     1      26.655  46.976  38.435  1.00  0.00     0.190 C 
HETATM   20  N   UNL     1      25.611  47.916  37.872  1.00  0.00    -0.066 N 
HETATM   21  C   UNL     1      26.125  46.780  39.858  1.00  0.00     0.035 C 
HETATM   22  C   UNL     1      25.739  48.364  36.452  1.00  0.00     0.270 C 
HETATM   23  H   UNL     1      24.716  47.406  37.898  1.00  0.00     0.280 HD
HETATM   24  C   UNL     1      25.538  48.966  38.957  1.00  0.00     0.190 C 
HETATM   25  C   UNL     1      25.394  48.085  40.201  1.00  0.00     0.035 C 
HETATM   26  C   UNL     1      26.824  49.803  38.940  1.00  0.00     0.069 C 
ENDBRANCH  14  17
ENDBRANCH  10  11
ENDBRANCH   1  10
TORSDOF 3
ENDMDL
MODEL 7
REMARK VINA RESULT:      -7.1      3.012      4.395
REMARK  3 active torsions:
REMARK  status: ('A' for Active; 'I' for Inactive)
REMARK    1  A    between atoms: C_9  and  N_10 
REMARK    2  A    between atoms: N_13  and  C_14 
REMARK    3  A    between atoms: C_14  and  C_15 
ROOT
HETATM    1  C   UNL     1      27.287  44.423  52.409  1.00  0.00    -0.006 A 
HETATM    2  C   UNL     1      27.722  44.396  53.755  1.00  0.00     0.052 A 
HETATM    3  C   UNL     1      28.669  43.418  54.220  1.00  0.00     0.100 C 
HETATM    4  N   UNL     1      29.421  42.623  54.608  1.00  0.00    -0.191 NA
HETATM    5  C   UNL     1      27.228  45.340  54.670  1.00  0.00     0.026 A 
HETATM    6  C   UNL     1      26.304  46.303  54.262  1.00  0.00     0.044 A 
HETATM    7  C   UNL     1      25.871  46.318  52.944  1.00  0.00     0.117 A 
HETATM    8  F   UNL     1      24.987  47.243  52.549  1.00  0.00    -0.206 F 
HETATM    9  C   UNL     1      26.347  45.393  52.020  1.00  0.00     0.052 A 
ENDROOT
BRANCH   1  10
HETATM   10  C   UNL     1      27.824  43.451  51.375  1.00  0.00     0.312 C 
BRANCH  10  11
HETATM   11  N   UNL     1      26.864  42.375  51.095  1.00  0.00     0.096 N 
HETATM   12  C   UNL     1      26.435  42.375  49.684  1.00  0.00     0.303 C 
HETATM   13  C   UNL     1      27.404  41.651  48.721  1.00  0.00     0.303 C 
HETATM   14  N   UNL     1      27.696  40.238  49.092  1.00  0.00     0.096 N 
HETATM   15  C   UNL     1      28.259  40.327  50.477  1.00  0.00     0.303 C 
HETATM   16  C   UNL     1      27.347  41.046  51.507  1.00  0.00     0.303 C 
BRANCH  14  17
HETATM   17  C   UNL     1      26.522  39.320  49.016  1.00  0.00     0.227 C 
HETATM   18  C   UNL     1      25.790  39.292  47.644  1.00  0.00     0.069 C 
HETATM   19  C   UNL     1      26.396  38.340  46.606  1.00  0.00     0.190 C 
HETATM   20  N   UNL     1      26.374  36.930  47.156  1.00  0.00    -0.066 N 
HETATM   21  C   UNL     1      27.898  38.538  46.387  1.00  0.00     0.035 C 
HETATM   22  C   UNL     1      25.057  36.314  47.500  1.00  0.00     0.270 C 
HETATM   23  H   UNL     1      26.753  36.322  46.415  1.00  0.00     0.280 HD
HETATM   24  C   UNL     1      27.436  37.011  48.229  1.00  0.00     0.190 C 
HETATM   25  C   UNL     1      28.581  37.669  47.453  1.00  0.00     0.035 C 
HETATM   26  C   UNL     1      26.914  37.862  49.395  1.00  0.00     0.069 C 
ENDBRANCH  14  17
ENDBRANCH  10  11
ENDBRANCH   1  10
TORSDOF 3
ENDMDL
MODEL 8
REMARK VINA RESULT:      -7.1      2.333      4.018
REMARK  3 active torsions:
REMARK  status: ('A' for Active; 'I' for Inactive)
REMARK    1  A    between atoms: C_9  and  N_10 
REMARK    2  A    between atoms: N_13  and  C_14 
REMARK    3  A    between atoms: C_14  and  C_15 
ROOT
HETATM    1  C   UNL     1      27.972  43.223  52.225  1.00  0.00    -0.006 A 
HETATM    2  C   UNL     1      27.083  43.833  53.140  1.00  0.00     0.052 A 
HETATM    3  C   UNL     1      25.724  44.137  52.780  1.00  0.00     0.100 C 
HETATM    4  N   UNL     1      24.630  44.399  52.492  1.00  0.00    -0.191 NA
HETATM    5  C   UNL     1      27.522  44.156  54.435  1.00  0.00     0.026 A 
HETATM    6  C   UNL     1      28.834  43.883  54.824  1.00  0.00     0.044 A 
HETATM    7  C   UNL     1      29.707  43.295  53.919  1.00  0.00     0.117 A 
HETATM    8  F   UNL     1      30.965  43.030  54.291  1.00  0.00    -0.206 F 
HETATM    9  C   UNL     1      29.293  42.967  52.632  1.00  0.00     0.052 A 
ENDROOT
BRANCH   1  10
HETATM   10  C   UNL     1      27.532  42.818  50.830  1.00  0.00     0.312 C 
BRANCH  10  11
HETATM   11  N   UNL     1      27.145  41.403  50.775  1.00  0.00     0.096 N 
HETATM   12  C   UNL     1      25.972  41.187  49.907  1.00  0.00     0.303 C 
HETATM   13  C   UNL     1      26.304  41.071  48.401  1.00  0.00     0.303 C 
HETATM   14  N   UNL     1      27.296  40.010  48.072  1.00  0.00     0.096 N 
HETATM   15  C   UNL     1      28.506  40.371  48.877  1.00  0.00     0.303 C 
HETATM   16  C   UNL     1      28.257  40.511  50.402  1.00  0.00     0.303 C 
BRANCH  14  17
HETATM   17  C   UNL     1      26.831  38.619  48.341  1.00  0.00     0.227 C 
HETATM   18  C   UNL     1      25.650  38.130  47.454  1.00  0.00     0.069 C 
HETATM   19  C   UNL     1      26.058  37.556  46.092  1.00  0.00     0.190 C 
HETATM   20  N   UNL     1      26.976  36.373  46.309  1.00  0.00    -0.066 N 
HETATM   21  C   UNL     1      26.969  38.479  45.279  1.00  0.00     0.035 C 
HETATM   22  C   UNL     1      26.461  35.194  47.069  1.00  0.00     0.270 C 
HETATM   23  H   UNL     1      27.194  35.997  45.375  1.00  0.00     0.280 HD
HETATM   24  C   UNL     1      28.233  37.055  46.800  1.00  0.00     0.190 C 
HETATM   25  C   UNL     1      28.395  38.153  45.745  1.00  0.00     0.035 C 
HETATM   26  C   UNL     1      27.997  37.594  48.217  1.00  0.00     0.069 C 
ENDBRANCH  14  17
ENDBRANCH  10  11
ENDBRANCH   1  10
TORSDOF 3
ENDMDL
MODEL 9
REMARK VINA RESULT:      -7.0     14.366     16.915
REMARK  3 active torsions:
REMARK  status: ('A' for Active; 'I' for Inactive)
REMARK    1  A    between atoms: C_9  and  N_10 
REMARK    2  A    between atoms: N_13  and  C_14 
REMARK    3  A    between atoms: C_14  and  C_15 
ROOT
HETATM    1  C   UNL     1      30.932  50.277  40.508  1.00  0.00    -0.006 A 
HETATM    2  C   UNL     1      30.835  49.014  41.137  1.00  0.00     0.052 A 
HETATM    3  C   UNL     1      31.909  48.059  41.077  1.00  0.00     0.100 C 
HETATM    4  N   UNL     1      32.765  47.277  41.021  1.00  0.00    -0.191 NA
HETATM    5  C   UNL     1      29.669  48.669  41.840  1.00  0.00     0.026 A 
HETATM    6  C   UNL     1      28.601  49.563  41.919  1.00  0.00     0.044 A 
HETATM    7  C   UNL     1      28.696  50.797  41.291  1.00  0.00     0.117 A 
HETATM    8  F   UNL     1      27.674  51.658  41.367  1.00  0.00    -0.206 F 
HETATM    9  C   UNL     1      29.841  51.159  40.588  1.00  0.00     0.052 A 
ENDROOT
BRANCH   1  10
HETATM   10  C   UNL     1      32.187  50.711  39.772  1.00  0.00     0.312 C 
BRANCH  10  11
HETATM   11  N   UNL     1      32.904  51.764  40.502  1.00  0.00     0.096 N 
HETATM   12  C   UNL     1      33.276  51.334  41.862  1.00  0.00     0.303 C 
HETATM   13  C   UNL     1      34.579  50.506  41.939  1.00  0.00     0.303 C 
HETATM   14  N   UNL     1      35.770  51.180  41.349  1.00  0.00     0.096 N 
HETATM   15  C   UNL     1      35.375  51.459  39.932  1.00  0.00     0.303 C 
HETATM   16  C   UNL     1      34.071  52.285  39.768  1.00  0.00     0.303 C 
BRANCH  14  17
HETATM   17  C   UNL     1      36.205  52.412  42.069  1.00  0.00     0.227 C 
HETATM   18  C   UNL     1      36.435  52.243  43.598  1.00  0.00     0.069 C 
HETATM   19  C   UNL     1      37.823  51.720  43.989  1.00  0.00     0.190 C 
HETATM   20  N   UNL     1      38.875  52.682  43.481  1.00  0.00    -0.066 N 
HETATM   21  C   UNL     1      38.230  50.438  43.258  1.00  0.00     0.035 C 
HETATM   22  C   UNL     1      38.857  54.092  43.975  1.00  0.00     0.270 C 
HETATM   23  H   UNL     1      39.784  52.314  43.797  1.00  0.00     0.280 HD
HETATM   24  C   UNL     1      38.809  52.438  41.990  1.00  0.00     0.190 C 
HETATM   25  C   UNL     1      38.875  50.908  41.946  1.00  0.00     0.035 C 
HETATM   26  C   UNL     1      37.497  53.013  41.440  1.00  0.00     0.069 C 
ENDBRANCH  14  17
ENDBRANCH  10  11
ENDBRANCH   1  10
TORSDOF 3
ENDMDL
MODEL 10
REMARK VINA RESULT:      -7.0     13.993     15.368
REMARK  3 active torsions:
REMARK  status: ('A' for Active; 'I' for Inactive)
REMARK    1  A    between atoms: C_9  and  N_10 
REMARK    2  A    between atoms: N_13  and  C_14 
REMARK    3  A    between atoms: C_14  and  C_15 
ROOT
HETATM    1  C   UNL     1      31.508  51.734  41.503  1.00  0.00    -0.006 A 
HETATM    2  C   UNL     1      32.791  51.602  40.925  1.00  0.00     0.052 A 
HETATM    3  C   UNL     1      32.975  51.580  39.498  1.00  0.00     0.100 C 
HETATM    4  N   UNL     1      33.130  51.545  38.348  1.00  0.00    -0.191 NA
HETATM    5  C   UNL     1      33.924  51.490  41.748  1.00  0.00     0.026 A 
HETATM    6  C   UNL     1      33.790  51.502  43.137  1.00  0.00     0.044 A 
HETATM    7  C   UNL     1      32.527  51.619  43.701  1.00  0.00     0.117 A 
HETATM    8  F   UNL     1      32.397  51.634  45.033  1.00  0.00    -0.206 F 
HETATM    9  C   UNL     1      31.393  51.731  42.904  1.00  0.00     0.052 A 
ENDROOT
BRANCH   1  10
HETATM   10  C   UNL     1      30.260  51.900  40.655  1.00  0.00     0.312 C 
BRANCH  10  11
HETATM   11  N   UNL     1      29.939  50.670  39.919  1.00  0.00     0.096 N 
HETATM   12  C   UNL     1      29.162  49.724  40.741  1.00  0.00     0.303 C 
HETATM   13  C   UNL     1      27.641  50.005  40.773  1.00  0.00     0.303 C 
HETATM   14  N   UNL     1      26.998  50.053  39.430  1.00  0.00     0.096 N 
HETATM   15  C   UNL     1      27.742  51.128  38.700  1.00  0.00     0.303 C 
HETATM   16  C   UNL     1      29.279  50.923  38.626  1.00  0.00     0.303 C 
BRANCH  14  17
HETATM   17  C   UNL     1      27.006  48.758  38.691  1.00  0.00     0.227 C 
HETATM   18  C   UNL     1      26.361  47.559  39.445  1.00  0.00     0.069 C 
HETATM   19  C   UNL     1      24.838  47.447  39.299  1.00  0.00     0.190 C 
HETATM   20  N   UNL     1      24.492  47.295  37.834  1.00  0.00    -0.066 N 
HETATM   21  C   UNL     1      24.088  48.737  39.638  1.00  0.00     0.035 C 
HETATM   22  C   UNL     1      25.023  46.114  37.089  1.00  0.00     0.270 C 
HETATM   23  H   UNL     1      23.468  47.185  37.787  1.00  0.00     0.280 HD
HETATM   24  C   UNL     1      24.799  48.679  37.309  1.00  0.00     0.190 C 
HETATM   25  C   UNL     1      24.064  49.546  38.334  1.00  0.00     0.035 C 
HETATM   26  C   UNL     1      26.319  48.891  37.300  1.00  0.00     0.069 C 
ENDBRANCH  14  17
ENDBRANCH  10  11
ENDBRANCH   1  10
TORSDOF 3
ENDMDL
