MODEL 1
REMARK VINA RESULT:     -10.5      0.000      0.000
REMARK  7 active torsions:
REMARK  status: ('A' for Active; 'I' for Inactive)
REMARK    1  A    between atoms: C_4  and  C_5 
REMARK    2  A    between atoms: C_9  and  C_10 
REMARK       I    between atoms: C_10  and  N_11 
REMARK    3  A    between atoms: N_11  and  N_12 
REMARK       I    between atoms: N_12  and  C_13 
REMARK    4  A    between atoms: C_13  and  C_14 
REMARK    5  A    between atoms: C_14  and  C_15 
REMARK    6  A    between atoms: C_15  and  C_16 
REMARK    7  A    between atoms: C_16  and  C_17 
ROOT
HETATM    1  N   UNL     1      23.979  46.577  50.054  1.00  0.00    -0.267 N 
HETATM    2  C   UNL     1      24.137  47.843  49.530  1.00  0.00     0.236 C 
HETATM    3  O   UNL     1      25.085  48.569  49.820  1.00  0.00    -0.272 OA
HETATM    4  H   UNL     1      23.118  46.038  49.961  1.00  0.00     0.190 HD
ENDROOT
BRANCH   1   5
HETATM    5  N   UNL     1      24.881  46.160  51.038  1.00  0.00    -0.262 N 
HETATM    6  C   UNL     1      24.647  44.978  51.708  1.00  0.00     0.288 C 
HETATM    7  O   UNL     1      23.691  44.254  51.433  1.00  0.00    -0.264 OA
HETATM    8  H   UNL     1      25.600  46.827  51.306  1.00  0.00     0.190 HD
BRANCH   6   9
HETATM    9  C   UNL     1      25.594  44.654  52.737  1.00  0.00     0.121 A 
HETATM   10  N   UNL     1      25.267  43.843  53.788  1.00  0.00    -0.272 N 
HETATM   11  N   UNL     1      26.274  43.615  54.641  1.00  0.00    -0.174 NA
HETATM   12  H   UNL     1      24.367  43.406  53.963  1.00  0.00     0.189 HD
HETATM   13  C   UNL     1      27.307  44.316  54.148  1.00  0.00     0.089 A 
HETATM   14  C   UNL     1      26.917  44.986  52.952  1.00  0.00     0.071 A 
BRANCH  13  15
HETATM   15  C   UNL     1      28.620  44.320  54.800  1.00  0.00    -0.006 A 
HETATM   16  C   UNL     1      29.039  45.431  55.547  1.00  0.00     0.014 A 
HETATM   17  C   UNL     1      30.280  45.438  56.188  1.00  0.00     0.001 A 
HETATM   18  C   UNL     1      31.124  44.334  56.086  1.00  0.00     0.000 A 
HETATM   19  C   UNL     1      30.727  43.225  55.341  1.00  0.00     0.001 A 
HETATM   20  C   UNL     1      29.483  43.216  54.702  1.00  0.00     0.014 A 
ENDBRANCH  13  15
ENDBRANCH   6   9
ENDBRANCH   1   5
BRANCH   2  21
HETATM   21  C   UNL     1      23.046  48.222  48.556  1.00  0.00     0.112 C 
BRANCH  21  22
HETATM   22  C   UNL     1      23.152  49.687  48.145  1.00  0.00     0.093 C 
BRANCH  22  23
HETATM   23  C   UNL     1      22.308  50.577  49.037  1.00  0.00     0.160 C 
HETATM   24  O   UNL     1      22.765  51.093  50.054  1.00  0.00    -0.292 OA
BRANCH  23  25
HETATM   25  C   UNL     1      20.882  50.824  48.661  1.00  0.00     0.013 A 
HETATM   26  C   UNL     1      20.025  51.374  49.626  1.00  0.00     0.054 A 
HETATM   27  C   UNL     1      18.691  51.631  49.314  1.00  0.00     0.103 A 
HETATM   28  C   UNL     1      18.193  51.316  48.047  1.00  0.00     0.102 A 
HETATM   29  O   UNL     1      17.922  52.188  50.304  1.00  0.00    -0.346 OA
HETATM   30  O   UNL     1      16.887  51.512  47.681  1.00  0.00    -0.346 OA
HETATM   31  C   UNL     1      19.040  50.781  47.079  1.00  0.00     0.040 A 
HETATM   32  C   UNL     1      16.051  51.734  48.824  1.00  0.00     0.202 C 
HETATM   33  C   UNL     1      16.701  52.720  49.782  1.00  0.00     0.202 C 
HETATM   34  C   UNL     1      20.382  50.532  47.384  1.00  0.00     0.018 A 
ENDBRANCH  23  25
ENDBRANCH  22  23
ENDBRANCH  21  22
ENDBRANCH   2  21
TORSDOF 7
ENDMDL
MODEL 2
REMARK VINA RESULT:     -10.2      2.866     11.814
REMARK  7 active torsions:
REMARK  status: ('A' for Active; 'I' for Inactive)
REMARK    1  A    between atoms: C_4  and  C_5 
REMARK    2  A    between atoms: C_9  and  C_10 
REMARK       I    between atoms: C_10  and  N_11 
REMARK    3  A    between atoms: N_11  and  N_12 
REMARK       I    between atoms: N_12  and  C_13 
REMARK    4  A    between atoms: C_13  and  C_14 
REMARK    5  A    between atoms: C_14  and  C_15 
REMARK    6  A    between atoms: C_15  and  C_16 
REMARK    7  A    between atoms: C_16  and  C_17 
ROOT
HETATM    1  N   UNL     1      24.960  45.821  50.641  1.00  0.00    -0.267 N 
HETATM    2  C   UNL     1      24.403  44.631  51.059  1.00  0.00     0.236 C 
HETATM    3  O   UNL     1      23.260  44.291  50.761  1.00  0.00    -0.272 OA
HETATM    4  H   UNL     1      25.831  46.193  51.020  1.00  0.00     0.190 HD
ENDROOT
BRANCH   1   5
HETATM    5  N   UNL     1      24.144  46.715  49.942  1.00  0.00    -0.262 N 
HETATM    6  C   UNL     1      24.612  47.983  49.671  1.00  0.00     0.288 C 
HETATM    7  O   UNL     1      25.748  48.336  49.985  1.00  0.00    -0.264 OA
HETATM    8  H   UNL     1      23.182  46.425  49.788  1.00  0.00     0.190 HD
BRANCH   6   9
HETATM    9  C   UNL     1      23.689  48.852  48.997  1.00  0.00     0.121 A 
HETATM   10  N   UNL     1      24.061  49.600  47.916  1.00  0.00    -0.272 N 
HETATM   11  N   UNL     1      23.072  50.331  47.386  1.00  0.00    -0.174 NA
HETATM   12  H   UNL     1      24.982  49.637  47.489  1.00  0.00     0.189 HD
HETATM   13  C   UNL     1      22.003  50.073  48.156  1.00  0.00     0.089 A 
HETATM   14  C   UNL     1      22.353  49.149  49.183  1.00  0.00     0.071 A 
BRANCH  13  15
HETATM   15  C   UNL     1      20.696  50.682  47.894  1.00  0.00    -0.006 A 
HETATM   16  C   UNL     1      19.851  50.153  46.907  1.00  0.00     0.014 A 
HETATM   17  C   UNL     1      18.596  50.714  46.661  1.00  0.00     0.001 A 
HETATM   18  C   UNL     1      18.170  51.818  47.396  1.00  0.00     0.000 A 
HETATM   19  C   UNL     1      18.999  52.362  48.374  1.00  0.00     0.001 A 
HETATM   20  C   UNL     1      20.255  51.798  48.623  1.00  0.00     0.014 A 
ENDBRANCH  13  15
ENDBRANCH   6   9
ENDBRANCH   1   5
BRANCH   2  21
HETATM   21  C   UNL     1      25.345  43.794  51.892  1.00  0.00     0.112 C 
BRANCH  21  22
HETATM   22  C   UNL     1      26.632  44.551  52.206  1.00  0.00     0.093 C 
BRANCH  22  23
HETATM   23  C   UNL     1      27.768  43.602  52.535  1.00  0.00     0.160 C 
HETATM   24  O   UNL     1      28.007  42.614  51.844  1.00  0.00    -0.292 OA
BRANCH  23  25
HETATM   25  C   UNL     1      28.613  43.883  53.736  1.00  0.00     0.013 A 
HETATM   26  C   UNL     1      28.187  44.872  54.634  1.00  0.00     0.054 A 
HETATM   27  C   UNL     1      28.940  45.157  55.772  1.00  0.00     0.103 A 
HETATM   28  C   UNL     1      30.137  44.477  56.010  1.00  0.00     0.102 A 
HETATM   29  O   UNL     1      28.447  46.123  56.611  1.00  0.00    -0.346 OA
HETATM   30  O   UNL     1      30.942  44.726  57.091  1.00  0.00    -0.346 OA
HETATM   31  C   UNL     1      30.562  43.484  55.130  1.00  0.00     0.040 A 
HETATM   32  C   UNL     1      30.600  45.966  57.723  1.00  0.00     0.202 C 
HETATM   33  C   UNL     1      29.094  46.088  57.888  1.00  0.00     0.202 C 
HETATM   34  C   UNL     1      29.804  43.187  53.992  1.00  0.00     0.018 A 
ENDBRANCH  23  25
ENDBRANCH  22  23
ENDBRANCH  21  22
ENDBRANCH   2  21
TORSDOF 7
ENDMDL
MODEL 3
REMARK VINA RESULT:     -10.0      1.341      1.882
REMARK  7 active torsions:
REMARK  status: ('A' for Active; 'I' for Inactive)
REMARK    1  A    between atoms: C_4  and  C_5 
REMARK    2  A    between atoms: C_9  and  C_10 
REMARK       I    between atoms: C_10  and  N_11 
REMARK    3  A    between atoms: N_11  and  N_12 
REMARK       I    between atoms: N_12  and  C_13 
REMARK    4  A    between atoms: C_13  and  C_14 
REMARK    5  A    between atoms: C_14  and  C_15 
REMARK    6  A    between atoms: C_15  and  C_16 
REMARK    7  A    between atoms: C_16  and  C_17 
ROOT
HETATM    1  N   UNL     1      24.283  47.172  50.720  1.00  0.00    -0.267 N 
HETATM    2  C   UNL     1      24.443  48.040  49.660  1.00  0.00     0.236 C 
HETATM    3  O   UNL     1      25.493  48.641  49.446  1.00  0.00    -0.272 OA
HETATM    4  H   UNL     1      23.376  46.806  51.010  1.00  0.00     0.190 HD
ENDROOT
BRANCH   1   5
HETATM    5  N   UNL     1      25.329  47.067  51.642  1.00  0.00    -0.262 N 
HETATM    6  C   UNL     1      25.410  45.947  52.443  1.00  0.00     0.288 C 
HETATM    7  O   UNL     1      24.615  45.015  52.337  1.00  0.00    -0.264 OA
HETATM    8  H   UNL     1      25.905  47.895  51.770  1.00  0.00     0.190 HD
BRANCH   6   9
HETATM    9  C   UNL     1      26.484  45.947  53.397  1.00  0.00     0.121 A 
HETATM   10  N   UNL     1      26.764  47.040  54.166  1.00  0.00    -0.272 N 
HETATM   11  N   UNL     1      27.774  46.863  55.027  1.00  0.00    -0.174 NA
HETATM   12  H   UNL     1      26.282  47.935  54.152  1.00  0.00     0.189 HD
HETATM   13  C   UNL     1      28.195  45.606  54.809  1.00  0.00     0.089 A 
HETATM   14  C   UNL     1      27.409  44.999  53.787  1.00  0.00     0.071 A 
BRANCH  13  15
HETATM   15  C   UNL     1      29.299  45.017  55.572  1.00  0.00    -0.006 A 
HETATM   16  C   UNL     1      29.733  45.612  56.766  1.00  0.00     0.014 A 
HETATM   17  C   UNL     1      30.772  45.049  57.512  1.00  0.00     0.001 A 
HETATM   18  C   UNL     1      31.396  43.885  57.070  1.00  0.00     0.000 A 
HETATM   19  C   UNL     1      30.983  43.285  55.882  1.00  0.00     0.001 A 
HETATM   20  C   UNL     1      29.940  43.846  55.137  1.00  0.00     0.014 A 
ENDBRANCH  13  15
ENDBRANCH   6   9
ENDBRANCH   1   5
BRANCH   2  21
HETATM   21  C   UNL     1      23.212  48.149  48.792  1.00  0.00     0.112 C 
BRANCH  21  22
HETATM   22  C   UNL     1      23.143  49.502  48.091  1.00  0.00     0.093 C 
BRANCH  22  23
HETATM   23  C   UNL     1      22.556  50.567  48.997  1.00  0.00     0.160 C 
HETATM   24  O   UNL     1      23.251  51.196  49.791  1.00  0.00    -0.292 OA
BRANCH  23  25
HETATM   25  C   UNL     1      21.090  50.851  48.915  1.00  0.00     0.013 A 
HETATM   26  C   UNL     1      20.471  50.799  47.658  1.00  0.00     0.054 A 
HETATM   27  C   UNL     1      19.104  51.045  47.540  1.00  0.00     0.103 A 
HETATM   28  C   UNL     1      18.349  51.374  48.669  1.00  0.00     0.102 A 
HETATM   29  O   UNL     1      18.568  50.957  46.280  1.00  0.00    -0.346 OA
HETATM   30  O   UNL     1      17.009  51.658  48.623  1.00  0.00    -0.346 OA
HETATM   31  C   UNL     1      18.954  51.415  49.923  1.00  0.00     0.040 A 
HETATM   32  C   UNL     1      16.576  51.919  47.282  1.00  0.00     0.202 C 
HETATM   33  C   UNL     1      17.139  50.882  46.323  1.00  0.00     0.202 C 
HETATM   34  C   UNL     1      20.323  51.157  50.048  1.00  0.00     0.018 A 
ENDBRANCH  23  25
ENDBRANCH  22  23
ENDBRANCH  21  22
ENDBRANCH   2  21
TORSDOF 7
ENDMDL
MODEL 4
REMARK VINA RESULT:     -10.0      2.947     12.014
REMARK  7 active torsions:
REMARK  status: ('A' for Active; 'I' for Inactive)
REMARK    1  A    between atoms: C_4  and  C_5 
REMARK    2  A    between atoms: C_9  and  C_10 
REMARK       I    between atoms: C_10  and  N_11 
REMARK    3  A    between atoms: N_11  and  N_12 
REMARK       I    between atoms: N_12  and  C_13 
REMARK    4  A    between atoms: C_13  and  C_14 
REMARK    5  A    between atoms: C_14  and  C_15 
REMARK    6  A    between atoms: C_15  and  C_16 
REMARK    7  A    between atoms: C_16  and  C_17 
ROOT
HETATM    1  N   UNL     1      25.498  45.943  50.639  1.00  0.00    -0.267 N 
HETATM    2  C   UNL     1      25.896  44.811  49.959  1.00  0.00     0.236 C 
HETATM    3  O   UNL     1      25.277  44.360  48.998  1.00  0.00    -0.272 OA
HETATM    4  H   UNL     1      25.897  46.226  51.535  1.00  0.00     0.190 HD
ENDROOT
BRANCH   1   5
HETATM    5  N   UNL     1      24.280  46.527  50.279  1.00  0.00    -0.262 N 
HETATM    6  C   UNL     1      24.265  47.830  49.827  1.00  0.00     0.288 C 
HETATM    7  O   UNL     1      25.301  48.479  49.687  1.00  0.00    -0.264 OA
HETATM    8  H   UNL     1      23.441  45.998  50.500  1.00  0.00     0.190 HD
BRANCH   6   9
HETATM    9  C   UNL     1      22.967  48.366  49.531  1.00  0.00     0.121 A 
HETATM   10  N   UNL     1      21.964  47.588  49.026  1.00  0.00    -0.272 N 
HETATM   11  N   UNL     1      20.807  48.235  48.836  1.00  0.00    -0.174 NA
HETATM   12  H   UNL     1      22.014  46.598  48.804  1.00  0.00     0.189 HD
HETATM   13  C   UNL     1      21.056  49.500  49.214  1.00  0.00     0.089 A 
HETATM   14  C   UNL     1      22.405  49.622  49.654  1.00  0.00     0.071 A 
BRANCH  13  15
HETATM   15  C   UNL     1      20.022  50.539  49.166  1.00  0.00    -0.006 A 
HETATM   16  C   UNL     1      18.903  50.464  50.009  1.00  0.00     0.014 A 
HETATM   17  C   UNL     1      17.920  51.457  49.985  1.00  0.00     0.001 A 
HETATM   18  C   UNL     1      18.041  52.537  49.114  1.00  0.00     0.000 A 
HETATM   19  C   UNL     1      19.142  52.622  48.264  1.00  0.00     0.001 A 
HETATM   20  C   UNL     1      20.128  51.630  48.290  1.00  0.00     0.014 A 
ENDBRANCH  13  15
ENDBRANCH   6   9
ENDBRANCH   1   5
BRANCH   2  21
HETATM   21  C   UNL     1      27.171  44.210  50.503  1.00  0.00     0.112 C 
BRANCH  21  22
HETATM   22  C   UNL     1      27.059  43.926  51.998  1.00  0.00     0.093 C 
BRANCH  22  23
HETATM   23  C   UNL     1      28.362  43.395  52.562  1.00  0.00     0.160 C 
HETATM   24  O   UNL     1      28.983  42.488  52.013  1.00  0.00    -0.292 OA
BRANCH  23  25
HETATM   25  C   UNL     1      28.897  43.997  53.822  1.00  0.00     0.013 A 
HETATM   26  C   UNL     1      29.853  43.274  54.551  1.00  0.00     0.054 A 
HETATM   27  C   UNL     1      30.386  43.804  55.725  1.00  0.00     0.103 A 
HETATM   28  C   UNL     1      29.950  45.044  56.197  1.00  0.00     0.102 A 
HETATM   29  O   UNL     1      31.329  43.045  56.371  1.00  0.00    -0.346 OA
HETATM   30  O   UNL     1      30.408  45.612  57.358  1.00  0.00    -0.346 OA
HETATM   31  C   UNL     1      29.011  45.774  55.473  1.00  0.00     0.040 A 
HETATM   32  C   UNL     1      31.087  44.651  58.176  1.00  0.00     0.202 C 
HETATM   33  C   UNL     1      32.045  43.816  57.342  1.00  0.00     0.202 C 
HETATM   34  C   UNL     1      28.482  45.252  54.288  1.00  0.00     0.018 A 
ENDBRANCH  23  25
ENDBRANCH  22  23
ENDBRANCH  21  22
ENDBRANCH   2  21
TORSDOF 7
ENDMDL
MODEL 5
REMARK VINA RESULT:      -9.9      1.906      2.307
REMARK  7 active torsions:
REMARK  status: ('A' for Active; 'I' for Inactive)
REMARK    1  A    between atoms: C_4  and  C_5 
REMARK    2  A    between atoms: C_9  and  C_10 
REMARK       I    between atoms: C_10  and  N_11 
REMARK    3  A    between atoms: N_11  and  N_12 
REMARK       I    between atoms: N_12  and  C_13 
REMARK    4  A    between atoms: C_13  and  C_14 
REMARK    5  A    between atoms: C_14  and  C_15 
REMARK    6  A    between atoms: C_15  and  C_16 
REMARK    7  A    between atoms: C_16  and  C_17 
ROOT
HETATM    1  N   UNL     1      25.148  47.372  50.620  1.00  0.00    -0.267 N 
HETATM    2  C   UNL     1      25.679  48.032  49.532  1.00  0.00     0.236 C 
HETATM    3  O   UNL     1      26.850  47.902  49.181  1.00  0.00    -0.272 OA
HETATM    4  H   UNL     1      24.240  47.601  51.024  1.00  0.00     0.190 HD
ENDROOT
BRANCH   1   5
HETATM    5  N   UNL     1      26.016  46.613  51.411  1.00  0.00    -0.262 N 
HETATM    6  C   UNL     1      26.119  46.893  52.757  1.00  0.00     0.288 C 
HETATM    7  O   UNL     1      25.433  47.763  53.293  1.00  0.00    -0.264 OA
HETATM    8  H   UNL     1      26.636  45.974  50.919  1.00  0.00     0.190 HD
BRANCH   6   9
HETATM    9  C   UNL     1      27.072  46.101  53.482  1.00  0.00     0.121 A 
HETATM   10  N   UNL     1      27.422  44.845  53.075  1.00  0.00    -0.272 N 
HETATM   11  N   UNL     1      28.347  44.255  53.844  1.00  0.00    -0.174 NA
HETATM   12  H   UNL     1      27.067  44.345  52.265  1.00  0.00     0.189 HD
HETATM   13  C   UNL     1      28.610  45.148  54.811  1.00  0.00     0.089 A 
HETATM   14  C   UNL     1      27.824  46.321  54.619  1.00  0.00     0.071 A 
BRANCH  13  15
HETATM   15  C   UNL     1      29.594  44.881  55.864  1.00  0.00    -0.006 A 
HETATM   16  C   UNL     1      29.655  45.698  57.003  1.00  0.00     0.014 A 
HETATM   17  C   UNL     1      30.577  45.441  58.021  1.00  0.00     0.001 A 
HETATM   18  C   UNL     1      31.455  44.366  57.911  1.00  0.00     0.000 A 
HETATM   19  C   UNL     1      31.414  43.549  56.784  1.00  0.00     0.001 A 
HETATM   20  C   UNL     1      30.489  43.803  55.765  1.00  0.00     0.014 A 
ENDBRANCH  13  15
ENDBRANCH   6   9
ENDBRANCH   1   5
BRANCH   2  21
HETATM   21  C   UNL     1      24.672  48.902  48.816  1.00  0.00     0.112 C 
BRANCH  21  22
HETATM   22  C   UNL     1      23.288  48.785  49.447  1.00  0.00     0.093 C 
BRANCH  22  23
HETATM   23  C   UNL     1      22.581  50.126  49.486  1.00  0.00     0.160 C 
HETATM   24  O   UNL     1      23.178  51.164  49.758  1.00  0.00    -0.292 OA
BRANCH  23  25
HETATM   25  C   UNL     1      21.117  50.174  49.187  1.00  0.00     0.013 A 
HETATM   26  C   UNL     1      20.422  48.962  49.064  1.00  0.00     0.054 A 
HETATM   27  C   UNL     1      19.053  48.963  48.798  1.00  0.00     0.103 A 
HETATM   28  C   UNL     1      18.373  50.171  48.623  1.00  0.00     0.102 A 
HETATM   29  O   UNL     1      18.441  47.739  48.712  1.00  0.00    -0.346 OA
HETATM   30  O   UNL     1      17.036  50.247  48.329  1.00  0.00    -0.346 OA
HETATM   31  C   UNL     1      19.053  51.379  48.755  1.00  0.00     0.040 A 
HETATM   32  C   UNL     1      16.526  48.983  47.885  1.00  0.00     0.202 C 
HETATM   33  C   UNL     1      17.016  47.860  48.784  1.00  0.00     0.202 C 
HETATM   34  C   UNL     1      20.424  51.384  49.034  1.00  0.00     0.018 A 
ENDBRANCH  23  25
ENDBRANCH  22  23
ENDBRANCH  21  22
ENDBRANCH   2  21
TORSDOF 7
ENDMDL
MODEL 6
REMARK VINA RESULT:      -9.2      1.947      2.765
REMARK  7 active torsions:
REMARK  status: ('A' for Active; 'I' for Inactive)
REMARK    1  A    between atoms: C_4  and  C_5 
REMARK    2  A    between atoms: C_9  and  C_10 
REMARK       I    between atoms: C_10  and  N_11 
REMARK    3  A    between atoms: N_11  and  N_12 
REMARK       I    between atoms: N_12  and  C_13 
REMARK    4  A    between atoms: C_13  and  C_14 
REMARK    5  A    between atoms: C_14  and  C_15 
REMARK    6  A    between atoms: C_15  and  C_16 
REMARK    7  A    between atoms: C_16  and  C_17 
ROOT
HETATM    1  N   UNL     1      23.390  45.095  50.055  1.00  0.00    -0.267 N 
HETATM    2  C   UNL     1      22.457  44.147  49.695  1.00  0.00     0.236 C 
HETATM    3  O   UNL     1      22.337  43.075  50.282  1.00  0.00    -0.272 OA
HETATM    4  H   UNL     1      23.618  45.904  49.476  1.00  0.00     0.190 HD
ENDROOT
BRANCH   1   5
HETATM    5  N   UNL     1      24.304  44.764  51.060  1.00  0.00    -0.262 N 
HETATM    6  C   UNL     1      25.609  44.479  50.718  1.00  0.00     0.288 C 
HETATM    7  O   UNL     1      26.005  44.554  49.556  1.00  0.00    -0.264 OA
HETATM    8  H   UNL     1      23.920  44.615  51.990  1.00  0.00     0.190 HD
BRANCH   6   9
HETATM    9  C   UNL     1      26.464  44.097  51.806  1.00  0.00     0.121 A 
HETATM   10  N   UNL     1      26.525  42.808  52.256  1.00  0.00    -0.272 N 
HETATM   11  N   UNL     1      27.396  42.615  53.255  1.00  0.00    -0.174 NA
HETATM   12  H   UNL     1      25.999  42.014  51.903  1.00  0.00     0.189 HD
HETATM   13  C   UNL     1      27.922  43.828  53.491  1.00  0.00     0.089 A 
HETATM   14  C   UNL     1      27.358  44.787  52.601  1.00  0.00     0.071 A 
BRANCH  13  15
HETATM   15  C   UNL     1      28.942  44.040  54.523  1.00  0.00    -0.006 A 
HETATM   16  C   UNL     1      29.888  43.042  54.802  1.00  0.00     0.014 A 
HETATM   17  C   UNL     1      30.875  43.241  55.770  1.00  0.00     0.001 A 
HETATM   18  C   UNL     1      30.927  44.440  56.477  1.00  0.00     0.000 A 
HETATM   19  C   UNL     1      29.990  45.438  56.219  1.00  0.00     0.001 A 
HETATM   20  C   UNL     1      29.003  45.241  55.247  1.00  0.00     0.014 A 
ENDBRANCH  13  15
ENDBRANCH   6   9
ENDBRANCH   1   5
BRANCH   2  21
HETATM   21  C   UNL     1      21.595  44.576  48.531  1.00  0.00     0.112 C 
BRANCH  21  22
HETATM   22  C   UNL     1      20.932  45.924  48.795  1.00  0.00     0.093 C 
BRANCH  22  23
HETATM   23  C   UNL     1      21.618  47.040  48.032  1.00  0.00     0.160 C 
HETATM   24  O   UNL     1      22.568  46.822  47.284  1.00  0.00    -0.292 OA
BRANCH  23  25
HETATM   25  C   UNL     1      21.121  48.439  48.204  1.00  0.00     0.013 A 
HETATM   26  C   UNL     1      19.813  48.628  48.675  1.00  0.00     0.054 A 
HETATM   27  C   UNL     1      19.315  49.917  48.860  1.00  0.00     0.103 A 
HETATM   28  C   UNL     1      20.105  51.027  48.551  1.00  0.00     0.102 A 
HETATM   29  O   UNL     1      18.034  50.019  49.341  1.00  0.00    -0.346 OA
HETATM   30  O   UNL     1      19.670  52.320  48.680  1.00  0.00    -0.346 OA
HETATM   31  C   UNL     1      21.409  50.848  48.095  1.00  0.00     0.040 A 
HETATM   32  C   UNL     1      18.245  52.381  48.819  1.00  0.00     0.202 C 
HETATM   33  C   UNL     1      17.757  51.341  49.814  1.00  0.00     0.202 C 
HETATM   34  C   UNL     1      21.918  49.557  47.919  1.00  0.00     0.018 A 
ENDBRANCH  23  25
ENDBRANCH  22  23
ENDBRANCH  21  22
ENDBRANCH   2  21
TORSDOF 7
ENDMDL
MODEL 7
REMARK VINA RESULT:      -9.1      2.782     11.540
REMARK  7 active torsions:
REMARK  status: ('A' for Active; 'I' for Inactive)
REMARK    1  A    between atoms: C_4  and  C_5 
REMARK    2  A    between atoms: C_9  and  C_10 
REMARK       I    between atoms: C_10  and  N_11 
REMARK    3  A    between atoms: N_11  and  N_12 
REMARK       I    between atoms: N_12  and  C_13 
REMARK    4  A    between atoms: C_13  and  C_14 
REMARK    5  A    between atoms: C_14  and  C_15 
REMARK    6  A    between atoms: C_15  and  C_16 
REMARK    7  A    between atoms: C_16  and  C_17 
ROOT
HETATM    1  N   UNL     1      24.897  46.513  49.698  1.00  0.00    -0.267 N 
HETATM    2  C   UNL     1      25.995  46.616  50.524  1.00  0.00     0.236 C 
HETATM    3  O   UNL     1      26.192  47.588  51.251  1.00  0.00    -0.272 OA
HETATM    4  H   UNL     1      24.810  45.804  48.969  1.00  0.00     0.190 HD
ENDROOT
BRANCH   1   5
HETATM    5  N   UNL     1      24.038  47.614  49.611  1.00  0.00    -0.262 N 
HETATM    6  C   UNL     1      22.936  47.544  48.786  1.00  0.00     0.288 C 
HETATM    7  O   UNL     1      22.658  46.523  48.159  1.00  0.00    -0.264 OA
HETATM    8  H   UNL     1      24.351  48.469  50.063  1.00  0.00     0.190 HD
BRANCH   6   9
HETATM    9  C   UNL     1      22.140  48.737  48.717  1.00  0.00     0.121 A 
HETATM   10  N   UNL     1      22.691  49.955  48.431  1.00  0.00    -0.272 N 
HETATM   11  N   UNL     1      21.806  50.959  48.373  1.00  0.00    -0.174 NA
HETATM   12  H   UNL     1      23.671  50.154  48.253  1.00  0.00     0.189 HD
HETATM   13  C   UNL     1      20.621  50.389  48.648  1.00  0.00     0.089 A 
HETATM   14  C   UNL     1      20.792  48.992  48.873  1.00  0.00     0.071 A 
BRANCH  13  15
HETATM   15  C   UNL     1      19.377  51.165  48.672  1.00  0.00    -0.006 A 
HETATM   16  C   UNL     1      18.642  51.363  47.493  1.00  0.00     0.014 A 
HETATM   17  C   UNL     1      17.446  52.085  47.508  1.00  0.00     0.001 A 
HETATM   18  C   UNL     1      16.971  52.624  48.701  1.00  0.00     0.000 A 
HETATM   19  C   UNL     1      17.693  52.442  49.879  1.00  0.00     0.001 A 
HETATM   20  C   UNL     1      18.889  51.717  49.866  1.00  0.00     0.014 A 
ENDBRANCH  13  15
ENDBRANCH   6   9
ENDBRANCH   1   5
BRANCH   2  21
HETATM   21  C   UNL     1      26.904  45.411  50.457  1.00  0.00     0.112 C 
BRANCH  21  22
HETATM   22  C   UNL     1      26.178  44.142  50.892  1.00  0.00     0.093 C 
BRANCH  22  23
HETATM   23  C   UNL     1      25.941  44.123  52.390  1.00  0.00     0.160 C 
HETATM   24  O   UNL     1      24.811  44.050  52.865  1.00  0.00    -0.292 OA
BRANCH  23  25
HETATM   25  C   UNL     1      27.122  44.198  53.305  1.00  0.00     0.013 A 
HETATM   26  C   UNL     1      27.132  45.189  54.297  1.00  0.00     0.054 A 
HETATM   27  C   UNL     1      28.208  45.286  55.179  1.00  0.00     0.103 A 
HETATM   28  C   UNL     1      29.295  44.416  55.059  1.00  0.00     0.102 A 
HETATM   29  O   UNL     1      28.136  46.268  56.134  1.00  0.00    -0.346 OA
HETATM   30  O   UNL     1      30.398  44.474  55.870  1.00  0.00    -0.346 OA
HETATM   31  C   UNL     1      29.287  43.422  54.084  1.00  0.00     0.040 A 
HETATM   32  C   UNL     1      30.456  45.713  56.587  1.00  0.00     0.202 C 
HETATM   33  C   UNL     1      29.097  46.059  57.174  1.00  0.00     0.202 C 
HETATM   34  C   UNL     1      28.204  43.313  53.205  1.00  0.00     0.018 A 
ENDBRANCH  23  25
ENDBRANCH  22  23
ENDBRANCH  21  22
ENDBRANCH   2  21
TORSDOF 7
ENDMDL
MODEL 8
REMARK VINA RESULT:      -9.0      2.303      3.375
REMARK  7 active torsions:
REMARK  status: ('A' for Active; 'I' for Inactive)
REMARK    1  A    between atoms: C_4  and  C_5 
REMARK    2  A    between atoms: C_9  and  C_10 
REMARK       I    between atoms: C_10  and  N_11 
REMARK    3  A    between atoms: N_11  and  N_12 
REMARK       I    between atoms: N_12  and  C_13 
REMARK    4  A    between atoms: C_13  and  C_14 
REMARK    5  A    between atoms: C_14  and  C_15 
REMARK    6  A    between atoms: C_15  and  C_16 
REMARK    7  A    between atoms: C_16  and  C_17 
ROOT
HETATM    1  N   UNL     1      23.221  44.613  50.571  1.00  0.00    -0.267 N 
HETATM    2  C   UNL     1      23.500  43.858  49.451  1.00  0.00     0.236 C 
HETATM    3  O   UNL     1      24.527  43.193  49.336  1.00  0.00    -0.272 OA
HETATM    4  H   UNL     1      22.467  45.299  50.608  1.00  0.00     0.190 HD
ENDROOT
BRANCH   1   5
HETATM    5  N   UNL     1      24.205  44.703  51.560  1.00  0.00    -0.262 N 
HETATM    6  C   UNL     1      24.934  45.866  51.681  1.00  0.00     0.288 C 
HETATM    7  O   UNL     1      24.712  46.847  50.972  1.00  0.00    -0.264 OA
HETATM    8  H   UNL     1      24.427  43.844  52.058  1.00  0.00     0.190 HD
BRANCH   6   9
HETATM    9  C   UNL     1      25.959  45.852  52.687  1.00  0.00     0.121 A 
HETATM   10  N   UNL     1      26.029  46.812  53.657  1.00  0.00    -0.272 N 
HETATM   11  N   UNL     1      27.024  46.634  54.536  1.00  0.00    -0.174 NA
HETATM   12  H   UNL     1      25.409  47.608  53.772  1.00  0.00     0.189 HD
HETATM   13  C   UNL     1      27.651  45.521  54.123  1.00  0.00     0.089 A 
HETATM   14  C   UNL     1      27.012  45.002  52.960  1.00  0.00     0.071 A 
BRANCH  13  15
HETATM   15  C   UNL     1      28.809  44.976  54.839  1.00  0.00    -0.006 A 
HETATM   16  C   UNL     1      29.351  45.661  55.937  1.00  0.00     0.014 A 
HETATM   17  C   UNL     1      30.443  45.142  56.637  1.00  0.00     0.001 A 
HETATM   18  C   UNL     1      31.012  43.933  56.246  1.00  0.00     0.000 A 
HETATM   19  C   UNL     1      30.491  43.243  55.153  1.00  0.00     0.001 A 
HETATM   20  C   UNL     1      29.396  43.761  54.453  1.00  0.00     0.014 A 
ENDBRANCH  13  15
ENDBRANCH   6   9
ENDBRANCH   1   5
BRANCH   2  21
HETATM   21  C   UNL     1      22.410  43.920  48.407  1.00  0.00     0.112 C 
BRANCH  21  22
HETATM   22  C   UNL     1      22.732  44.946  47.326  1.00  0.00     0.093 C 
BRANCH  22  23
HETATM   23  C   UNL     1      21.565  45.884  47.085  1.00  0.00     0.160 C 
HETATM   24  O   UNL     1      20.691  45.630  46.259  1.00  0.00    -0.292 OA
BRANCH  23  25
HETATM   25  C   UNL     1      21.485  47.150  47.877  1.00  0.00     0.013 A 
HETATM   26  C   UNL     1      20.217  47.642  48.219  1.00  0.00     0.054 A 
HETATM   27  C   UNL     1      20.098  48.813  48.967  1.00  0.00     0.103 A 
HETATM   28  C   UNL     1      21.241  49.517  49.355  1.00  0.00     0.102 A 
HETATM   29  O   UNL     1      18.826  49.220  49.277  1.00  0.00    -0.346 OA
HETATM   30  O   UNL     1      21.199  50.689  50.064  1.00  0.00    -0.346 OA
HETATM   31  C   UNL     1      22.504  49.028  49.030  1.00  0.00     0.040 A 
HETATM   32  C   UNL     1      19.887  51.265  50.043  1.00  0.00     0.202 C 
HETATM   33  C   UNL     1      18.830  50.206  50.314  1.00  0.00     0.202 C 
HETATM   34  C   UNL     1      22.629  47.847  48.290  1.00  0.00     0.018 A 
ENDBRANCH  23  25
ENDBRANCH  22  23
ENDBRANCH  21  22
ENDBRANCH   2  21
TORSDOF 7
ENDMDL
MODEL 9
REMARK VINA RESULT:      -9.0      2.779     11.418
REMARK  7 active torsions:
REMARK  status: ('A' for Active; 'I' for Inactive)
REMARK    1  A    between atoms: C_4  and  C_5 
REMARK    2  A    between atoms: C_9  and  C_10 
REMARK       I    between atoms: C_10  and  N_11 
REMARK    3  A    between atoms: N_11  and  N_12 
REMARK       I    between atoms: N_12  and  C_13 
REMARK    4  A    between atoms: C_13  and  C_14 
REMARK    5  A    between atoms: C_14  and  C_15 
REMARK    6  A    between atoms: C_15  and  C_16 
REMARK    7  A    between atoms: C_16  and  C_17 
ROOT
HETATM    1  N   UNL     1      24.060  45.574  50.016  1.00  0.00    -0.267 N 
HETATM    2  C   UNL     1      23.493  44.340  50.256  1.00  0.00     0.236 C 
HETATM    3  O   UNL     1      22.336  44.068  49.945  1.00  0.00    -0.272 OA
HETATM    4  H   UNL     1      24.949  45.869  50.421  1.00  0.00     0.190 HD
ENDROOT
BRANCH   1   5
HETATM    5  N   UNL     1      23.239  46.581  49.498  1.00  0.00    -0.262 N 
HETATM    6  C   UNL     1      23.649  47.894  49.582  1.00  0.00     0.288 C 
HETATM    7  O   UNL     1      24.741  48.204  50.057  1.00  0.00    -0.264 OA
HETATM    8  H   UNL     1      22.307  46.299  49.204  1.00  0.00     0.190 HD
BRANCH   6   9
HETATM    9  C   UNL     1      22.722  48.865  49.073  1.00  0.00     0.121 A 
HETATM   10  N   UNL     1      22.989  49.598  47.951  1.00  0.00    -0.272 N 
HETATM   11  N   UNL     1      22.006  50.435  47.594  1.00  0.00    -0.174 NA
HETATM   12  H   UNL     1      23.828  49.555  47.380  1.00  0.00     0.189 HD
HETATM   13  C   UNL     1      21.054  50.265  48.526  1.00  0.00     0.089 A 
HETATM   14  C   UNL     1      21.470  49.287  49.476  1.00  0.00     0.071 A 
BRANCH  13  15
HETATM   15  C   UNL     1      19.790  51.006  48.484  1.00  0.00    -0.006 A 
HETATM   16  C   UNL     1      19.016  51.022  47.314  1.00  0.00     0.014 A 
HETATM   17  C   UNL     1      17.800  51.710  47.268  1.00  0.00     0.001 A 
HETATM   18  C   UNL     1      17.345  52.396  48.391  1.00  0.00     0.000 A 
HETATM   19  C   UNL     1      18.105  52.396  49.559  1.00  0.00     0.001 A 
HETATM   20  C   UNL     1      19.320  51.705  49.607  1.00  0.00     0.014 A 
ENDBRANCH  13  15
ENDBRANCH   6   9
ENDBRANCH   1   5
BRANCH   2  21
HETATM   21  C   UNL     1      24.445  43.368  50.911  1.00  0.00     0.112 C 
BRANCH  21  22
HETATM   22  C   UNL     1      25.888  43.857  50.827  1.00  0.00     0.093 C 
BRANCH  22  23
HETATM   23  C   UNL     1      26.740  43.270  51.935  1.00  0.00     0.160 C 
HETATM   24  O   UNL     1      27.072  42.088  51.938  1.00  0.00    -0.292 OA
BRANCH  23  25
HETATM   25  C   UNL     1      27.180  44.163  53.051  1.00  0.00     0.013 A 
HETATM   26  C   UNL     1      28.323  43.803  53.779  1.00  0.00     0.054 A 
HETATM   27  C   UNL     1      28.775  44.613  54.820  1.00  0.00     0.103 A 
HETATM   28  C   UNL     1      28.074  45.772  55.162  1.00  0.00     0.102 A 
HETATM   29  O   UNL     1      29.910  44.204  55.472  1.00  0.00    -0.346 OA
HETATM   30  O   UNL     1      28.442  46.599  56.192  1.00  0.00    -0.346 OA
HETATM   31  C   UNL     1      26.944  46.143  54.436  1.00  0.00     0.040 A 
HETATM   32  C   UNL     1      29.382  45.960  57.064  1.00  0.00     0.202 C 
HETATM   33  C   UNL     1      30.468  45.258  56.264  1.00  0.00     0.202 C 
HETATM   34  C   UNL     1      26.495  45.340  53.383  1.00  0.00     0.018 A 
ENDBRANCH  23  25
ENDBRANCH  22  23
ENDBRANCH  21  22
ENDBRANCH   2  21
TORSDOF 7
ENDMDL
MODEL 10
REMARK VINA RESULT:      -8.8      3.110     10.774
REMARK  7 active torsions:
REMARK  status: ('A' for Active; 'I' for Inactive)
REMARK    1  A    between atoms: C_4  and  C_5 
REMARK    2  A    between atoms: C_9  and  C_10 
REMARK       I    between atoms: C_10  and  N_11 
REMARK    3  A    between atoms: N_11  and  N_12 
REMARK       I    between atoms: N_12  and  C_13 
REMARK    4  A    between atoms: C_13  and  C_14 
REMARK    5  A    between atoms: C_14  and  C_15 
REMARK    6  A    between atoms: C_15  and  C_16 
REMARK    7  A    between atoms: C_16  and  C_17 
ROOT
HETATM    1  N   UNL     1      23.204  45.949  49.042  1.00  0.00    -0.267 N 
HETATM    2  C   UNL     1      22.820  44.625  49.042  1.00  0.00     0.236 C 
HETATM    3  O   UNL     1      21.645  44.274  49.111  1.00  0.00    -0.272 OA
HETATM    4  H   UNL     1      24.172  46.250  49.162  1.00  0.00     0.190 HD
ENDROOT
BRANCH   1   5
HETATM    5  N   UNL     1      22.215  46.917  49.241  1.00  0.00    -0.262 N 
HETATM    6  C   UNL     1      22.487  48.232  48.931  1.00  0.00     0.288 C 
HETATM    7  O   UNL     1      23.562  48.574  48.439  1.00  0.00    -0.264 OA
HETATM    8  H   UNL     1      21.380  46.617  49.739  1.00  0.00     0.190 HD
BRANCH   6   9
HETATM    9  C   UNL     1      21.434  49.166  49.216  1.00  0.00     0.121 A 
HETATM   10  N   UNL     1      21.644  50.277  49.983  1.00  0.00    -0.272 N 
HETATM   11  N   UNL     1      20.567  51.060  50.125  1.00  0.00    -0.174 NA
HETATM   12  H   UNL     1      22.515  50.557  50.424  1.00  0.00     0.189 HD
HETATM   13  C   UNL     1      19.595  50.434  49.440  1.00  0.00     0.089 A 
HETATM   14  C   UNL     1      20.102  49.237  48.857  1.00  0.00     0.071 A 
BRANCH  13  15
HETATM   15  C   UNL     1      18.240  50.986  49.342  1.00  0.00    -0.006 A 
HETATM   16  C   UNL     1      17.933  52.221  49.931  1.00  0.00     0.014 A 
HETATM   17  C   UNL     1      16.650  52.765  49.828  1.00  0.00     0.001 A 
HETATM   18  C   UNL     1      15.655  52.077  49.139  1.00  0.00     0.000 A 
HETATM   19  C   UNL     1      15.941  50.845  48.554  1.00  0.00     0.001 A 
HETATM   20  C   UNL     1      17.226  50.302  48.654  1.00  0.00     0.014 A 
ENDBRANCH  13  15
ENDBRANCH   6   9
ENDBRANCH   1   5
BRANCH   2  21
HETATM   21  C   UNL     1      23.984  43.670  48.925  1.00  0.00     0.112 C 
BRANCH  21  22
HETATM   22  C   UNL     1      24.585  43.353  50.291  1.00  0.00     0.093 C 
BRANCH  22  23
HETATM   23  C   UNL     1      26.030  43.800  50.379  1.00  0.00     0.160 C 
HETATM   24  O   UNL     1      26.821  43.620  49.456  1.00  0.00    -0.292 OA
BRANCH  23  25
HETATM   25  C   UNL     1      26.499  44.474  51.629  1.00  0.00     0.013 A 
HETATM   26  C   UNL     1      25.949  45.722  51.958  1.00  0.00     0.054 A 
HETATM   27  C   UNL     1      26.350  46.379  53.121  1.00  0.00     0.103 A 
HETATM   28  C   UNL     1      27.321  45.811  53.949  1.00  0.00     0.102 A 
HETATM   29  O   UNL     1      25.753  47.585  53.384  1.00  0.00    -0.346 OA
HETATM   30  O   UNL     1      27.784  46.413  55.090  1.00  0.00    -0.346 OA
HETATM   31  C   UNL     1      27.863  44.566  53.636  1.00  0.00     0.040 A 
HETATM   32  C   UNL     1      27.427  47.801  55.130  1.00  0.00     0.202 C 
HETATM   33  C   UNL     1      25.971  47.993  54.739  1.00  0.00     0.202 C 
HETATM   34  C   UNL     1      27.456  43.898  52.477  1.00  0.00     0.018 A 
ENDBRANCH  23  25
ENDBRANCH  22  23
ENDBRANCH  21  22
ENDBRANCH   2  21
TORSDOF 7
ENDMDL
