MODEL 1
REMARK VINA RESULT:     -10.4      0.000      0.000
REMARK  5 active torsions:
REMARK  status: ('A' for Active; 'I' for Inactive)
REMARK    1  A    between atoms: C_7  and  C_8 
REMARK    2  A    between atoms: C_16  and  C_17 
REMARK    3  A    between atoms: C_19  and  O_20 
REMARK    4  A    between atoms: C_24  and  C_25 
REMARK       I    between atoms: C_25  and  N_26 
REMARK    5  A    between atoms: N_26  and  C_27 
ROOT
HETATM    1  C   UNL     1      23.247  43.825  47.833  1.00  0.00     0.070 C 
HETATM    2  C   UNL     1      23.214  45.239  48.356  1.00  0.00     0.037 C 
HETATM    3  N   UNL     1      22.352  46.109  47.686  1.00  0.00    -0.192 N 
HETATM    4  C   UNL     1      21.986  47.299  48.209  1.00  0.00     0.726 A 
HETATM    5  N   UNL     1      22.686  47.801  49.263  1.00  0.00    -0.083 N 
HETATM    6  N   UNL     1      22.130  48.928  49.746  1.00  0.00    -0.135 NA
HETATM    7  C   UNL     1      21.080  49.073  48.912  1.00  0.00     0.200 A 
HETATM    8  N   UNL     1      20.994  48.101  47.932  1.00  0.00    -0.041 NA
HETATM    9  C   UNL     1      23.857  47.147  49.847  1.00  0.00     0.202 C 
HETATM   10  C   UNL     1      23.941  45.685  49.416  1.00  0.00     0.062 C 
HETATM   11  H   UNL     1      21.724  45.689  47.003  1.00  0.00     0.184 HD
ENDROOT
BRANCH  10  12
HETATM   12  C   UNL     1      24.642  44.727  50.328  1.00  0.00     0.256 C 
HETATM   13  N   UNL     1      25.885  44.321  49.895  1.00  0.00    -0.323 N 
HETATM   14  H   UNL     1      26.189  44.591  48.969  1.00  0.00     0.169 HD
HETATM   15  O   UNL     1      24.115  44.426  51.393  1.00  0.00    -0.267 OA
BRANCH  13  16
HETATM   16  C   UNL     1      26.831  43.554  50.613  1.00  0.00     0.035 A 
HETATM   17  C   UNL     1      27.049  42.189  50.413  1.00  0.00     0.029 A 
HETATM   18  C   UNL     1      27.991  41.501  51.185  1.00  0.00     0.002 A 
HETATM   19  C   UNL     1      28.716  42.168  52.169  1.00  0.00     0.000 A 
HETATM   20  C   UNL     1      28.507  43.528  52.376  1.00  0.00     0.002 A 
HETATM   21  C   UNL     1      27.575  44.219  51.597  1.00  0.00     0.029 A 
ENDBRANCH  13  16
ENDBRANCH  10  12
BRANCH   9  22
HETATM   22  C   UNL     1      25.102  47.965  49.495  1.00  0.00    -0.025 A 
HETATM   23  C   UNL     1      24.998  49.031  48.584  1.00  0.00     0.046 A 
HETATM   24  C   UNL     1      26.122  49.787  48.263  1.00  0.00     0.066 A 
HETATM   25  C   UNL     1      27.358  49.509  48.832  1.00  0.00     0.036 A 
HETATM   26  C   UNL     1      27.483  48.442  49.718  1.00  0.00     0.003 A 
HETATM   27  C   UNL     1      26.367  47.669  50.041  1.00  0.00     0.010 A 
BRANCH  24  28
HETATM   28  O   UNL     1      26.053  50.822  47.379  1.00  0.00    -0.361 OA
HETATM   29  H   UNL     1      26.749  51.466  47.593  1.00  0.00     0.217 HD
ENDBRANCH  24  28
ENDBRANCH   9  22
BRANCH   7  30
HETATM   30  C   UNL     1      20.136  50.178  49.022  1.00  0.00     0.036 A 
HETATM   31  C   UNL     1      19.038  50.163  49.897  1.00  0.00     0.048 A 
HETATM   32 CL   UNL     1      18.705  48.857  50.983  1.00  0.00    -0.083 Cl
HETATM   33  C   UNL     1      18.173  51.265  49.960  1.00  0.00     0.025 A 
HETATM   34  C   UNL     1      18.393  52.387  49.161  1.00  0.00     0.002 A 
HETATM   35  C   UNL     1      19.482  52.417  48.296  1.00  0.00     0.001 A 
HETATM   36  C   UNL     1      20.347  51.322  48.229  1.00  0.00     0.017 A 
ENDBRANCH   7  30
TORSDOF 5
ENDMDL
MODEL 2
REMARK VINA RESULT:     -10.0      2.873      8.561
REMARK  5 active torsions:
REMARK  status: ('A' for Active; 'I' for Inactive)
REMARK    1  A    between atoms: C_7  and  C_8 
REMARK    2  A    between atoms: C_16  and  C_17 
REMARK    3  A    between atoms: C_19  and  O_20 
REMARK    4  A    between atoms: C_24  and  C_25 
REMARK       I    between atoms: C_25  and  N_26 
REMARK    5  A    between atoms: N_26  and  C_27 
ROOT
HETATM    1  C   UNL     1      24.594  50.249  47.781  1.00  0.00     0.070 C 
HETATM    2  C   UNL     1      24.535  49.037  48.677  1.00  0.00     0.037 C 
HETATM    3  N   UNL     1      25.752  48.644  49.239  1.00  0.00    -0.192 N 
HETATM    4  C   UNL     1      25.816  47.787  50.280  1.00  0.00     0.726 A 
HETATM    5  N   UNL     1      24.712  47.060  50.608  1.00  0.00    -0.083 N 
HETATM    6  N   UNL     1      24.895  46.346  51.734  1.00  0.00    -0.135 NA
HETATM    7  C   UNL     1      26.168  46.674  52.041  1.00  0.00     0.200 A 
HETATM    8  N   UNL     1      26.768  47.530  51.136  1.00  0.00    -0.041 NA
HETATM    9  C   UNL     1      23.452  47.115  49.866  1.00  0.00     0.202 C 
HETATM   10  C   UNL     1      23.399  48.349  48.968  1.00  0.00     0.062 C 
HETATM   11  H   UNL     1      26.537  49.279  49.111  1.00  0.00     0.184 HD
ENDROOT
BRANCH  10  12
HETATM   12  C   UNL     1      22.051  48.905  48.627  1.00  0.00     0.256 C 
HETATM   13  N   UNL     1      21.505  49.728  49.588  1.00  0.00    -0.323 N 
HETATM   14  H   UNL     1      21.975  49.811  50.479  1.00  0.00     0.169 HD
HETATM   15  O   UNL     1      21.564  48.654  47.530  1.00  0.00    -0.267 OA
BRANCH  13  16
HETATM   16  C   UNL     1      20.331  50.508  49.477  1.00  0.00     0.035 A 
HETATM   17  C   UNL     1      19.147  50.247  50.169  1.00  0.00     0.029 A 
HETATM   18  C   UNL     1      18.023  51.060  49.983  1.00  0.00     0.002 A 
HETATM   19  C   UNL     1      18.070  52.132  49.097  1.00  0.00     0.000 A 
HETATM   20  C   UNL     1      19.246  52.402  48.402  1.00  0.00     0.002 A 
HETATM   21  C   UNL     1      20.373  51.598  48.597  1.00  0.00     0.029 A 
ENDBRANCH  13  16
ENDBRANCH  10  12
BRANCH   9  22
HETATM   22  C   UNL     1      23.270  45.796  49.111  1.00  0.00    -0.025 A 
HETATM   23  C   UNL     1      21.993  45.431  48.648  1.00  0.00     0.046 A 
HETATM   24  C   UNL     1      21.817  44.238  47.954  1.00  0.00     0.066 A 
HETATM   25  C   UNL     1      22.890  43.391  47.703  1.00  0.00     0.036 A 
HETATM   26  C   UNL     1      24.156  43.727  48.174  1.00  0.00     0.003 A 
HETATM   27  C   UNL     1      24.345  44.915  48.881  1.00  0.00     0.010 A 
BRANCH  24  28
HETATM   28  O   UNL     1      20.591  43.855  47.499  1.00  0.00    -0.361 OA
HETATM   29  H   UNL     1      20.252  44.538  46.896  1.00  0.00     0.217 HD
ENDBRANCH  24  28
ENDBRANCH   9  22
BRANCH   7  30
HETATM   30  C   UNL     1      26.855  46.143  53.212  1.00  0.00     0.036 A 
HETATM   31  C   UNL     1      27.292  44.813  53.306  1.00  0.00     0.048 A 
HETATM   32 CL   UNL     1      27.115  43.661  52.027  1.00  0.00    -0.083 Cl
HETATM   33  C   UNL     1      27.956  44.370  54.459  1.00  0.00     0.025 A 
HETATM   34  C   UNL     1      28.192  45.242  55.522  1.00  0.00     0.002 A 
HETATM   35  C   UNL     1      27.771  46.566  55.437  1.00  0.00     0.001 A 
HETATM   36  C   UNL     1      27.109  47.012  54.290  1.00  0.00     0.017 A 
ENDBRANCH   7  30
TORSDOF 5
ENDMDL
MODEL 3
REMARK VINA RESULT:     -10.0      5.202      8.870
REMARK  5 active torsions:
REMARK  status: ('A' for Active; 'I' for Inactive)
REMARK    1  A    between atoms: C_7  and  C_8 
REMARK    2  A    between atoms: C_16  and  C_17 
REMARK    3  A    between atoms: C_19  and  O_20 
REMARK    4  A    between atoms: C_24  and  C_25 
REMARK       I    between atoms: C_25  and  N_26 
REMARK    5  A    between atoms: N_26  and  C_27 
ROOT
HETATM    1  C   UNL     1      26.144  38.956  49.884  1.00  0.00     0.070 C 
HETATM    2  C   UNL     1      26.509  40.351  50.323  1.00  0.00     0.037 C 
HETATM    3  N   UNL     1      26.706  40.519  51.695  1.00  0.00    -0.192 N 
HETATM    4  C   UNL     1      27.321  41.608  52.203  1.00  0.00     0.726 A 
HETATM    5  N   UNL     1      27.495  42.700  51.409  1.00  0.00    -0.083 N 
HETATM    6  N   UNL     1      28.226  43.653  52.015  1.00  0.00    -0.135 NA
HETATM    7  C   UNL     1      28.458  43.075  53.212  1.00  0.00     0.200 A 
HETATM    8  N   UNL     1      27.876  41.830  53.364  1.00  0.00    -0.041 NA
HETATM    9  C   UNL     1      27.009  42.789  50.031  1.00  0.00     0.202 C 
HETATM   10  C   UNL     1      26.667  41.407  49.480  1.00  0.00     0.062 C 
HETATM   11  H   UNL     1      26.724  39.670  52.258  1.00  0.00     0.184 HD
ENDROOT
BRANCH  10  12
HETATM   12  C   UNL     1      26.751  41.207  47.999  1.00  0.00     0.256 C 
HETATM   13  N   UNL     1      27.954  40.704  47.551  1.00  0.00    -0.323 N 
HETATM   14  H   UNL     1      28.717  40.614  48.208  1.00  0.00     0.169 HD
HETATM   15  O   UNL     1      25.762  41.434  47.310  1.00  0.00    -0.267 OA
BRANCH  13  16
HETATM   16  C   UNL     1      28.263  40.273  46.241  1.00  0.00     0.035 A 
HETATM   17  C   UNL     1      28.614  41.129  45.195  1.00  0.00     0.029 A 
HETATM   18  C   UNL     1      28.884  40.619  43.921  1.00  0.00     0.002 A 
HETATM   19  C   UNL     1      28.796  39.251  43.678  1.00  0.00     0.000 A 
HETATM   20  C   UNL     1      28.448  38.388  44.714  1.00  0.00     0.002 A 
HETATM   21  C   UNL     1      28.190  38.896  45.991  1.00  0.00     0.029 A 
ENDBRANCH  13  16
ENDBRANCH  10  12
BRANCH   9  22
HETATM   22  C   UNL     1      25.840  43.777  49.987  1.00  0.00    -0.025 A 
HETATM   23  C   UNL     1      24.552  43.345  50.350  1.00  0.00     0.046 A 
HETATM   24  C   UNL     1      23.483  44.237  50.321  1.00  0.00     0.066 A 
HETATM   25  C   UNL     1      23.665  45.560  49.939  1.00  0.00     0.036 A 
HETATM   26  C   UNL     1      24.930  45.997  49.554  1.00  0.00     0.003 A 
HETATM   27  C   UNL     1      26.009  45.111  49.568  1.00  0.00     0.010 A 
BRANCH  24  28
HETATM   28  O   UNL     1      22.223  43.846  50.662  1.00  0.00    -0.361 OA
HETATM   29  H   UNL     1      21.845  44.500  51.273  1.00  0.00     0.217 HD
ENDBRANCH  24  28
ENDBRANCH   9  22
BRANCH   7  30
HETATM   30  C   UNL     1      29.233  43.725  54.262  1.00  0.00     0.036 A 
HETATM   31  C   UNL     1      28.882  44.967  54.815  1.00  0.00     0.048 A 
HETATM   32 CL   UNL     1      27.464  45.846  54.354  1.00  0.00    -0.083 Cl
HETATM   33  C   UNL     1      29.667  45.532  55.830  1.00  0.00     0.025 A 
HETATM   34  C   UNL     1      30.799  44.871  56.304  1.00  0.00     0.002 A 
HETATM   35  C   UNL     1      31.152  43.636  55.770  1.00  0.00     0.001 A 
HETATM   36  C   UNL     1      30.374  43.067  54.758  1.00  0.00     0.017 A 
ENDBRANCH   7  30
TORSDOF 5
ENDMDL
MODEL 4
REMARK VINA RESULT:      -9.8      5.197      8.944
REMARK  5 active torsions:
REMARK  status: ('A' for Active; 'I' for Inactive)
REMARK    1  A    between atoms: C_7  and  C_8 
REMARK    2  A    between atoms: C_16  and  C_17 
REMARK    3  A    between atoms: C_19  and  O_20 
REMARK    4  A    between atoms: C_24  and  C_25 
REMARK       I    between atoms: C_25  and  N_26 
REMARK    5  A    between atoms: N_26  and  C_27 
ROOT
HETATM    1  C   UNL     1      26.503  38.965  49.935  1.00  0.00     0.070 C 
HETATM    2  C   UNL     1      26.806  40.370  50.391  1.00  0.00     0.037 C 
HETATM    3  N   UNL     1      26.942  40.540  51.770  1.00  0.00    -0.192 N 
HETATM    4  C   UNL     1      27.502  41.646  52.303  1.00  0.00     0.726 A 
HETATM    5  N   UNL     1      27.672  42.746  51.518  1.00  0.00    -0.083 N 
HETATM    6  N   UNL     1      28.349  43.720  52.155  1.00  0.00    -0.135 NA
HETATM    7  C   UNL     1      28.551  43.146  53.360  1.00  0.00     0.200 A 
HETATM    8  N   UNL     1      28.003  41.882  53.486  1.00  0.00    -0.041 NA
HETATM    9  C   UNL     1      27.240  42.823  50.123  1.00  0.00     0.202 C 
HETATM   10  C   UNL     1      26.963  41.433  49.556  1.00  0.00     0.062 C 
HETATM   11  H   UNL     1      26.964  39.691  52.331  1.00  0.00     0.184 HD
ENDROOT
BRANCH  10  12
HETATM   12  C   UNL     1      27.114  41.239  48.079  1.00  0.00     0.256 C 
HETATM   13  N   UNL     1      25.955  40.890  47.421  1.00  0.00    -0.323 N 
HETATM   14  H   UNL     1      25.131  40.680  47.968  1.00  0.00     0.169 HD
HETATM   15  O   UNL     1      28.202  41.457  47.559  1.00  0.00    -0.267 OA
BRANCH  13  16
HETATM   16  C   UNL     1      25.763  40.795  46.024  1.00  0.00     0.035 A 
HETATM   17  C   UNL     1      26.609  40.095  45.161  1.00  0.00     0.029 A 
HETATM   18  C   UNL     1      26.356  40.070  43.785  1.00  0.00     0.002 A 
HETATM   19  C   UNL     1      25.263  40.753  43.259  1.00  0.00     0.000 A 
HETATM   20  C   UNL     1      24.413  41.453  44.110  1.00  0.00     0.002 A 
HETATM   21  C   UNL     1      24.657  41.468  45.487  1.00  0.00     0.029 A 
ENDBRANCH  13  16
ENDBRANCH  10  12
BRANCH   9  22
HETATM   22  C   UNL     1      26.043  43.774  50.033  1.00  0.00    -0.025 A 
HETATM   23  C   UNL     1      24.764  43.317  50.399  1.00  0.00     0.046 A 
HETATM   24  C   UNL     1      23.670  44.175  50.328  1.00  0.00     0.066 A 
HETATM   25  C   UNL     1      23.818  45.489  49.903  1.00  0.00     0.036 A 
HETATM   26  C   UNL     1      25.073  45.950  49.515  1.00  0.00     0.003 A 
HETATM   27  C   UNL     1      26.177  45.098  49.570  1.00  0.00     0.010 A 
BRANCH  24  28
HETATM   28  O   UNL     1      22.418  43.759  50.670  1.00  0.00    -0.361 OA
HETATM   29  H   UNL     1      21.773  44.418  50.363  1.00  0.00     0.217 HD
ENDBRANCH  24  28
ENDBRANCH   9  22
BRANCH   7  30
HETATM   30  C   UNL     1      29.261  43.817  54.441  1.00  0.00     0.036 A 
HETATM   31  C   UNL     1      28.867  45.060  54.961  1.00  0.00     0.048 A 
HETATM   32 CL   UNL     1      27.464  45.916  54.417  1.00  0.00    -0.083 Cl
HETATM   33  C   UNL     1      29.591  45.647  56.008  1.00  0.00     0.025 A 
HETATM   34  C   UNL     1      30.706  45.004  56.548  1.00  0.00     0.002 A 
HETATM   35  C   UNL     1      31.101  43.769  56.047  1.00  0.00     0.001 A 
HETATM   36  C   UNL     1      30.383  43.179  55.003  1.00  0.00     0.017 A 
ENDBRANCH   7  30
TORSDOF 5
ENDMDL
MODEL 5
REMARK VINA RESULT:      -9.1      5.823      8.778
REMARK  5 active torsions:
REMARK  status: ('A' for Active; 'I' for Inactive)
REMARK    1  A    between atoms: C_7  and  C_8 
REMARK    2  A    between atoms: C_16  and  C_17 
REMARK    3  A    between atoms: C_19  and  O_20 
REMARK    4  A    between atoms: C_24  and  C_25 
REMARK       I    between atoms: C_25  and  N_26 
REMARK    5  A    between atoms: N_26  and  C_27 
ROOT
HETATM    1  C   UNL     1      27.778  38.677  49.687  1.00  0.00     0.070 C 
HETATM    2  C   UNL     1      27.477  40.117  50.015  1.00  0.00     0.037 C 
HETATM    3  N   UNL     1      27.395  40.421  51.376  1.00  0.00    -0.192 N 
HETATM    4  C   UNL     1      27.436  41.691  51.831  1.00  0.00     0.726 A 
HETATM    5  N   UNL     1      27.258  42.715  50.950  1.00  0.00    -0.083 N 
HETATM    6  N   UNL     1      27.445  43.915  51.529  1.00  0.00    -0.135 NA
HETATM    7  C   UNL     1      27.724  43.548  52.797  1.00  0.00     0.200 A 
HETATM    8  N   UNL     1      27.685  42.182  53.015  1.00  0.00    -0.041 NA
HETATM    9  C   UNL     1      26.975  42.523  49.528  1.00  0.00     0.202 C 
HETATM   10  C   UNL     1      27.306  41.099  49.089  1.00  0.00     0.062 C 
HETATM   11  H   UNL     1      27.679  39.686  52.022  1.00  0.00     0.184 HD
ENDROOT
BRANCH  10  12
HETATM   12  C   UNL     1      27.671  40.878  47.654  1.00  0.00     0.256 C 
HETATM   13  N   UNL     1      26.674  40.319  46.884  1.00  0.00    -0.323 N 
HETATM   14  H   UNL     1      25.831  39.997  47.340  1.00  0.00     0.169 HD
HETATM   15  O   UNL     1      28.768  41.251  47.255  1.00  0.00    -0.267 OA
BRANCH  13  16
HETATM   16  C   UNL     1      26.678  40.142  45.482  1.00  0.00     0.035 A 
HETATM   17  C   UNL     1      27.469  39.208  44.810  1.00  0.00     0.029 A 
HETATM   18  C   UNL     1      27.427  39.114  43.415  1.00  0.00     0.002 A 
HETATM   19  C   UNL     1      26.601  39.959  42.679  1.00  0.00     0.000 A 
HETATM   20  C   UNL     1      25.807  40.893  43.337  1.00  0.00     0.002 A 
HETATM   21  C   UNL     1      25.840  40.979  44.733  1.00  0.00     0.029 A 
ENDBRANCH  13  16
ENDBRANCH  10  12
BRANCH   9  22
HETATM   22  C   UNL     1      25.524  42.929  49.258  1.00  0.00    -0.025 A 
HETATM   23  C   UNL     1      24.545  41.934  49.087  1.00  0.00     0.046 A 
HETATM   24  C   UNL     1      23.221  42.292  48.849  1.00  0.00     0.066 A 
HETATM   25  C   UNL     1      22.842  43.627  48.779  1.00  0.00     0.036 A 
HETATM   26  C   UNL     1      23.803  44.623  48.922  1.00  0.00     0.003 A 
HETATM   27  C   UNL     1      25.136  44.279  49.151  1.00  0.00     0.010 A 
BRANCH  24  28
HETATM   28  O   UNL     1      22.252  41.350  48.673  1.00  0.00    -0.361 OA
HETATM   29  H   UNL     1      21.402  41.798  48.520  1.00  0.00     0.217 HD
ENDBRANCH  24  28
ENDBRANCH   9  22
BRANCH   7  30
HETATM   30  C   UNL     1      28.012  44.514  53.850  1.00  0.00     0.036 A 
HETATM   31  C   UNL     1      29.153  44.442  54.664  1.00  0.00     0.048 A 
HETATM   32 CL   UNL     1      30.376  43.231  54.481  1.00  0.00    -0.083 Cl
HETATM   33  C   UNL     1      29.374  45.410  55.654  1.00  0.00     0.025 A 
HETATM   34  C   UNL     1      28.469  46.455  55.839  1.00  0.00     0.002 A 
HETATM   35  C   UNL     1      27.339  46.542  55.033  1.00  0.00     0.001 A 
HETATM   36  C   UNL     1      27.113  45.580  54.045  1.00  0.00     0.017 A 
ENDBRANCH   7  30
TORSDOF 5
ENDMDL
MODEL 6
REMARK VINA RESULT:      -8.9      9.740     11.402
REMARK  5 active torsions:
REMARK  status: ('A' for Active; 'I' for Inactive)
REMARK    1  A    between atoms: C_7  and  C_8 
REMARK    2  A    between atoms: C_16  and  C_17 
REMARK    3  A    between atoms: C_19  and  O_20 
REMARK    4  A    between atoms: C_24  and  C_25 
REMARK       I    between atoms: C_25  and  N_26 
REMARK    5  A    between atoms: N_26  and  C_27 
ROOT
HETATM    1  C   UNL     1      31.512  46.782  40.194  1.00  0.00     0.070 C 
HETATM    2  C   UNL     1      30.276  47.638  40.303  1.00  0.00     0.037 C 
HETATM    3  N   UNL     1      29.156  47.170  39.614  1.00  0.00    -0.192 N 
HETATM    4  C   UNL     1      27.916  47.645  39.854  1.00  0.00     0.726 A 
HETATM    5  N   UNL     1      27.776  48.800  40.562  1.00  0.00    -0.083 N 
HETATM    6  N   UNL     1      26.485  49.079  40.822  1.00  0.00    -0.135 NA
HETATM    7  C   UNL     1      25.872  48.041  40.215  1.00  0.00     0.200 A 
HETATM    8  N   UNL     1      26.733  47.165  39.578  1.00  0.00    -0.041 NA
HETATM    9  C   UNL     1      28.902  49.597  41.049  1.00  0.00     0.202 C 
HETATM   10  C   UNL     1      30.197  48.787  41.027  1.00  0.00     0.062 C 
HETATM   11  H   UNL     1      29.226  46.234  39.216  1.00  0.00     0.184 HD
ENDROOT
BRANCH  10  12
HETATM   12  C   UNL     1      31.270  49.161  42.002  1.00  0.00     0.256 C 
HETATM   13  N   UNL     1      32.114  50.162  41.576  1.00  0.00    -0.323 N 
HETATM   14  H   UNL     1      32.035  50.492  40.624  1.00  0.00     0.169 HD
HETATM   15  O   UNL     1      31.290  48.617  43.101  1.00  0.00    -0.267 OA
BRANCH  13  16
HETATM   16  C   UNL     1      33.108  50.821  42.335  1.00  0.00     0.035 A 
HETATM   17  C   UNL     1      34.452  50.906  41.964  1.00  0.00     0.029 A 
HETATM   18  C   UNL     1      35.375  51.559  42.787  1.00  0.00     0.002 A 
HETATM   19  C   UNL     1      34.967  52.123  43.992  1.00  0.00     0.000 A 
HETATM   20  C   UNL     1      33.630  52.045  44.372  1.00  0.00     0.002 A 
HETATM   21  C   UNL     1      32.704  51.404  43.544  1.00  0.00     0.029 A 
ENDBRANCH  13  16
ENDBRANCH  10  12
BRANCH   9  22
HETATM   22  C   UNL     1      28.973  50.892  40.237  1.00  0.00    -0.025 A 
HETATM   23  C   UNL     1      29.494  50.866  38.931  1.00  0.00     0.046 A 
HETATM   24  C   UNL     1      29.556  52.037  38.181  1.00  0.00     0.066 A 
HETATM   25  C   UNL     1      29.105  53.244  38.700  1.00  0.00     0.036 A 
HETATM   26  C   UNL     1      28.608  53.291  39.999  1.00  0.00     0.003 A 
HETATM   27  C   UNL     1      28.550  52.127  40.767  1.00  0.00     0.010 A 
BRANCH  24  28
HETATM   28  O   UNL     1      30.061  52.044  36.915  1.00  0.00    -0.361 OA
HETATM   29  H   UNL     1      30.566  52.864  36.783  1.00  0.00     0.217 HD
ENDBRANCH  24  28
ENDBRANCH   9  22
BRANCH   7  30
HETATM   30  C   UNL     1      24.423  47.878  40.210  1.00  0.00     0.036 A 
HETATM   31  C   UNL     1      23.565  48.680  39.442  1.00  0.00     0.048 A 
HETATM   32 CL   UNL     1      24.126  49.920  38.373  1.00  0.00    -0.083 Cl
HETATM   33  C   UNL     1      22.180  48.463  39.477  1.00  0.00     0.025 A 
HETATM   34  C   UNL     1      21.640  47.450  40.269  1.00  0.00     0.002 A 
HETATM   35  C   UNL     1      22.481  46.643  41.028  1.00  0.00     0.001 A 
HETATM   36  C   UNL     1      23.861  46.854  40.997  1.00  0.00     0.017 A 
ENDBRANCH   7  30
TORSDOF 5
ENDMDL
MODEL 7
REMARK VINA RESULT:      -8.7      3.616      6.532
REMARK  5 active torsions:
REMARK  status: ('A' for Active; 'I' for Inactive)
REMARK    1  A    between atoms: C_7  and  C_8 
REMARK    2  A    between atoms: C_16  and  C_17 
REMARK    3  A    between atoms: C_19  and  O_20 
REMARK    4  A    between atoms: C_24  and  C_25 
REMARK       I    between atoms: C_25  and  N_26 
REMARK    5  A    between atoms: N_26  and  C_27 
ROOT
HETATM    1  C   UNL     1      21.147  50.948  50.522  1.00  0.00     0.070 C 
HETATM    2  C   UNL     1      20.428  50.299  49.366  1.00  0.00     0.037 C 
HETATM    3  N   UNL     1      19.035  50.378  49.402  1.00  0.00    -0.192 N 
HETATM    4  C   UNL     1      18.274  50.123  48.317  1.00  0.00     0.726 A 
HETATM    5  N   UNL     1      18.837  49.495  47.247  1.00  0.00    -0.083 N 
HETATM    6  N   UNL     1      17.991  49.421  46.204  1.00  0.00    -0.135 NA
HETATM    7  C   UNL     1      16.896  50.019  46.719  1.00  0.00     0.200 A 
HETATM    8  N   UNL     1      17.036  50.425  48.033  1.00  0.00    -0.041 NA
HETATM    9  C   UNL     1      20.224  49.030  47.216  1.00  0.00     0.202 C 
HETATM   10  C   UNL     1      21.047  49.683  48.324  1.00  0.00     0.062 C 
HETATM   11  H   UNL     1      18.633  50.978  50.121  1.00  0.00     0.184 HD
ENDROOT
BRANCH  10  12
HETATM   12  C   UNL     1      22.520  49.831  48.103  1.00  0.00     0.256 C 
HETATM   13  N   UNL     1      23.312  49.230  49.058  1.00  0.00    -0.323 N 
HETATM   14  H   UNL     1      22.870  48.841  49.879  1.00  0.00     0.169 HD
HETATM   15  O   UNL     1      22.915  50.401  47.092  1.00  0.00    -0.267 OA
BRANCH  13  16
HETATM   16  C   UNL     1      24.716  49.075  49.027  1.00  0.00     0.035 A 
HETATM   17  C   UNL     1      25.590  49.960  48.392  1.00  0.00     0.029 A 
HETATM   18  C   UNL     1      26.968  49.718  48.391  1.00  0.00     0.002 A 
HETATM   19  C   UNL     1      27.483  48.586  49.016  1.00  0.00     0.000 A 
HETATM   20  C   UNL     1      26.621  47.697  49.652  1.00  0.00     0.002 A 
HETATM   21  C   UNL     1      25.245  47.945  49.664  1.00  0.00     0.029 A 
ENDBRANCH  13  16
ENDBRANCH  10  12
BRANCH   9  22
HETATM   22  C   UNL     1      20.229  47.500  47.264  1.00  0.00    -0.025 A 
HETATM   23  C   UNL     1      20.252  46.845  48.508  1.00  0.00     0.046 A 
HETATM   24  C   UNL     1      20.248  45.454  48.565  1.00  0.00     0.066 A 
HETATM   25  C   UNL     1      20.219  44.691  47.404  1.00  0.00     0.036 A 
HETATM   26  C   UNL     1      20.219  45.324  46.165  1.00  0.00     0.003 A 
HETATM   27  C   UNL     1      20.233  46.718  46.093  1.00  0.00     0.010 A 
BRANCH  24  28
HETATM   28  O   UNL     1      20.277  44.791  49.756  1.00  0.00    -0.361 OA
HETATM   29  H   UNL     1      19.427  44.923  50.209  1.00  0.00     0.217 HD
ENDBRANCH  24  28
ENDBRANCH   9  22
BRANCH   7  30
HETATM   30  C   UNL     1      15.665  50.194  45.958  1.00  0.00     0.036 A 
HETATM   31  C   UNL     1      15.379  51.353  45.220  1.00  0.00     0.048 A 
HETATM   32 CL   UNL     1      16.472  52.687  45.083  1.00  0.00    -0.083 Cl
HETATM   33  C   UNL     1      14.178  51.452  44.502  1.00  0.00     0.025 A 
HETATM   34  C   UNL     1      13.258  50.403  44.509  1.00  0.00     0.002 A 
HETATM   35  C   UNL     1      13.535  49.246  45.230  1.00  0.00     0.001 A 
HETATM   36  C   UNL     1      14.729  49.142  45.947  1.00  0.00     0.017 A 
ENDBRANCH   7  30
TORSDOF 5
ENDMDL
MODEL 8
REMARK VINA RESULT:      -8.7      1.751      2.265
REMARK  5 active torsions:
REMARK  status: ('A' for Active; 'I' for Inactive)
REMARK    1  A    between atoms: C_7  and  C_8 
REMARK    2  A    between atoms: C_16  and  C_17 
REMARK    3  A    between atoms: C_19  and  O_20 
REMARK    4  A    between atoms: C_24  and  C_25 
REMARK       I    between atoms: C_25  and  N_26 
REMARK    5  A    between atoms: N_26  and  C_27 
ROOT
HETATM    1  C   UNL     1      22.344  44.088  46.425  1.00  0.00     0.070 C 
HETATM    2  C   UNL     1      22.115  45.402  47.129  1.00  0.00     0.037 C 
HETATM    3  N   UNL     1      21.197  46.260  46.519  1.00  0.00    -0.192 N 
HETATM    4  C   UNL     1      20.664  47.317  47.168  1.00  0.00     0.726 A 
HETATM    5  N   UNL     1      21.237  47.738  48.329  1.00  0.00    -0.083 N 
HETATM    6  N   UNL     1      20.525  48.718  48.916  1.00  0.00    -0.135 NA
HETATM    7  C   UNL     1      19.515  48.865  48.033  1.00  0.00     0.200 A 
HETATM    8  N   UNL     1      19.602  48.038  46.927  1.00  0.00    -0.041 NA
HETATM    9  C   UNL     1      22.440  47.138  48.906  1.00  0.00     0.202 C 
HETATM   10  C   UNL     1      22.720  45.769  48.290  1.00  0.00     0.062 C 
HETATM   11  H   UNL     1      20.665  45.875  45.741  1.00  0.00     0.184 HD
ENDROOT
BRANCH  10  12
HETATM   12  C   UNL     1      23.474  44.774  49.116  1.00  0.00     0.256 C 
HETATM   13  N   UNL     1      24.815  44.671  48.815  1.00  0.00    -0.323 N 
HETATM   14  H   UNL     1      25.172  45.168  48.011  1.00  0.00     0.169 HD
HETATM   15  O   UNL     1      22.888  44.182  50.016  1.00  0.00    -0.267 OA
BRANCH  13  16
HETATM   16  C   UNL     1      25.794  43.938  49.524  1.00  0.00     0.035 A 
HETATM   17  C   UNL     1      25.972  42.557  49.417  1.00  0.00     0.029 A 
HETATM   18  C   UNL     1      26.954  41.907  50.173  1.00  0.00     0.002 A 
HETATM   19  C   UNL     1      27.758  42.630  51.049  1.00  0.00     0.000 A 
HETATM   20  C   UNL     1      27.590  44.007  51.164  1.00  0.00     0.002 A 
HETATM   21  C   UNL     1      26.618  44.659  50.400  1.00  0.00     0.029 A 
ENDBRANCH  13  16
ENDBRANCH  10  12
BRANCH   9  22
HETATM   22  C   UNL     1      23.599  48.128  48.761  1.00  0.00    -0.025 A 
HETATM   23  C   UNL     1      24.820  47.867  49.409  1.00  0.00     0.046 A 
HETATM   24  C   UNL     1      25.883  48.756  49.277  1.00  0.00     0.066 A 
HETATM   25  C   UNL     1      25.762  49.907  48.508  1.00  0.00     0.036 A 
HETATM   26  C   UNL     1      24.553  50.191  47.879  1.00  0.00     0.003 A 
HETATM   27  C   UNL     1      23.475  49.314  48.011  1.00  0.00     0.010 A 
BRANCH  24  28
HETATM   28  O   UNL     1      27.076  48.534  49.898  1.00  0.00    -0.361 OA
HETATM   29  H   UNL     1      27.244  47.577  49.922  1.00  0.00     0.217 HD
ENDBRANCH  24  28
ENDBRANCH   9  22
BRANCH   7  30
HETATM   30  C   UNL     1      18.443  49.835  48.219  1.00  0.00     0.036 A 
HETATM   31  C   UNL     1      18.676  51.202  48.434  1.00  0.00     0.048 A 
HETATM   32 CL   UNL     1      20.258  51.905  48.452  1.00  0.00    -0.083 Cl
HETATM   33  C   UNL     1      17.597  52.083  48.597  1.00  0.00     0.025 A 
HETATM   34  C   UNL     1      16.285  51.615  48.544  1.00  0.00     0.002 A 
HETATM   35  C   UNL     1      16.040  50.264  48.323  1.00  0.00     0.001 A 
HETATM   36  C   UNL     1      17.112  49.381  48.160  1.00  0.00     0.017 A 
ENDBRANCH   7  30
TORSDOF 5
ENDMDL
MODEL 9
REMARK VINA RESULT:      -8.7      5.349      9.310
REMARK  5 active torsions:
REMARK  status: ('A' for Active; 'I' for Inactive)
REMARK    1  A    between atoms: C_7  and  C_8 
REMARK    2  A    between atoms: C_16  and  C_17 
REMARK    3  A    between atoms: C_19  and  O_20 
REMARK    4  A    between atoms: C_24  and  C_25 
REMARK       I    between atoms: C_25  and  N_26 
REMARK    5  A    between atoms: N_26  and  C_27 
ROOT
HETATM    1  C   UNL     1      23.762  44.541  47.805  1.00  0.00     0.070 C 
HETATM    2  C   UNL     1      24.710  43.722  48.645  1.00  0.00     0.037 C 
HETATM    3  N   UNL     1      25.784  44.423  49.198  1.00  0.00    -0.192 N 
HETATM    4  C   UNL     1      26.532  43.914  50.200  1.00  0.00     0.726 A 
HETATM    5  N   UNL     1      26.439  42.586  50.485  1.00  0.00    -0.083 N 
HETATM    6  N   UNL     1      27.150  42.254  51.579  1.00  0.00    -0.135 NA
HETATM    7  C   UNL     1      27.680  43.450  51.911  1.00  0.00     0.200 A 
HETATM    8  N   UNL     1      27.344  44.480  51.052  1.00  0.00    -0.041 NA
HETATM    9  C   UNL     1      25.601  41.650  49.735  1.00  0.00     0.202 C 
HETATM   10  C   UNL     1      24.566  42.393  48.894  1.00  0.00     0.062 C 
HETATM   11  H   UNL     1      25.759  45.437  49.106  1.00  0.00     0.184 HD
ENDROOT
BRANCH  10  12
HETATM   12  C   UNL     1      23.291  41.680  48.567  1.00  0.00     0.256 C 
HETATM   13  N   UNL     1      23.282  41.043  47.345  1.00  0.00    -0.323 N 
HETATM   14  H   UNL     1      24.061  41.186  46.717  1.00  0.00     0.169 HD
HETATM   15  O   UNL     1      22.393  41.655  49.401  1.00  0.00    -0.267 OA
BRANCH  13  16
HETATM   16  C   UNL     1      22.287  40.173  46.844  1.00  0.00     0.035 A 
HETATM   17  C   UNL     1      21.084  40.599  46.277  1.00  0.00     0.029 A 
HETATM   18  C   UNL     1      20.143  39.668  45.825  1.00  0.00     0.002 A 
HETATM   19  C   UNL     1      20.391  38.304  45.945  1.00  0.00     0.000 A 
HETATM   20  C   UNL     1      21.586  37.867  46.509  1.00  0.00     0.002 A 
HETATM   21  C   UNL     1      22.533  38.797  46.949  1.00  0.00     0.029 A 
ENDBRANCH  13  16
ENDBRANCH  10  12
BRANCH   9  22
HETATM   22  C   UNL     1      26.509  40.725  48.919  1.00  0.00    -0.025 A 
HETATM   23  C   UNL     1      26.742  39.411  49.364  1.00  0.00     0.046 A 
HETATM   24  C   UNL     1      27.558  38.559  48.626  1.00  0.00     0.066 A 
HETATM   25  C   UNL     1      28.153  38.983  47.444  1.00  0.00     0.036 A 
HETATM   26  C   UNL     1      27.951  40.288  47.003  1.00  0.00     0.003 A 
HETATM   27  C   UNL     1      27.142  41.157  47.737  1.00  0.00     0.010 A 
BRANCH  24  28
HETATM   28  O   UNL     1      27.808  37.283  49.036  1.00  0.00    -0.361 OA
HETATM   29  H   UNL     1      27.556  36.670  48.325  1.00  0.00     0.217 HD
ENDBRANCH  24  28
ENDBRANCH   9  22
BRANCH   7  30
HETATM   30  C   UNL     1      28.556  43.628  53.063  1.00  0.00     0.036 A 
HETATM   31  C   UNL     1      28.251  44.486  54.131  1.00  0.00     0.048 A 
HETATM   32 CL   UNL     1      26.780  45.393  54.232  1.00  0.00    -0.083 Cl
HETATM   33  C   UNL     1      29.134  44.604  55.214  1.00  0.00     0.025 A 
HETATM   34  C   UNL     1      30.320  43.871  55.246  1.00  0.00     0.002 A 
HETATM   35  C   UNL     1      30.629  43.010  54.197  1.00  0.00     0.001 A 
HETATM   36  C   UNL     1      29.752  42.889  53.116  1.00  0.00     0.017 A 
ENDBRANCH   7  30
TORSDOF 5
ENDMDL
MODEL 10
REMARK VINA RESULT:      -8.6      6.524      9.722
REMARK  5 active torsions:
REMARK  status: ('A' for Active; 'I' for Inactive)
REMARK    1  A    between atoms: C_7  and  C_8 
REMARK    2  A    between atoms: C_16  and  C_17 
REMARK    3  A    between atoms: C_19  and  O_20 
REMARK    4  A    between atoms: C_24  and  C_25 
REMARK       I    between atoms: C_25  and  N_26 
REMARK    5  A    between atoms: N_26  and  C_27 
ROOT
HETATM    1  C   UNL     1      24.069  42.673  49.649  1.00  0.00     0.070 C 
HETATM    2  C   UNL     1      25.092  41.980  48.783  1.00  0.00     0.037 C 
HETATM    3  N   UNL     1      24.592  41.374  47.629  1.00  0.00    -0.192 N 
HETATM    4  C   UNL     1      25.397  40.987  46.617  1.00  0.00     0.726 A 
HETATM    5  N   UNL     1      26.740  40.910  46.832  1.00  0.00    -0.083 N 
HETATM    6  N   UNL     1      27.416  40.629  45.703  1.00  0.00    -0.135 NA
HETATM    7  C   UNL     1      26.403  40.526  44.817  1.00  0.00     0.200 A 
HETATM    8  N   UNL     1      25.147  40.704  45.367  1.00  0.00    -0.041 NA
HETATM    9  C   UNL     1      27.373  41.181  48.124  1.00  0.00     0.202 C 
HETATM   10  C   UNL     1      26.424  41.935  49.052  1.00  0.00     0.062 C 
HETATM   11  H   UNL     1      23.618  41.567  47.400  1.00  0.00     0.184 HD
ENDROOT
BRANCH  10  12
HETATM   12  C   UNL     1      27.029  42.809  50.107  1.00  0.00     0.256 C 
HETATM   13  N   UNL     1      27.275  42.179  51.308  1.00  0.00    -0.323 N 
HETATM   14  H   UNL     1      26.940  41.234  51.438  1.00  0.00     0.169 HD
HETATM   15  O   UNL     1      27.314  43.968  49.827  1.00  0.00    -0.267 OA
BRANCH  13  16
HETATM   16  C   UNL     1      27.974  42.704  52.419  1.00  0.00     0.035 A 
HETATM   17  C   UNL     1      27.399  43.527  53.390  1.00  0.00     0.029 A 
HETATM   18  C   UNL     1      28.170  44.021  54.447  1.00  0.00     0.002 A 
HETATM   19  C   UNL     1      29.523  43.707  54.537  1.00  0.00     0.000 A 
HETATM   20  C   UNL     1      30.107  42.888  53.575  1.00  0.00     0.002 A 
HETATM   21  C   UNL     1      29.333  42.383  52.525  1.00  0.00     0.029 A 
ENDBRANCH  13  16
ENDBRANCH  10  12
BRANCH   9  22
HETATM   22  C   UNL     1      27.883  39.860  48.706  1.00  0.00    -0.025 A 
HETATM   23  C   UNL     1      29.267  39.652  48.846  1.00  0.00     0.046 A 
HETATM   24  C   UNL     1      29.742  38.458  49.381  1.00  0.00     0.066 A 
HETATM   25  C   UNL     1      28.868  37.458  49.787  1.00  0.00     0.036 A 
HETATM   26  C   UNL     1      27.496  37.639  49.633  1.00  0.00     0.003 A 
HETATM   27  C   UNL     1      27.006  38.827  49.088  1.00  0.00     0.010 A 
BRANCH  24  28
HETATM   28  O   UNL     1      31.078  38.225  49.524  1.00  0.00    -0.361 OA
HETATM   29  H   UNL     1      31.475  38.124  48.642  1.00  0.00     0.217 HD
ENDBRANCH  24  28
ENDBRANCH   9  22
BRANCH   7  30
HETATM   30  C   UNL     1      26.620  40.223  43.408  1.00  0.00     0.036 A 
HETATM   31  C   UNL     1      26.743  41.214  42.422  1.00  0.00     0.048 A 
HETATM   32 CL   UNL     1      26.704  42.910  42.769  1.00  0.00    -0.083 Cl
HETATM   33  C   UNL     1      26.960  40.854  41.084  1.00  0.00     0.025 A 
HETATM   34  C   UNL     1      27.060  39.512  40.718  1.00  0.00     0.002 A 
HETATM   35  C   UNL     1      26.948  38.521  41.687  1.00  0.00     0.001 A 
HETATM   36  C   UNL     1      26.732  38.874  43.022  1.00  0.00     0.017 A 
ENDBRANCH   7  30
TORSDOF 5
ENDMDL
