MODEL 1
REMARK VINA RESULT:      -8.7      0.000      0.000
REMARK  10 active torsions:
REMARK  status: ('A' for Active; 'I' for Inactive)
REMARK    1  A    between atoms: C_2  and  N_3 
REMARK    2  A    between atoms: N_3  and  C_4 
REMARK    3  A    between atoms: N_3  and  C_37 
REMARK    4  A    between atoms: C_7  and  C_8 
REMARK    5  A    between atoms: N_9  and  C_11 
REMARK    6  A    between atoms: C_11  and  C_12 
REMARK       I    between atoms: C_12  and  N_13 
REMARK    7  A    between atoms: N_13  and  C_14 
REMARK    8  A    between atoms: C_20  and  C_21 
REMARK    9  A    between atoms: C_21  and  O_22 
REMARK   10  A    between atoms: C_28  and  O_29 
ROOT
HETATM    1  C   UNL     1      25.735  41.949  50.418  1.00  0.00     0.228 C 
HETATM    2  N   UNL     1      26.380  42.304  51.752  1.00  0.00    -0.054 N 
HETATM    3  H   UNL     1      25.596  42.347  52.427  1.00  0.00     0.281 HD
HETATM    4  C   UNL     1      27.247  41.196  52.296  1.00  0.00     0.239 C 
HETATM    5  C   UNL     1      28.339  40.836  51.302  1.00  0.00     0.066 C 
HETATM    6  C   UNL     1      27.733  40.419  49.965  1.00  0.00     0.065 C 
HETATM    7  C   UNL     1      26.830  41.542  49.392  1.00  0.00     0.055 C 
HETATM    8  C   UNL     1      28.834  40.044  48.956  1.00  0.00     0.038 C 
HETATM    9  C   UNL     1      28.254  39.618  47.609  1.00  0.00     0.003 C 
HETATM   10  C   UNL     1      27.304  40.668  47.048  1.00  0.00     0.001 C 
HETATM   11  C   UNL     1      26.221  41.058  48.053  1.00  0.00     0.010 C 
ENDROOT
BRANCH   2  12
HETATM   12  C   UNL     1      26.993  43.705  51.914  1.00  0.00     0.338 C 
BRANCH  12  13
HETATM   13  C   UNL     1      27.373  43.920  53.386  1.00  0.00     0.248 C 
HETATM   14  N   UNL     1      28.600  44.513  53.582  1.00  0.00    -0.319 N 
HETATM   15  H   UNL     1      28.965  45.160  52.880  1.00  0.00     0.169 HD
HETATM   16  O   UNL     1      26.590  43.510  54.243  1.00  0.00    -0.271 OA
BRANCH  14  17
HETATM   17  C   UNL     1      29.324  44.486  54.770  1.00  0.00     0.094 A 
HETATM   18  S   UNL     1      30.494  43.289  55.031  1.00  0.00    -0.076 SA
HETATM   19  C   UNL     1      30.970  43.961  56.521  1.00  0.00    -0.012 A 
HETATM   20  C   UNL     1      32.066  43.305  57.302  1.00  0.00     0.057 C 
HETATM   21  C   UNL     1      30.241  45.099  56.841  1.00  0.00    -0.030 A 
HETATM   22  C   UNL     1      30.444  45.890  58.099  1.00  0.00     0.050 C 
HETATM   23  C   UNL     1      29.275  45.422  55.795  1.00  0.00     0.080 A 
BRANCH  23  24
HETATM   24  C   UNL     1      28.334  46.548  55.743  1.00  0.00     0.296 C 
HETATM   25  O   UNL     1      27.704  46.913  56.735  1.00  0.00    -0.259 OA
BRANCH  24  26
HETATM   26  O   UNL     1      28.247  47.136  54.521  1.00  0.00    -0.322 OA
HETATM   27  C   UNL     1      26.937  47.566  54.151  1.00  0.00     0.213 C 
ENDBRANCH  24  26
ENDBRANCH  23  24
ENDBRANCH  14  17
ENDBRANCH  12  13
ENDBRANCH   2  12
BRANCH   1  28
HETATM   28  C   UNL     1      24.732  43.011  49.986  1.00  0.00    -0.027 A 
HETATM   29  C   UNL     1      25.086  44.153  49.255  1.00  0.00     0.011 A 
HETATM   30  C   UNL     1      24.111  45.055  48.809  1.00  0.00     0.030 A 
HETATM   31  C   UNL     1      22.759  44.871  49.112  1.00  0.00     0.030 A 
HETATM   32  C   UNL     1      22.419  43.774  49.912  1.00  0.00     0.030 A 
HETATM   33  C   UNL     1      23.383  42.852  50.336  1.00  0.00     0.011 A 
BRANCH  31  34
HETATM   34  N   UNL     1      21.748  45.699  48.631  1.00  0.00    -0.382 N 
BRANCH  34  35
HETATM   35  C   UNL     1      20.392  45.159  48.456  1.00  0.00     0.118 C 
HETATM   36  C   UNL     1      20.204  44.593  47.053  1.00  0.00     0.026 C 
ENDBRANCH  34  35
BRANCH  34  37
HETATM   37  C   UNL     1      22.174  46.736  47.678  1.00  0.00     0.118 C 
HETATM   38  C   UNL     1      21.618  48.110  48.032  1.00  0.00     0.026 C 
ENDBRANCH  34  37
ENDBRANCH  31  34
ENDBRANCH   1  28
BRANCH   6  39
HETATM   39  O   UNL     1      26.916  39.272  50.222  1.00  0.00    -0.389 OA
HETATM   40  H   UNL     1      26.443  39.019  49.405  1.00  0.00     0.210 HD
ENDBRANCH   6  39
TORSDOF 10
ENDMDL
MODEL 2
REMARK VINA RESULT:      -8.5      3.366      8.070
REMARK  10 active torsions:
REMARK  status: ('A' for Active; 'I' for Inactive)
REMARK    1  A    between atoms: C_2  and  N_3 
REMARK    2  A    between atoms: N_3  and  C_4 
REMARK    3  A    between atoms: N_3  and  C_37 
REMARK    4  A    between atoms: C_7  and  C_8 
REMARK    5  A    between atoms: N_9  and  C_11 
REMARK    6  A    between atoms: C_11  and  C_12 
REMARK       I    between atoms: C_12  and  N_13 
REMARK    7  A    between atoms: N_13  and  C_14 
REMARK    8  A    between atoms: C_20  and  C_21 
REMARK    9  A    between atoms: C_21  and  O_22 
REMARK   10  A    between atoms: C_28  and  O_29 
ROOT
HETATM    1  C   UNL     1      26.807  43.307  52.392  1.00  0.00     0.228 C 
HETATM    2  N   UNL     1      26.165  44.536  51.762  1.00  0.00    -0.054 N 
HETATM    3  H   UNL     1      25.224  44.225  51.462  1.00  0.00     0.281 HD
HETATM    4  C   UNL     1      25.869  45.622  52.767  1.00  0.00     0.239 C 
HETATM    5  C   UNL     1      27.139  46.045  53.486  1.00  0.00     0.066 C 
HETATM    6  C   UNL     1      27.787  44.850  54.181  1.00  0.00     0.065 C 
HETATM    7  C   UNL     1      28.091  43.717  53.166  1.00  0.00     0.055 C 
HETATM    8  C   UNL     1      29.070  45.273  54.919  1.00  0.00     0.038 C 
HETATM    9  C   UNL     1      29.736  44.096  55.629  1.00  0.00     0.003 C 
HETATM   10  C   UNL     1      29.986  42.934  54.676  1.00  0.00     0.001 C 
HETATM   11  C   UNL     1      28.720  42.523  53.926  1.00  0.00     0.010 C 
ENDROOT
BRANCH   2  12
HETATM   12  C   UNL     1      26.745  45.061  50.438  1.00  0.00     0.338 C 
BRANCH  12  13
HETATM   13  C   UNL     1      25.597  45.570  49.554  1.00  0.00     0.248 C 
HETATM   14  N   UNL     1      25.481  46.941  49.497  1.00  0.00    -0.319 N 
HETATM   15  H   UNL     1      26.314  47.522  49.604  1.00  0.00     0.169 HD
HETATM   16  O   UNL     1      24.867  44.730  49.026  1.00  0.00    -0.271 OA
BRANCH  14  17
HETATM   17  C   UNL     1      24.346  47.634  49.086  1.00  0.00     0.094 A 
HETATM   18  S   UNL     1      22.810  46.947  49.278  1.00  0.00    -0.076 SA
HETATM   19  C   UNL     1      22.022  48.341  48.701  1.00  0.00    -0.012 A 
HETATM   20  C   UNL     1      20.526  48.360  48.631  1.00  0.00     0.057 C 
HETATM   21  C   UNL     1      22.918  49.343  48.350  1.00  0.00    -0.030 A 
HETATM   22  C   UNL     1      22.501  50.677  47.804  1.00  0.00     0.050 C 
HETATM   23  C   UNL     1      24.297  48.931  48.593  1.00  0.00     0.080 A 
BRANCH  23  24
HETATM   24  C   UNL     1      25.528  49.701  48.374  1.00  0.00     0.296 C 
HETATM   25  O   UNL     1      25.716  50.342  47.341  1.00  0.00    -0.259 OA
BRANCH  24  26
HETATM   26  O   UNL     1      26.405  49.643  49.410  1.00  0.00    -0.322 OA
HETATM   27  C   UNL     1      27.773  49.486  49.033  1.00  0.00     0.213 C 
ENDBRANCH  24  26
ENDBRANCH  23  24
ENDBRANCH  14  17
ENDBRANCH  12  13
ENDBRANCH   2  12
BRANCH   1  28
HETATM   28  C   UNL     1      26.929  42.168  51.390  1.00  0.00    -0.027 A 
HETATM   29  C   UNL     1      28.150  41.569  51.048  1.00  0.00     0.011 A 
HETATM   30  C   UNL     1      28.195  40.467  50.184  1.00  0.00     0.030 A 
HETATM   31  C   UNL     1      27.035  39.952  49.600  1.00  0.00     0.030 A 
HETATM   32  C   UNL     1      25.828  40.605  49.878  1.00  0.00     0.030 A 
HETATM   33  C   UNL     1      25.769  41.687  50.764  1.00  0.00     0.011 A 
BRANCH  31  34
HETATM   34  N   UNL     1      27.023  38.817  48.794  1.00  0.00    -0.382 N 
BRANCH  34  35
HETATM   35  C   UNL     1      27.978  37.731  49.059  1.00  0.00     0.118 C 
HETATM   36  C   UNL     1      27.314  36.591  49.822  1.00  0.00     0.026 C 
ENDBRANCH  34  35
BRANCH  34  37
HETATM   37  C   UNL     1      26.647  39.038  47.389  1.00  0.00     0.118 C 
HETATM   38  C   UNL     1      27.862  39.174  46.480  1.00  0.00     0.026 C 
ENDBRANCH  34  37
ENDBRANCH  31  34
ENDBRANCH   1  28
BRANCH   6  39
HETATM   39  O   UNL     1      26.833  44.359  55.130  1.00  0.00    -0.389 OA
HETATM   40  H   UNL     1      25.957  44.748  54.941  1.00  0.00     0.210 HD
ENDBRANCH   6  39
TORSDOF 10
ENDMDL
MODEL 3
REMARK VINA RESULT:      -8.4      2.723      7.636
REMARK  10 active torsions:
REMARK  status: ('A' for Active; 'I' for Inactive)
REMARK    1  A    between atoms: C_2  and  N_3 
REMARK    2  A    between atoms: N_3  and  C_4 
REMARK    3  A    between atoms: N_3  and  C_37 
REMARK    4  A    between atoms: C_7  and  C_8 
REMARK    5  A    between atoms: N_9  and  C_11 
REMARK    6  A    between atoms: C_11  and  C_12 
REMARK       I    between atoms: C_12  and  N_13 
REMARK    7  A    between atoms: N_13  and  C_14 
REMARK    8  A    between atoms: C_20  and  C_21 
REMARK    9  A    between atoms: C_21  and  O_22 
REMARK   10  A    between atoms: C_28  and  O_29 
ROOT
HETATM    1  C   UNL     1      28.011  41.778  50.731  1.00  0.00     0.228 C 
HETATM    2  N   UNL     1      26.677  42.264  50.177  1.00  0.00    -0.054 N 
HETATM    3  H   UNL     1      26.797  43.283  50.041  1.00  0.00     0.281 HD
HETATM    4  C   UNL     1      26.402  41.756  48.783  1.00  0.00     0.239 C 
HETATM    5  C   UNL     1      26.422  40.236  48.755  1.00  0.00     0.066 C 
HETATM    6  C   UNL     1      27.765  39.707  49.251  1.00  0.00     0.065 C 
HETATM    7  C   UNL     1      28.072  40.225  50.680  1.00  0.00     0.055 C 
HETATM    8  C   UNL     1      27.795  38.168  49.216  1.00  0.00     0.038 C 
HETATM    9  C   UNL     1      29.132  37.611  49.702  1.00  0.00     0.003 C 
HETATM   10  C   UNL     1      29.501  38.156  51.076  1.00  0.00     0.001 C 
HETATM   11  C   UNL     1      29.454  39.683  51.122  1.00  0.00     0.010 C 
ENDROOT
BRANCH   2  12
HETATM   12  C   UNL     1      25.449  42.226  51.102  1.00  0.00     0.338 C 
BRANCH  12  13
HETATM   13  C   UNL     1      24.370  43.165  50.543  1.00  0.00     0.248 C 
HETATM   14  N   UNL     1      24.838  44.122  49.670  1.00  0.00    -0.319 N 
HETATM   15  H   UNL     1      25.660  43.923  49.097  1.00  0.00     0.169 HD
HETATM   16  O   UNL     1      23.218  43.019  50.952  1.00  0.00    -0.271 OA
BRANCH  14  17
HETATM   17  C   UNL     1      24.163  45.288  49.320  1.00  0.00     0.094 A 
HETATM   18  S   UNL     1      22.598  45.208  48.677  1.00  0.00    -0.076 SA
HETATM   19  C   UNL     1      22.439  46.903  48.635  1.00  0.00    -0.012 A 
HETATM   20  C   UNL     1      21.165  47.505  48.130  1.00  0.00     0.057 C 
HETATM   21  C   UNL     1      23.576  47.548  49.102  1.00  0.00    -0.030 A 
HETATM   22  C   UNL     1      23.716  49.041  49.169  1.00  0.00     0.050 C 
HETATM   23  C   UNL     1      24.594  46.592  49.525  1.00  0.00     0.080 A 
BRANCH  23  24
HETATM   24  C   UNL     1      25.921  46.866  50.092  1.00  0.00     0.296 C 
HETATM   25  O   UNL     1      26.954  46.515  49.523  1.00  0.00    -0.259 OA
BRANCH  24  26
HETATM   26  O   UNL     1      25.887  47.543  51.270  1.00  0.00    -0.322 OA
HETATM   27  C   UNL     1      25.729  46.725  52.429  1.00  0.00     0.213 C 
ENDBRANCH  24  26
ENDBRANCH  23  24
ENDBRANCH  14  17
ENDBRANCH  12  13
ENDBRANCH   2  12
BRANCH   1  28
HETATM   28  C   UNL     1      28.338  42.447  52.059  1.00  0.00    -0.027 A 
HETATM   29  C   UNL     1      28.755  41.741  53.196  1.00  0.00     0.011 A 
HETATM   30  C   UNL     1      29.126  42.414  54.367  1.00  0.00     0.030 A 
HETATM   31  C   UNL     1      29.054  43.807  54.459  1.00  0.00     0.030 A 
HETATM   32  C   UNL     1      28.558  44.503  53.350  1.00  0.00     0.030 A 
HETATM   33  C   UNL     1      28.214  43.841  52.165  1.00  0.00     0.011 A 
BRANCH  31  34
HETATM   34  N   UNL     1      29.479  44.523  55.575  1.00  0.00    -0.382 N 
BRANCH  34  35
HETATM   35  C   UNL     1      28.783  45.764  55.946  1.00  0.00     0.118 C 
HETATM   36  C   UNL     1      28.874  46.015  57.447  1.00  0.00     0.026 C 
ENDBRANCH  34  35
BRANCH  34  37
HETATM   37  C   UNL     1      30.922  44.465  55.856  1.00  0.00     0.118 C 
HETATM   38  C   UNL     1      31.260  43.431  56.923  1.00  0.00     0.026 C 
ENDBRANCH  34  37
ENDBRANCH  31  34
ENDBRANCH   1  28
BRANCH   6  39
HETATM   39  O   UNL     1      28.764  40.221  48.362  1.00  0.00    -0.389 OA
HETATM   40  H   UNL     1      28.729  41.197  48.364  1.00  0.00     0.210 HD
ENDBRANCH   6  39
TORSDOF 10
ENDMDL
MODEL 4
REMARK VINA RESULT:      -8.3      2.308      5.940
REMARK  10 active torsions:
REMARK  status: ('A' for Active; 'I' for Inactive)
REMARK    1  A    between atoms: C_2  and  N_3 
REMARK    2  A    between atoms: N_3  and  C_4 
REMARK    3  A    between atoms: N_3  and  C_37 
REMARK    4  A    between atoms: C_7  and  C_8 
REMARK    5  A    between atoms: N_9  and  C_11 
REMARK    6  A    between atoms: C_11  and  C_12 
REMARK       I    between atoms: C_12  and  N_13 
REMARK    7  A    between atoms: N_13  and  C_14 
REMARK    8  A    between atoms: C_20  and  C_21 
REMARK    9  A    between atoms: C_21  and  O_22 
REMARK   10  A    between atoms: C_28  and  O_29 
ROOT
HETATM    1  C   UNL     1      26.089  43.921  50.208  1.00  0.00     0.228 C 
HETATM    2  N   UNL     1      26.274  44.502  51.604  1.00  0.00    -0.054 N 
HETATM    3  H   UNL     1      27.285  44.401  51.805  1.00  0.00     0.281 HD
HETATM    4  C   UNL     1      26.056  45.995  51.650  1.00  0.00     0.239 C 
HETATM    5  C   UNL     1      24.664  46.346  51.152  1.00  0.00     0.066 C 
HETATM    6  C   UNL     1      24.455  45.830  49.731  1.00  0.00     0.065 C 
HETATM    7  C   UNL     1      24.684  44.298  49.659  1.00  0.00     0.055 C 
HETATM    8  C   UNL     1      23.050  46.192  49.217  1.00  0.00     0.038 C 
HETATM    9  C   UNL     1      22.816  45.690  47.793  1.00  0.00     0.003 C 
HETATM   10  C   UNL     1      23.100  44.199  47.668  1.00  0.00     0.001 C 
HETATM   11  C   UNL     1      24.486  43.832  48.195  1.00  0.00     0.010 C 
ENDROOT
BRANCH   2  12
HETATM   12  C   UNL     1      25.654  43.750  52.793  1.00  0.00     0.338 C 
BRANCH  12  13
HETATM   13  C   UNL     1      26.416  44.119  54.074  1.00  0.00     0.248 C 
HETATM   14  N   UNL     1      27.642  44.709  53.863  1.00  0.00    -0.319 N 
HETATM   15  H   UNL     1      27.795  45.269  53.022  1.00  0.00     0.169 HD
HETATM   16  O   UNL     1      25.901  43.818  55.151  1.00  0.00    -0.271 OA
BRANCH  14  17
HETATM   17  C   UNL     1      28.662  44.800  54.806  1.00  0.00     0.094 A 
HETATM   18  S   UNL     1      28.651  46.041  55.958  1.00  0.00    -0.076 SA
HETATM   19  C   UNL     1      30.035  45.437  56.744  1.00  0.00    -0.012 A 
HETATM   20  C   UNL     1      30.564  46.155  57.947  1.00  0.00     0.057 C 
HETATM   21  C   UNL     1      30.525  44.288  56.137  1.00  0.00    -0.030 A 
HETATM   22  C   UNL     1      31.739  43.548  56.615  1.00  0.00     0.050 C 
HETATM   23  C   UNL     1      29.702  43.899  54.996  1.00  0.00     0.080 A 
BRANCH  23  24
HETATM   24  C   UNL     1      29.869  42.742  54.106  1.00  0.00     0.296 C 
HETATM   25  O   UNL     1      30.724  42.723  53.222  1.00  0.00    -0.259 OA
BRANCH  24  26
HETATM   26  O   UNL     1      29.012  41.720  54.367  1.00  0.00    -0.322 OA
HETATM   27  C   UNL     1      28.391  41.146  53.217  1.00  0.00     0.213 C 
ENDBRANCH  24  26
ENDBRANCH  23  24
ENDBRANCH  14  17
ENDBRANCH  12  13
ENDBRANCH   2  12
BRANCH   1  28
HETATM   28  C   UNL     1      26.487  42.452  50.160  1.00  0.00    -0.027 A 
HETATM   29  C   UNL     1      25.633  41.409  50.544  1.00  0.00     0.011 A 
HETATM   30  C   UNL     1      26.019  40.070  50.399  1.00  0.00     0.030 A 
HETATM   31  C   UNL     1      27.282  39.727  49.908  1.00  0.00     0.030 A 
HETATM   32  C   UNL     1      28.162  40.772  49.603  1.00  0.00     0.030 A 
HETATM   33  C   UNL     1      27.774  42.112  49.716  1.00  0.00     0.011 A 
BRANCH  31  34
HETATM   34  N   UNL     1      27.682  38.413  49.679  1.00  0.00    -0.382 N 
BRANCH  34  35
HETATM   35  C   UNL     1      29.108  38.117  49.475  1.00  0.00     0.118 C 
HETATM   36  C   UNL     1      29.722  37.493  50.724  1.00  0.00     0.026 C 
ENDBRANCH  34  35
BRANCH  34  37
HETATM   37  C   UNL     1      26.722  37.573  48.947  1.00  0.00     0.118 C 
HETATM   38  C   UNL     1      26.712  37.874  47.453  1.00  0.00     0.026 C 
ENDBRANCH  34  37
ENDBRANCH  31  34
ENDBRANCH   1  28
BRANCH   6  39
HETATM   39  O   UNL     1      25.439  46.470  48.911  1.00  0.00    -0.389 OA
HETATM   40  H   UNL     1      25.180  47.400  48.758  1.00  0.00     0.210 HD
ENDBRANCH   6  39
TORSDOF 10
ENDMDL
MODEL 5
REMARK VINA RESULT:      -8.3      3.229      8.211
REMARK  10 active torsions:
REMARK  status: ('A' for Active; 'I' for Inactive)
REMARK    1  A    between atoms: C_2  and  N_3 
REMARK    2  A    between atoms: N_3  and  C_4 
REMARK    3  A    between atoms: N_3  and  C_37 
REMARK    4  A    between atoms: C_7  and  C_8 
REMARK    5  A    between atoms: N_9  and  C_11 
REMARK    6  A    between atoms: C_11  and  C_12 
REMARK       I    between atoms: C_12  and  N_13 
REMARK    7  A    between atoms: N_13  and  C_14 
REMARK    8  A    between atoms: C_20  and  C_21 
REMARK    9  A    between atoms: C_21  and  O_22 
REMARK   10  A    between atoms: C_28  and  O_29 
ROOT
HETATM    1  C   UNL     1      26.585  42.506  51.994  1.00  0.00     0.228 C 
HETATM    2  N   UNL     1      25.480  43.551  51.902  1.00  0.00    -0.054 N 
HETATM    3  H   UNL     1      24.610  43.009  51.750  1.00  0.00     0.281 HD
HETATM    4  C   UNL     1      25.229  44.253  53.214  1.00  0.00     0.239 C 
HETATM    5  C   UNL     1      26.499  44.923  53.712  1.00  0.00     0.066 C 
HETATM    6  C   UNL     1      27.620  43.900  53.872  1.00  0.00     0.065 C 
HETATM    7  C   UNL     1      27.888  43.158  52.536  1.00  0.00     0.055 C 
HETATM    8  C   UNL     1      28.907  44.571  54.385  1.00  0.00     0.038 C 
HETATM    9  C   UNL     1      30.045  43.567  54.560  1.00  0.00     0.003 C 
HETATM   10  C   UNL     1      30.290  42.769  53.286  1.00  0.00     0.001 C 
HETATM   11  C   UNL     1      29.011  42.116  52.761  1.00  0.00     0.010 C 
ENDROOT
BRANCH   2  12
HETATM   12  C   UNL     1      25.466  44.490  50.685  1.00  0.00     0.338 C 
BRANCH  12  13
HETATM   13  C   UNL     1      24.035  44.582  50.138  1.00  0.00     0.248 C 
HETATM   14  N   UNL     1      23.869  45.486  49.112  1.00  0.00    -0.319 N 
HETATM   15  H   UNL     1      24.650  45.682  48.482  1.00  0.00     0.169 HD
HETATM   16  O   UNL     1      23.170  43.895  50.682  1.00  0.00    -0.271 OA
BRANCH  14  17
HETATM   17  C   UNL     1      22.651  46.018  48.700  1.00  0.00     0.094 A 
HETATM   18  S   UNL     1      21.336  44.999  48.386  1.00  0.00    -0.076 SA
HETATM   19  C   UNL     1      20.288  46.306  48.084  1.00  0.00    -0.012 A 
HETATM   20  C   UNL     1      18.859  46.031  47.731  1.00  0.00     0.057 C 
HETATM   21  C   UNL     1      20.927  47.532  48.212  1.00  0.00    -0.030 A 
HETATM   22  C   UNL     1      20.246  48.851  47.995  1.00  0.00     0.050 C 
HETATM   23  C   UNL     1      22.326  47.364  48.594  1.00  0.00     0.080 A 
BRANCH  23  24
HETATM   24  C   UNL     1      23.331  48.405  48.846  1.00  0.00     0.296 C 
HETATM   25  O   UNL     1      23.882  48.522  49.940  1.00  0.00    -0.259 OA
BRANCH  24  26
HETATM   26  O   UNL     1      23.591  49.192  47.769  1.00  0.00    -0.322 OA
HETATM   27  C   UNL     1      23.601  50.594  48.036  1.00  0.00     0.213 C 
ENDBRANCH  24  26
ENDBRANCH  23  24
ENDBRANCH  14  17
ENDBRANCH  12  13
ENDBRANCH   2  12
BRANCH   1  28
HETATM   28  C   UNL     1      26.692  41.696  50.709  1.00  0.00    -0.027 A 
HETATM   29  C   UNL     1      27.296  42.180  49.540  1.00  0.00     0.011 A 
HETATM   30  C   UNL     1      27.444  41.362  48.412  1.00  0.00     0.030 A 
HETATM   31  C   UNL     1      26.959  40.052  48.397  1.00  0.00     0.030 A 
HETATM   32  C   UNL     1      26.284  39.599  49.536  1.00  0.00     0.030 A 
HETATM   33  C   UNL     1      26.158  40.398  50.678  1.00  0.00     0.011 A 
BRANCH  31  34
HETATM   34  N   UNL     1      27.146  39.179  47.327  1.00  0.00    -0.382 N 
BRANCH  34  35
HETATM   35  C   UNL     1      27.712  37.845  47.573  1.00  0.00     0.118 C 
HETATM   36  C   UNL     1      29.093  37.944  48.211  1.00  0.00     0.026 C 
ENDBRANCH  34  35
BRANCH  34  37
HETATM   37  C   UNL     1      27.478  39.812  46.041  1.00  0.00     0.118 C 
HETATM   38  C   UNL     1      27.605  38.795  44.913  1.00  0.00     0.026 C 
ENDBRANCH  34  37
ENDBRANCH  31  34
ENDBRANCH   1  28
BRANCH   6  39
HETATM   39  O   UNL     1      27.168  42.941  54.835  1.00  0.00    -0.389 OA
HETATM   40  H   UNL     1      27.423  42.043  54.544  1.00  0.00     0.210 HD
ENDBRANCH   6  39
TORSDOF 10
ENDMDL
MODEL 6
REMARK VINA RESULT:      -8.2      5.320     10.444
REMARK  10 active torsions:
REMARK  status: ('A' for Active; 'I' for Inactive)
REMARK    1  A    between atoms: C_2  and  N_3 
REMARK    2  A    between atoms: N_3  and  C_4 
REMARK    3  A    between atoms: N_3  and  C_37 
REMARK    4  A    between atoms: C_7  and  C_8 
REMARK    5  A    between atoms: N_9  and  C_11 
REMARK    6  A    between atoms: C_11  and  C_12 
REMARK       I    between atoms: C_12  and  N_13 
REMARK    7  A    between atoms: N_13  and  C_14 
REMARK    8  A    between atoms: C_20  and  C_21 
REMARK    9  A    between atoms: C_21  and  O_22 
REMARK   10  A    between atoms: C_28  and  O_29 
ROOT
HETATM    1  C   UNL     1      18.803  50.021  47.237  1.00  0.00     0.228 C 
HETATM    2  N   UNL     1      20.170  49.772  47.862  1.00  0.00    -0.054 N 
HETATM    3  H   UNL     1      20.796  49.562  47.064  1.00  0.00     0.281 HD
HETATM    4  C   UNL     1      20.775  51.018  48.461  1.00  0.00     0.239 C 
HETATM    5  C   UNL     1      19.852  51.606  49.515  1.00  0.00     0.066 C 
HETATM    6  C   UNL     1      18.484  51.923  48.917  1.00  0.00     0.065 C 
HETATM    7  C   UNL     1      17.848  50.657  48.287  1.00  0.00     0.055 C 
HETATM    8  C   UNL     1      17.547  52.527  49.979  1.00  0.00     0.038 C 
HETATM    9  C   UNL     1      16.171  52.859  49.404  1.00  0.00     0.003 C 
HETATM   10  C   UNL     1      15.545  51.655  48.713  1.00  0.00     0.001 C 
HETATM   11  C   UNL     1      16.479  51.039  47.672  1.00  0.00     0.010 C 
ENDROOT
BRANCH   2  12
HETATM   12  C   UNL     1      20.355  48.516  48.729  1.00  0.00     0.338 C 
BRANCH  12  13
HETATM   13  C   UNL     1      21.728  47.897  48.430  1.00  0.00     0.248 C 
HETATM   14  N   UNL     1      22.541  47.743  49.530  1.00  0.00    -0.319 N 
HETATM   15  H   UNL     1      22.122  47.587  50.449  1.00  0.00     0.169 HD
HETATM   16  O   UNL     1      21.996  47.645  47.255  1.00  0.00    -0.271 OA
BRANCH  14  17
HETATM   17  C   UNL     1      23.920  47.560  49.490  1.00  0.00     0.094 A 
HETATM   18  S   UNL     1      24.945  48.865  49.148  1.00  0.00    -0.076 SA
HETATM   19  C   UNL     1      26.349  47.932  49.388  1.00  0.00    -0.012 A 
HETATM   20  C   UNL     1      27.691  48.577  49.226  1.00  0.00     0.057 C 
HETATM   21  C   UNL     1      26.055  46.618  49.725  1.00  0.00    -0.030 A 
HETATM   22  C   UNL     1      27.100  45.573  49.986  1.00  0.00     0.050 C 
HETATM   23  C   UNL     1      24.614  46.399  49.803  1.00  0.00     0.080 A 
BRANCH  23  24
HETATM   24  C   UNL     1      23.899  45.162  50.145  1.00  0.00     0.296 C 
HETATM   25  O   UNL     1      24.022  44.627  51.246  1.00  0.00    -0.259 OA
BRANCH  24  26
HETATM   26  O   UNL     1      23.100  44.696  49.151  1.00  0.00    -0.322 OA
HETATM   27  C   UNL     1      23.790  44.099  48.053  1.00  0.00     0.213 C 
ENDBRANCH  24  26
ENDBRANCH  23  24
ENDBRANCH  14  17
ENDBRANCH  12  13
ENDBRANCH   2  12
BRANCH   1  28
HETATM   28  C   UNL     1      18.302  48.793  46.489  1.00  0.00    -0.027 A 
HETATM   29  C   UNL     1      17.762  47.668  47.129  1.00  0.00     0.011 A 
HETATM   30  C   UNL     1      17.237  46.600  46.389  1.00  0.00     0.030 A 
HETATM   31  C   UNL     1      17.269  46.599  44.992  1.00  0.00     0.030 A 
HETATM   32  C   UNL     1      17.883  47.686  44.359  1.00  0.00     0.030 A 
HETATM   33  C   UNL     1      18.383  48.770  45.089  1.00  0.00     0.011 A 
BRANCH  31  34
HETATM   34  N   UNL     1      16.696  45.595  44.215  1.00  0.00    -0.382 N 
BRANCH  34  35
HETATM   35  C   UNL     1      15.632  45.939  43.260  1.00  0.00     0.118 C 
HETATM   36  C   UNL     1      14.417  46.514  43.978  1.00  0.00     0.026 C 
ENDBRANCH  34  35
BRANCH  34  37
HETATM   37  C   UNL     1      16.614  44.270  44.847  1.00  0.00     0.118 C 
HETATM   38  C   UNL     1      17.502  43.244  44.153  1.00  0.00     0.026 C 
ENDBRANCH  34  37
ENDBRANCH  31  34
ENDBRANCH   1  28
BRANCH   6  39
HETATM   39  O   UNL     1      18.702  52.882  47.876  1.00  0.00    -0.389 OA
HETATM   40  H   UNL     1      19.641  52.861  47.607  1.00  0.00     0.210 HD
ENDBRANCH   6  39
TORSDOF 10
ENDMDL
MODEL 7
REMARK VINA RESULT:      -8.1      3.101      9.191
REMARK  10 active torsions:
REMARK  status: ('A' for Active; 'I' for Inactive)
REMARK    1  A    between atoms: C_2  and  N_3 
REMARK    2  A    between atoms: N_3  and  C_4 
REMARK    3  A    between atoms: N_3  and  C_37 
REMARK    4  A    between atoms: C_7  and  C_8 
REMARK    5  A    between atoms: N_9  and  C_11 
REMARK    6  A    between atoms: C_11  and  C_12 
REMARK       I    between atoms: C_12  and  N_13 
REMARK    7  A    between atoms: N_13  and  C_14 
REMARK    8  A    between atoms: C_20  and  C_21 
REMARK    9  A    between atoms: C_21  and  O_22 
REMARK   10  A    between atoms: C_28  and  O_29 
ROOT
HETATM    1  C   UNL     1      26.188  43.923  52.357  1.00  0.00     0.228 C 
HETATM    2  N   UNL     1      26.339  42.574  51.664  1.00  0.00    -0.054 N 
HETATM    3  H   UNL     1      26.312  41.875  52.428  1.00  0.00     0.281 HD
HETATM    4  C   UNL     1      25.143  42.212  50.818  1.00  0.00     0.239 C 
HETATM    5  C   UNL     1      24.892  43.280  49.766  1.00  0.00     0.066 C 
HETATM    6  C   UNL     1      24.679  44.642  50.421  1.00  0.00     0.065 C 
HETATM    7  C   UNL     1      25.894  45.029  51.304  1.00  0.00     0.055 C 
HETATM    8  C   UNL     1      24.415  45.726  49.360  1.00  0.00     0.038 C 
HETATM    9  C   UNL     1      24.192  47.100  49.990  1.00  0.00     0.003 C 
HETATM   10  C   UNL     1      25.334  47.483  50.922  1.00  0.00     0.001 C 
HETATM   11  C   UNL     1      25.614  46.401  51.965  1.00  0.00     0.010 C 
ENDROOT
BRANCH   2  12
HETATM   12  C   UNL     1      27.687  42.244  51.003  1.00  0.00     0.338 C 
BRANCH  12  13
HETATM   13  C   UNL     1      27.564  40.912  50.248  1.00  0.00     0.248 C 
HETATM   14  N   UNL     1      28.371  40.804  49.138  1.00  0.00    -0.319 N 
HETATM   15  H   UNL     1      29.262  41.303  49.112  1.00  0.00     0.169 HD
HETATM   16  O   UNL     1      26.739  40.097  50.661  1.00  0.00    -0.271 OA
BRANCH  14  17
HETATM   17  C   UNL     1      28.193  39.892  48.102  1.00  0.00     0.094 A 
HETATM   18  S   UNL     1      27.305  40.325  46.726  1.00  0.00    -0.076 SA
HETATM   19  C   UNL     1      27.627  38.844  45.950  1.00  0.00    -0.012 A 
HETATM   20  C   UNL     1      27.074  38.601  44.580  1.00  0.00     0.057 C 
HETATM   21  C   UNL     1      28.408  38.001  46.730  1.00  0.00    -0.030 A 
HETATM   22  C   UNL     1      28.838  36.630  46.299  1.00  0.00     0.050 C 
HETATM   23  C   UNL     1      28.759  38.628  48.001  1.00  0.00     0.080 A 
BRANCH  23  24
HETATM   24  C   UNL     1      29.581  38.081  49.088  1.00  0.00     0.296 C 
HETATM   25  O   UNL     1      30.810  38.129  49.059  1.00  0.00    -0.259 OA
BRANCH  24  26
HETATM   26  O   UNL     1      28.859  37.546  50.107  1.00  0.00    -0.322 OA
HETATM   27  C   UNL     1      29.632  37.086  51.217  1.00  0.00     0.213 C 
ENDBRANCH  24  26
ENDBRANCH  23  24
ENDBRANCH  14  17
ENDBRANCH  12  13
ENDBRANCH   2  12
BRANCH   1  28
HETATM   28  C   UNL     1      27.325  44.175  53.337  1.00  0.00    -0.027 A 
HETATM   29  C   UNL     1      27.577  45.426  53.919  1.00  0.00     0.011 A 
HETATM   30  C   UNL     1      28.584  45.583  54.881  1.00  0.00     0.030 A 
HETATM   31  C   UNL     1      29.398  44.513  55.263  1.00  0.00     0.030 A 
HETATM   32  C   UNL     1      29.198  43.287  54.619  1.00  0.00     0.030 A 
HETATM   33  C   UNL     1      28.175  43.113  53.680  1.00  0.00     0.011 A 
BRANCH  31  34
HETATM   34  N   UNL     1      30.362  44.605  56.264  1.00  0.00    -0.382 N 
BRANCH  34  35
HETATM   35  C   UNL     1      30.800  43.386  56.960  1.00  0.00     0.118 C 
HETATM   36  C   UNL     1      32.317  43.245  56.918  1.00  0.00     0.026 C 
ENDBRANCH  34  35
BRANCH  34  37
HETATM   37  C   UNL     1      30.343  45.846  57.053  1.00  0.00     0.118 C 
HETATM   38  C   UNL     1      29.437  45.740  58.273  1.00  0.00     0.026 C 
ENDBRANCH  34  37
ENDBRANCH  31  34
ENDBRANCH   1  28
BRANCH   6  39
HETATM   39  O   UNL     1      23.530  44.516  51.267  1.00  0.00    -0.389 OA
HETATM   40  H   UNL     1      22.782  45.006  50.873  1.00  0.00     0.210 HD
ENDBRANCH   6  39
TORSDOF 10
ENDMDL
MODEL 8
REMARK VINA RESULT:      -8.1      3.108      8.425
REMARK  10 active torsions:
REMARK  status: ('A' for Active; 'I' for Inactive)
REMARK    1  A    between atoms: C_2  and  N_3 
REMARK    2  A    between atoms: N_3  and  C_4 
REMARK    3  A    between atoms: N_3  and  C_37 
REMARK    4  A    between atoms: C_7  and  C_8 
REMARK    5  A    between atoms: N_9  and  C_11 
REMARK    6  A    between atoms: C_11  and  C_12 
REMARK       I    between atoms: C_12  and  N_13 
REMARK    7  A    between atoms: N_13  and  C_14 
REMARK    8  A    between atoms: C_20  and  C_21 
REMARK    9  A    between atoms: C_21  and  O_22 
REMARK   10  A    between atoms: C_28  and  O_29 
ROOT
HETATM    1  C   UNL     1      26.761  43.196  52.293  1.00  0.00     0.228 C 
HETATM    2  N   UNL     1      26.055  44.393  51.668  1.00  0.00    -0.054 N 
HETATM    3  H   UNL     1      25.130  44.034  51.370  1.00  0.00     0.281 HD
HETATM    4  C   UNL     1      25.706  45.459  52.677  1.00  0.00     0.239 C 
HETATM    5  C   UNL     1      26.955  45.944  53.394  1.00  0.00     0.066 C 
HETATM    6  C   UNL     1      27.666  44.783  54.083  1.00  0.00     0.065 C 
HETATM    7  C   UNL     1      28.025  43.670  53.064  1.00  0.00     0.055 C 
HETATM    8  C   UNL     1      28.927  45.270  54.819  1.00  0.00     0.038 C 
HETATM    9  C   UNL     1      29.656  44.126  55.523  1.00  0.00     0.003 C 
HETATM   10  C   UNL     1      29.963  42.982  54.566  1.00  0.00     0.001 C 
HETATM   11  C   UNL     1      28.717  42.507  53.818  1.00  0.00     0.010 C 
ENDROOT
BRANCH   2  12
HETATM   12  C   UNL     1      26.602  44.950  50.344  1.00  0.00     0.338 C 
BRANCH  12  13
HETATM   13  C   UNL     1      25.743  46.146  49.909  1.00  0.00     0.248 C 
HETATM   14  N   UNL     1      24.389  45.898  49.873  1.00  0.00    -0.319 N 
HETATM   15  H   UNL     1      23.985  45.210  50.511  1.00  0.00     0.169 HD
HETATM   16  O   UNL     1      26.327  47.182  49.589  1.00  0.00    -0.271 OA
BRANCH  14  17
HETATM   17  C   UNL     1      23.451  46.661  49.183  1.00  0.00     0.094 A 
HETATM   18  S   UNL     1      23.469  48.350  49.305  1.00  0.00    -0.076 SA
HETATM   19  C   UNL     1      22.207  48.528  48.176  1.00  0.00    -0.012 A 
HETATM   20  C   UNL     1      21.733  49.903  47.821  1.00  0.00     0.057 C 
HETATM   21  C   UNL     1      21.754  47.305  47.698  1.00  0.00    -0.030 A 
HETATM   22  C   UNL     1      20.644  47.163  46.699  1.00  0.00     0.050 C 
HETATM   23  C   UNL     1      22.502  46.197  48.282  1.00  0.00     0.080 A 
BRANCH  23  24
HETATM   24  C   UNL     1      22.345  44.758  48.027  1.00  0.00     0.296 C 
HETATM   25  O   UNL     1      21.338  44.144  48.378  1.00  0.00    -0.259 OA
BRANCH  24  26
HETATM   26  O   UNL     1      23.393  44.200  47.367  1.00  0.00    -0.322 OA
HETATM   27  C   UNL     1      23.758  42.894  47.814  1.00  0.00     0.213 C 
ENDBRANCH  24  26
ENDBRANCH  23  24
ENDBRANCH  14  17
ENDBRANCH  12  13
ENDBRANCH   2  12
BRANCH   1  28
HETATM   28  C   UNL     1      26.939  42.068  51.286  1.00  0.00    -0.027 A 
HETATM   29  C   UNL     1      28.190  41.556  50.914  1.00  0.00     0.011 A 
HETATM   30  C   UNL     1      28.292  40.460  50.048  1.00  0.00     0.030 A 
HETATM   31  C   UNL     1      27.157  39.865  49.492  1.00  0.00     0.030 A 
HETATM   32  C   UNL     1      25.914  40.430  49.800  1.00  0.00     0.030 A 
HETATM   33  C   UNL     1      25.801  41.506  50.688  1.00  0.00     0.011 A 
BRANCH  31  34
HETATM   34  N   UNL     1      27.206  38.730  48.685  1.00  0.00    -0.382 N 
BRANCH  34  35
HETATM   35  C   UNL     1      26.792  38.826  47.277  1.00  0.00     0.118 C 
HETATM   36  C   UNL     1      27.895  39.439  46.422  1.00  0.00     0.026 C 
ENDBRANCH  34  35
BRANCH  34  37
HETATM   37  C   UNL     1      26.943  37.454  49.366  1.00  0.00     0.118 C 
HETATM   38  C   UNL     1      26.354  36.408  48.426  1.00  0.00     0.026 C 
ENDBRANCH  34  37
ENDBRANCH  31  34
ENDBRANCH   1  28
BRANCH   6  39
HETATM   39  O   UNL     1      26.742  44.240  55.034  1.00  0.00    -0.389 OA
HETATM   40  H   UNL     1      25.846  44.224  54.643  1.00  0.00     0.210 HD
ENDBRANCH   6  39
TORSDOF 10
ENDMDL
MODEL 9
REMARK VINA RESULT:      -7.9      3.200      7.838
REMARK  10 active torsions:
REMARK  status: ('A' for Active; 'I' for Inactive)
REMARK    1  A    between atoms: C_2  and  N_3 
REMARK    2  A    between atoms: N_3  and  C_4 
REMARK    3  A    between atoms: N_3  and  C_37 
REMARK    4  A    between atoms: C_7  and  C_8 
REMARK    5  A    between atoms: N_9  and  C_11 
REMARK    6  A    between atoms: C_11  and  C_12 
REMARK       I    between atoms: C_12  and  N_13 
REMARK    7  A    between atoms: N_13  and  C_14 
REMARK    8  A    between atoms: C_20  and  C_21 
REMARK    9  A    between atoms: C_21  and  O_22 
REMARK   10  A    between atoms: C_28  and  O_29 
ROOT
HETATM    1  C   UNL     1      27.663  43.703  51.290  1.00  0.00     0.228 C 
HETATM    2  N   UNL     1      27.243  42.365  50.695  1.00  0.00    -0.054 N 
HETATM    3  H   UNL     1      27.295  42.499  49.669  1.00  0.00     0.281 HD
HETATM    4  C   UNL     1      28.246  41.268  50.954  1.00  0.00     0.239 C 
HETATM    5  C   UNL     1      28.471  41.093  52.447  1.00  0.00     0.066 C 
HETATM    6  C   UNL     1      28.948  42.399  53.077  1.00  0.00     0.065 C 
HETATM    7  C   UNL     1      27.935  43.543  52.813  1.00  0.00     0.055 C 
HETATM    8  C   UNL     1      29.186  42.225  54.587  1.00  0.00     0.038 C 
HETATM    9  C   UNL     1      29.670  43.517  55.242  1.00  0.00     0.003 C 
HETATM   10  C   UNL     1      28.735  44.682  54.945  1.00  0.00     0.001 C 
HETATM   11  C   UNL     1      28.479  44.847  53.447  1.00  0.00     0.010 C 
ENDROOT
BRANCH   2  12
HETATM   12  C   UNL     1      25.781  41.920  50.866  1.00  0.00     0.338 C 
BRANCH  12  13
HETATM   13  C   UNL     1      25.135  41.774  49.482  1.00  0.00     0.248 C 
HETATM   14  N   UNL     1      25.245  40.520  48.924  1.00  0.00    -0.319 N 
HETATM   15  H   UNL     1      25.293  39.701  49.533  1.00  0.00     0.169 HD
HETATM   16  O   UNL     1      24.630  42.779  48.979  1.00  0.00    -0.271 OA
BRANCH  14  17
HETATM   17  C   UNL     1      25.083  40.224  47.574  1.00  0.00     0.094 A 
HETATM   18  S   UNL     1      23.531  40.026  46.925  1.00  0.00    -0.076 SA
HETATM   19  C   UNL     1      24.128  39.827  45.343  1.00  0.00    -0.012 A 
HETATM   20  C   UNL     1      23.163  39.605  44.220  1.00  0.00     0.057 C 
HETATM   21  C   UNL     1      25.514  39.903  45.291  1.00  0.00    -0.030 A 
HETATM   22  C   UNL     1      26.307  39.756  44.026  1.00  0.00     0.050 C 
HETATM   23  C   UNL     1      26.081  40.155  46.612  1.00  0.00     0.080 A 
BRANCH  23  24
HETATM   24  C   UNL     1      27.494  40.320  46.978  1.00  0.00     0.296 C 
HETATM   25  O   UNL     1      27.952  41.410  47.317  1.00  0.00    -0.259 OA
BRANCH  24  26
HETATM   26  O   UNL     1      28.215  39.170  46.920  1.00  0.00    -0.322 OA
HETATM   27  C   UNL     1      28.483  38.562  48.183  1.00  0.00     0.213 C 
ENDBRANCH  24  26
ENDBRANCH  23  24
ENDBRANCH  14  17
ENDBRANCH  12  13
ENDBRANCH   2  12
BRANCH   1  28
HETATM   28  C   UNL     1      26.724  44.822  50.862  1.00  0.00    -0.027 A 
HETATM   29  C   UNL     1      25.540  45.138  51.543  1.00  0.00     0.011 A 
HETATM   30  C   UNL     1      24.756  46.233  51.157  1.00  0.00     0.030 A 
HETATM   31  C   UNL     1      25.101  47.022  50.056  1.00  0.00     0.030 A 
HETATM   32  C   UNL     1      26.239  46.653  49.328  1.00  0.00     0.030 A 
HETATM   33  C   UNL     1      27.045  45.580  49.725  1.00  0.00     0.011 A 
BRANCH  31  34
HETATM   34  N   UNL     1      24.394  48.160  49.678  1.00  0.00    -0.382 N 
BRANCH  34  35
HETATM   35  C   UNL     1      22.969  48.045  49.334  1.00  0.00     0.118 C 
HETATM   36  C   UNL     1      22.719  46.847  48.426  1.00  0.00     0.026 C 
ENDBRANCH  34  35
BRANCH  34  37
HETATM   37  C   UNL     1      25.168  49.180  48.955  1.00  0.00     0.118 C 
HETATM   38  C   UNL     1      24.278  50.117  48.148  1.00  0.00     0.026 C 
ENDBRANCH  34  37
ENDBRANCH  31  34
ENDBRANCH   1  28
BRANCH   6  39
HETATM   39  O   UNL     1      30.184  42.736  52.437  1.00  0.00    -0.389 OA
HETATM   40  H   UNL     1      30.020  43.410  51.749  1.00  0.00     0.210 HD
ENDBRANCH   6  39
TORSDOF 10
ENDMDL
MODEL 10
REMARK VINA RESULT:      -7.8      3.516      7.729
REMARK  10 active torsions:
REMARK  status: ('A' for Active; 'I' for Inactive)
REMARK    1  A    between atoms: C_2  and  N_3 
REMARK    2  A    between atoms: N_3  and  C_4 
REMARK    3  A    between atoms: N_3  and  C_37 
REMARK    4  A    between atoms: C_7  and  C_8 
REMARK    5  A    between atoms: N_9  and  C_11 
REMARK    6  A    between atoms: C_11  and  C_12 
REMARK       I    between atoms: C_12  and  N_13 
REMARK    7  A    between atoms: N_13  and  C_14 
REMARK    8  A    between atoms: C_20  and  C_21 
REMARK    9  A    between atoms: C_21  and  O_22 
REMARK   10  A    between atoms: C_28  and  O_29 
ROOT
HETATM    1  C   UNL     1      25.341  43.048  48.872  1.00  0.00     0.228 C 
HETATM    2  N   UNL     1      24.061  43.532  48.202  1.00  0.00    -0.054 N 
HETATM    3  H   UNL     1      24.214  44.541  48.027  1.00  0.00     0.281 HD
HETATM    4  C   UNL     1      23.874  42.962  46.817  1.00  0.00     0.239 C 
HETATM    5  C   UNL     1      23.862  41.443  46.862  1.00  0.00     0.066 C 
HETATM    6  C   UNL     1      25.154  40.912  47.477  1.00  0.00     0.065 C 
HETATM    7  C   UNL     1      25.371  41.494  48.898  1.00  0.00     0.055 C 
HETATM    8  C   UNL     1      25.152  39.374  47.516  1.00  0.00     0.038 C 
HETATM    9  C   UNL     1      26.438  38.816  48.123  1.00  0.00     0.003 C 
HETATM   10  C   UNL     1      26.722  39.419  49.492  1.00  0.00     0.001 C 
HETATM   11  C   UNL     1      26.705  40.946  49.463  1.00  0.00     0.010 C 
ENDROOT
BRANCH   2  12
HETATM   12  C   UNL     1      22.771  43.563  49.037  1.00  0.00     0.338 C 
BRANCH  12  13
HETATM   13  C   UNL     1      22.008  44.861  48.735  1.00  0.00     0.248 C 
HETATM   14  N   UNL     1      22.777  45.867  48.195  1.00  0.00    -0.319 N 
HETATM   15  H   UNL     1      23.588  45.628  47.621  1.00  0.00     0.169 HD
HETATM   16  O   UNL     1      20.816  44.907  49.041  1.00  0.00    -0.271 OA
BRANCH  14  17
HETATM   17  C   UNL     1      22.435  47.216  48.174  1.00  0.00     0.094 A 
HETATM   18  S   UNL     1      21.005  47.722  47.422  1.00  0.00    -0.076 SA
HETATM   19  C   UNL     1      21.231  49.342  47.895  1.00  0.00    -0.012 A 
HETATM   20  C   UNL     1      20.210  50.366  47.507  1.00  0.00     0.057 C 
HETATM   21  C   UNL     1      22.399  49.518  48.624  1.00  0.00    -0.030 A 
HETATM   22  C   UNL     1      22.852  50.843  49.161  1.00  0.00     0.050 C 
HETATM   23  C   UNL     1      23.107  48.254  48.805  1.00  0.00     0.080 A 
BRANCH  23  24
HETATM   24  C   UNL     1      24.363  48.010  49.528  1.00  0.00     0.296 C 
HETATM   25  O   UNL     1      24.374  47.577  50.679  1.00  0.00    -0.259 OA
BRANCH  24  26
HETATM   26  O   UNL     1      25.478  48.292  48.804  1.00  0.00    -0.322 OA
HETATM   27  C   UNL     1      26.637  48.600  49.579  1.00  0.00     0.213 C 
ENDBRANCH  24  26
ENDBRANCH  23  24
ENDBRANCH  14  17
ENDBRANCH  12  13
ENDBRANCH   2  12
BRANCH   1  28
HETATM   28  C   UNL     1      25.589  43.774  50.187  1.00  0.00    -0.027 A 
HETATM   29  C   UNL     1      24.894  43.485  51.370  1.00  0.00     0.011 A 
HETATM   30  C   UNL     1      25.222  44.124  52.573  1.00  0.00     0.030 A 
HETATM   31  C   UNL     1      26.220  45.101  52.629  1.00  0.00     0.030 A 
HETATM   32  C   UNL     1      26.854  45.446  51.429  1.00  0.00     0.030 A 
HETATM   33  C   UNL     1      26.555  44.791  50.229  1.00  0.00     0.011 A 
BRANCH  31  34
HETATM   34  N   UNL     1      26.629  45.710  53.813  1.00  0.00    -0.382 N 
BRANCH  34  35
HETATM   35  C   UNL     1      26.091  47.032  54.168  1.00  0.00     0.118 C 
HETATM   36  C   UNL     1      26.917  47.680  55.274  1.00  0.00     0.026 C 
ENDBRANCH  34  35
BRANCH  34  37
HETATM   37  C   UNL     1      28.008  45.422  54.233  1.00  0.00     0.118 C 
HETATM   38  C   UNL     1      28.203  43.959  54.612  1.00  0.00     0.026 C 
ENDBRANCH  34  37
ENDBRANCH  31  34
ENDBRANCH   1  28
BRANCH   6  39
HETATM   39  O   UNL     1      26.224  41.364  46.638  1.00  0.00    -0.389 OA
HETATM   40  H   UNL     1      25.931  41.357  45.706  1.00  0.00     0.210 HD
ENDBRANCH   6  39
TORSDOF 10
ENDMDL
