MODEL 1
REMARK VINA RESULT:      -7.7      0.000      0.000
REMARK  9 active torsions:
REMARK  status: ('A' for Active; 'I' for Inactive)
REMARK    1  A    between atoms: C_2  and  O_3 
REMARK    2  A    between atoms: O_3  and  C_4 
REMARK    3  A    between atoms: C_4  and  C_5 
REMARK    4  A    between atoms: C_11  and  O_12 
REMARK    5  A    between atoms: C_13  and  C_14 
REMARK    6  A    between atoms: C_14  and  N_15 
REMARK    7  A    between atoms: N_22  and  C_23 
REMARK    8  A    between atoms: C_29  and  C_30 
REMARK    9  A    between atoms: C_30  and  N_31 
ROOT
HETATM    1  C   UNL     1      21.813  47.571  48.197  1.00  0.00     0.077 C 
HETATM    2  C   UNL     1      21.243  46.521  47.375  1.00  0.00     0.020 A 
HETATM    3  C   UNL     1      21.991  45.365  47.647  1.00  0.00     0.053 A 
HETATM    4  C   UNL     1      21.743  44.143  46.991  1.00  0.00     0.053 A 
HETATM    5  C   UNL     1      20.778  44.104  45.994  1.00  0.00     0.047 A 
HETATM    6 BR   UNL     1      20.503  42.480  45.058  1.00  0.00    -0.048 Br
HETATM    7  C   UNL     1      20.012  45.228  45.712  1.00  0.00     0.092 A 
HETATM    8  C   UNL     1      20.157  46.443  46.428  1.00  0.00     0.016 A 
HETATM    9  N   UNL     1      22.881  45.654  48.679  1.00  0.00    -0.312 N 
HETATM   10  C   UNL     1      22.868  47.018  48.937  1.00  0.00     0.060 C 
ENDROOT
BRANCH   8  11
HETATM   11  C   UNL     1      19.223  47.607  46.128  1.00  0.00     0.277 C 
BRANCH  11  12
HETATM   12  N   UNL     1      18.236  47.971  47.210  1.00  0.00    -0.063 N 
HETATM   13  H   UNL     1      18.815  48.380  47.965  1.00  0.00     0.280 HD
HETATM   14  C   UNL     1      17.231  49.031  46.790  1.00  0.00     0.261 C 
HETATM   15  C   UNL     1      16.308  49.356  47.969  1.00  0.00     0.195 C 
HETATM   16  O   UNL     1      15.644  48.175  48.432  1.00  0.00    -0.388 OA
HETATM   17  C   UNL     1      16.575  47.194  48.902  1.00  0.00     0.195 C 
HETATM   18  C   UNL     1      17.523  46.755  47.780  1.00  0.00     0.261 C 
ENDBRANCH  11  12
ENDBRANCH   8  11
BRANCH   7  19
HETATM   19  O   UNL     1      19.059  45.171  44.716  1.00  0.00    -0.359 OA
HETATM   20  H   UNL     1      19.343  45.801  44.013  1.00  0.00     0.218 HD
ENDBRANCH   7  19
BRANCH   1  21
HETATM   21  C   UNL     1      21.419  48.984  48.219  1.00  0.00     0.296 C 
HETATM   22  O   UNL     1      21.956  49.825  47.511  1.00  0.00    -0.259 OA
BRANCH  21  23
HETATM   23  O   UNL     1      20.395  49.229  49.079  1.00  0.00    -0.318 OA
BRANCH  23  24
HETATM   24  C   UNL     1      20.492  50.442  49.850  1.00  0.00     0.174 C 
HETATM   25  C   UNL     1      19.545  51.489  49.297  1.00  0.00     0.034 C 
ENDBRANCH  23  24
ENDBRANCH  21  23
ENDBRANCH   1  21
BRANCH  10  26
HETATM   26  C   UNL     1      23.858  47.713  49.838  1.00  0.00     0.293 C 
BRANCH  26  27
HETATM   27  N   UNL     1      25.133  48.211  49.191  1.00  0.00    -0.066 N 
HETATM   28  H   UNL     1      25.288  47.662  48.336  1.00  0.00     0.280 HD
HETATM   29  C   UNL     1      25.087  49.666  48.790  1.00  0.00     0.235 C 
HETATM   30  C   UNL     1      26.358  50.020  48.029  1.00  0.00     0.028 C 
HETATM   31  C   UNL     1      27.610  49.710  48.841  1.00  0.00     0.003 C 
HETATM   32  C   UNL     1      27.612  48.263  49.320  1.00  0.00     0.028 C 
HETATM   33  C   UNL     1      26.335  47.918  50.071  1.00  0.00     0.235 C 
ENDBRANCH  26  27
ENDBRANCH  10  26
BRANCH   9  34
HETATM   34  C   UNL     1      23.727  44.710  49.317  1.00  0.00     0.040 A 
HETATM   35  C   UNL     1      23.207  43.860  50.300  1.00  0.00     0.030 A 
HETATM   36  C   UNL     1      24.024  42.879  50.860  1.00  0.00     0.002 A 
HETATM   37  C   UNL     1      25.350  42.750  50.446  1.00  0.00     0.000 A 
HETATM   38  C   UNL     1      25.869  43.606  49.475  1.00  0.00     0.002 A 
HETATM   39  C   UNL     1      25.061  44.588  48.904  1.00  0.00     0.030 A 
ENDBRANCH   9  34
TORSDOF 9
ENDMDL
MODEL 2
REMARK VINA RESULT:      -7.5      3.555      7.109
REMARK  9 active torsions:
REMARK  status: ('A' for Active; 'I' for Inactive)
REMARK    1  A    between atoms: C_2  and  O_3 
REMARK    2  A    between atoms: O_3  and  C_4 
REMARK    3  A    between atoms: C_4  and  C_5 
REMARK    4  A    between atoms: C_11  and  O_12 
REMARK    5  A    between atoms: C_13  and  C_14 
REMARK    6  A    between atoms: C_14  and  N_15 
REMARK    7  A    between atoms: N_22  and  C_23 
REMARK    8  A    between atoms: C_29  and  C_30 
REMARK    9  A    between atoms: C_30  and  N_31 
ROOT
HETATM    1  C   UNL     1      24.346  46.121  49.593  1.00  0.00     0.077 C 
HETATM    2  C   UNL     1      24.959  44.821  49.404  1.00  0.00     0.020 A 
HETATM    3  C   UNL     1      24.128  44.125  48.513  1.00  0.00     0.053 A 
HETATM    4  C   UNL     1      24.393  42.796  48.126  1.00  0.00     0.053 A 
HETATM    5  C   UNL     1      25.468  42.134  48.702  1.00  0.00     0.047 A 
HETATM    6 BR   UNL     1      25.775  40.323  48.242  1.00  0.00    -0.048 Br
HETATM    7  C   UNL     1      26.317  42.801  49.578  1.00  0.00     0.092 A 
HETATM    8  C   UNL     1      26.146  44.171  49.903  1.00  0.00     0.016 A 
HETATM    9  N   UNL     1      23.135  44.996  48.071  1.00  0.00    -0.312 N 
HETATM   10  C   UNL     1      23.183  46.170  48.811  1.00  0.00     0.060 C 
ENDROOT
BRANCH   8  11
HETATM   11  C   UNL     1      27.166  44.862  50.798  1.00  0.00     0.277 C 
BRANCH  11  12
HETATM   12  N   UNL     1      26.927  44.764  52.286  1.00  0.00    -0.063 N 
HETATM   13  H   UNL     1      26.871  45.747  52.606  1.00  0.00     0.280 HD
HETATM   14  C   UNL     1      25.611  44.098  52.651  1.00  0.00     0.261 C 
HETATM   15  C   UNL     1      25.448  44.090  54.175  1.00  0.00     0.195 C 
HETATM   16  O   UNL     1      26.550  43.422  54.797  1.00  0.00    -0.388 OA
HETATM   17  C   UNL     1      27.792  44.082  54.524  1.00  0.00     0.195 C 
HETATM   18  C   UNL     1      28.082  44.103  53.019  1.00  0.00     0.261 C 
ENDBRANCH  11  12
ENDBRANCH   8  11
BRANCH   7  19
HETATM   19  O   UNL     1      27.380  42.127  50.142  1.00  0.00    -0.359 OA
HETATM   20  H   UNL     1      27.095  41.190  50.256  1.00  0.00     0.218 HD
ENDBRANCH   7  19
BRANCH   1  21
HETATM   21  C   UNL     1      24.803  47.189  50.490  1.00  0.00     0.296 C 
HETATM   22  O   UNL     1      24.736  47.095  51.707  1.00  0.00    -0.259 OA
BRANCH  21  23
HETATM   23  O   UNL     1      25.320  48.251  49.818  1.00  0.00    -0.318 OA
BRANCH  23  24
HETATM   24  C   UNL     1      26.740  48.217  49.575  1.00  0.00     0.174 C 
HETATM   25  C   UNL     1      27.168  49.457  48.814  1.00  0.00     0.034 C 
ENDBRANCH  23  24
ENDBRANCH  21  23
ENDBRANCH   1  21
BRANCH  10  26
HETATM   26  C   UNL     1      22.127  47.246  48.752  1.00  0.00     0.293 C 
BRANCH  26  27
HETATM   27  N   UNL     1      22.604  48.675  48.912  1.00  0.00    -0.066 N 
HETATM   28  H   UNL     1      23.382  48.675  49.584  1.00  0.00     0.280 HD
HETATM   29  C   UNL     1      23.113  49.295  47.632  1.00  0.00     0.235 C 
HETATM   30  C   UNL     1      23.692  50.670  47.935  1.00  0.00     0.028 C 
HETATM   31  C   UNL     1      22.674  51.575  48.620  1.00  0.00     0.003 C 
HETATM   32  C   UNL     1      22.095  50.910  49.863  1.00  0.00     0.028 C 
HETATM   33  C   UNL     1      21.528  49.533  49.552  1.00  0.00     0.235 C 
ENDBRANCH  26  27
ENDBRANCH  10  26
BRANCH   9  34
HETATM   34  C   UNL     1      22.172  44.700  47.071  1.00  0.00     0.040 A 
HETATM   35  C   UNL     1      22.483  44.906  45.722  1.00  0.00     0.030 A 
HETATM   36  C   UNL     1      21.564  44.531  44.742  1.00  0.00     0.002 A 
HETATM   37  C   UNL     1      20.343  43.962  45.107  1.00  0.00     0.000 A 
HETATM   38  C   UNL     1      20.032  43.769  46.453  1.00  0.00     0.002 A 
HETATM   39  C   UNL     1      20.944  44.134  47.441  1.00  0.00     0.030 A 
ENDBRANCH   9  34
TORSDOF 9
ENDMDL
MODEL 3
REMARK VINA RESULT:      -7.4      3.368      8.214
REMARK  9 active torsions:
REMARK  status: ('A' for Active; 'I' for Inactive)
REMARK    1  A    between atoms: C_2  and  O_3 
REMARK    2  A    between atoms: O_3  and  C_4 
REMARK    3  A    between atoms: C_4  and  C_5 
REMARK    4  A    between atoms: C_11  and  O_12 
REMARK    5  A    between atoms: C_13  and  C_14 
REMARK    6  A    between atoms: C_14  and  N_15 
REMARK    7  A    between atoms: N_22  and  C_23 
REMARK    8  A    between atoms: C_29  and  C_30 
REMARK    9  A    between atoms: C_30  and  N_31 
ROOT
HETATM    1  C   UNL     1      22.177  45.794  49.106  1.00  0.00     0.077 C 
HETATM    2  C   UNL     1      23.438  46.508  49.175  1.00  0.00     0.020 A 
HETATM    3  C   UNL     1      23.132  47.860  48.951  1.00  0.00     0.053 A 
HETATM    4  C   UNL     1      24.129  48.854  48.907  1.00  0.00     0.053 A 
HETATM    5  C   UNL     1      25.459  48.472  49.013  1.00  0.00     0.047 A 
HETATM    6 BR   UNL     1      26.802  49.800  48.872  1.00  0.00    -0.048 Br
HETATM    7  C   UNL     1      25.792  47.143  49.248  1.00  0.00     0.092 A 
HETATM    8  C   UNL     1      24.810  46.133  49.410  1.00  0.00     0.016 A 
HETATM    9  N   UNL     1      21.746  47.988  48.886  1.00  0.00    -0.312 N 
HETATM   10  C   UNL     1      21.162  46.729  48.855  1.00  0.00     0.060 C 
ENDROOT
BRANCH   8  11
HETATM   11  C   UNL     1      25.243  44.715  49.755  1.00  0.00     0.277 C 
BRANCH  11  12
HETATM   12  N   UNL     1      26.057  44.550  51.017  1.00  0.00    -0.063 N 
HETATM   13  H   UNL     1      26.440  45.494  51.205  1.00  0.00     0.280 HD
HETATM   14  C   UNL     1      25.231  44.152  52.229  1.00  0.00     0.261 C 
HETATM   15  C   UNL     1      26.141  44.055  53.458  1.00  0.00     0.195 C 
HETATM   16  O   UNL     1      27.201  43.120  53.230  1.00  0.00    -0.388 OA
HETATM   17  C   UNL     1      28.034  43.520  52.136  1.00  0.00     0.195 C 
HETATM   18  C   UNL     1      27.229  43.601  50.834  1.00  0.00     0.261 C 
ENDBRANCH  11  12
ENDBRANCH   8  11
BRANCH   7  19
HETATM   19  O   UNL     1      27.120  46.781  49.350  1.00  0.00    -0.359 OA
HETATM   20  H   UNL     1      27.148  45.944  49.868  1.00  0.00     0.218 HD
ENDBRANCH   7  19
BRANCH   1  21
HETATM   21  C   UNL     1      21.979  44.344  49.207  1.00  0.00     0.296 C 
HETATM   22  O   UNL     1      22.043  43.747  50.273  1.00  0.00    -0.259 OA
BRANCH  21  23
HETATM   23  O   UNL     1      21.698  43.769  48.008  1.00  0.00    -0.318 OA
BRANCH  23  24
HETATM   24  C   UNL     1      22.816  43.193  47.304  1.00  0.00     0.174 C 
HETATM   25  C   UNL     1      23.115  43.998  46.053  1.00  0.00     0.034 C 
ENDBRANCH  23  24
ENDBRANCH  21  23
ENDBRANCH   1  21
BRANCH  10  26
HETATM   26  C   UNL     1      19.701  46.486  48.571  1.00  0.00     0.293 C 
BRANCH  26  27
HETATM   27  N   UNL     1      19.375  45.682  47.330  1.00  0.00    -0.066 N 
HETATM   28  H   UNL     1      19.822  44.761  47.424  1.00  0.00     0.280 HD
HETATM   29  C   UNL     1      17.898  45.446  47.125  1.00  0.00     0.235 C 
HETATM   30  C   UNL     1      17.696  44.516  45.936  1.00  0.00     0.028 C 
HETATM   31  C   UNL     1      18.348  45.064  44.672  1.00  0.00     0.003 C 
HETATM   32  C   UNL     1      19.819  45.384  44.906  1.00  0.00     0.028 C 
HETATM   33  C   UNL     1      20.011  46.306  46.101  1.00  0.00     0.235 C 
ENDBRANCH  26  27
ENDBRANCH  10  26
BRANCH   9  34
HETATM   34  C   UNL     1      21.043  49.217  48.789  1.00  0.00     0.040 A 
HETATM   35  C   UNL     1      20.786  49.966  49.943  1.00  0.00     0.030 A 
HETATM   36  C   UNL     1      20.171  51.213  49.829  1.00  0.00     0.002 A 
HETATM   37  C   UNL     1      19.811  51.704  48.573  1.00  0.00     0.000 A 
HETATM   38  C   UNL     1      20.058  50.950  47.426  1.00  0.00     0.002 A 
HETATM   39  C   UNL     1      20.676  49.705  47.527  1.00  0.00     0.030 A 
ENDBRANCH   9  34
TORSDOF 9
ENDMDL
MODEL 4
REMARK VINA RESULT:      -7.4      2.650      4.578
REMARK  9 active torsions:
REMARK  status: ('A' for Active; 'I' for Inactive)
REMARK    1  A    between atoms: C_2  and  O_3 
REMARK    2  A    between atoms: O_3  and  C_4 
REMARK    3  A    between atoms: C_4  and  C_5 
REMARK    4  A    between atoms: C_11  and  O_12 
REMARK    5  A    between atoms: C_13  and  C_14 
REMARK    6  A    between atoms: C_14  and  N_15 
REMARK    7  A    between atoms: N_22  and  C_23 
REMARK    8  A    between atoms: C_29  and  C_30 
REMARK    9  A    between atoms: C_30  and  N_31 
ROOT
HETATM    1  C   UNL     1      24.946  45.868  49.692  1.00  0.00     0.077 C 
HETATM    2  C   UNL     1      23.877  45.350  48.860  1.00  0.00     0.020 A 
HETATM    3  C   UNL     1      24.205  44.013  48.592  1.00  0.00     0.053 A 
HETATM    4  C   UNL     1      23.403  43.197  47.769  1.00  0.00     0.053 A 
HETATM    5  C   UNL     1      22.296  43.757  47.148  1.00  0.00     0.047 A 
HETATM    6 BR   UNL     1      21.266  42.680  45.979  1.00  0.00    -0.048 Br
HETATM    7  C   UNL     1      21.938  45.075  47.405  1.00  0.00     0.092 A 
HETATM    8  C   UNL     1      22.657  45.893  48.313  1.00  0.00     0.016 A 
HETATM    9  N   UNL     1      25.341  43.686  49.330  1.00  0.00    -0.312 N 
HETATM   10  C   UNL     1      25.870  44.834  49.903  1.00  0.00     0.060 C 
ENDROOT
BRANCH   8  11
HETATM   11  C   UNL     1      22.156  47.298  48.615  1.00  0.00     0.277 C 
BRANCH  11  12
HETATM   12  N   UNL     1      20.732  47.603  48.215  1.00  0.00    -0.063 N 
HETATM   13  H   UNL     1      20.477  46.843  47.560  1.00  0.00     0.280 HD
HETATM   14  C   UNL     1      19.747  47.550  49.370  1.00  0.00     0.261 C 
HETATM   15  C   UNL     1      18.333  47.830  48.850  1.00  0.00     0.195 C 
HETATM   16  O   UNL     1      18.280  49.099  48.189  1.00  0.00    -0.388 OA
HETATM   17  C   UNL     1      19.149  49.140  47.052  1.00  0.00     0.195 C 
HETATM   18  C   UNL     1      20.607  48.920  47.467  1.00  0.00     0.261 C 
ENDBRANCH  11  12
ENDBRANCH   8  11
BRANCH   7  19
HETATM   19  O   UNL     1      20.834  45.616  46.776  1.00  0.00    -0.359 OA
HETATM   20  H   UNL     1      21.036  46.568  46.618  1.00  0.00     0.218 HD
ENDBRANCH   7  19
BRANCH   1  21
HETATM   21  C   UNL     1      25.095  47.243  50.180  1.00  0.00     0.296 C 
HETATM   22  O   UNL     1      24.821  47.564  51.329  1.00  0.00    -0.259 OA
BRANCH  21  23
HETATM   23  O   UNL     1      25.587  48.085  49.233  1.00  0.00    -0.318 OA
BRANCH  23  24
HETATM   24  C   UNL     1      26.984  48.418  49.345  1.00  0.00     0.174 C 
HETATM   25  C   UNL     1      27.243  49.788  48.748  1.00  0.00     0.034 C 
ENDBRANCH  23  24
ENDBRANCH  21  23
ENDBRANCH   1  21
BRANCH  10  26
HETATM   26  C   UNL     1      27.212  44.891  50.589  1.00  0.00     0.293 C 
BRANCH  26  27
HETATM   27  N   UNL     1      27.221  44.644  52.084  1.00  0.00    -0.066 N 
HETATM   28  H   UNL     1      27.637  45.468  52.537  1.00  0.00     0.280 HD
HETATM   29  C   UNL     1      25.847  44.448  52.679  1.00  0.00     0.235 C 
HETATM   30  C   UNL     1      25.964  44.349  54.194  1.00  0.00     0.028 C 
HETATM   31  C   UNL     1      26.914  43.234  54.618  1.00  0.00     0.003 C 
HETATM   32  C   UNL     1      28.274  43.385  53.946  1.00  0.00     0.028 C 
HETATM   33  C   UNL     1      28.146  43.492  52.434  1.00  0.00     0.235 C 
ENDBRANCH  26  27
ENDBRANCH  10  26
BRANCH   9  34
HETATM   34  C   UNL     1      25.913  42.391  49.418  1.00  0.00     0.040 A 
HETATM   35  C   UNL     1      26.865  41.983  48.476  1.00  0.00     0.030 A 
HETATM   36  C   UNL     1      27.485  40.743  48.620  1.00  0.00     0.002 A 
HETATM   37  C   UNL     1      27.153  39.914  49.692  1.00  0.00     0.000 A 
HETATM   38  C   UNL     1      26.196  40.317  50.623  1.00  0.00     0.002 A 
HETATM   39  C   UNL     1      25.573  41.557  50.492  1.00  0.00     0.030 A 
ENDBRANCH   9  34
TORSDOF 9
ENDMDL
MODEL 5
REMARK VINA RESULT:      -7.2      3.611      8.354
REMARK  9 active torsions:
REMARK  status: ('A' for Active; 'I' for Inactive)
REMARK    1  A    between atoms: C_2  and  O_3 
REMARK    2  A    between atoms: O_3  and  C_4 
REMARK    3  A    between atoms: C_4  and  C_5 
REMARK    4  A    between atoms: C_11  and  O_12 
REMARK    5  A    between atoms: C_13  and  C_14 
REMARK    6  A    between atoms: C_14  and  N_15 
REMARK    7  A    between atoms: N_22  and  C_23 
REMARK    8  A    between atoms: C_29  and  C_30 
REMARK    9  A    between atoms: C_30  and  N_31 
ROOT
HETATM    1  C   UNL     1      22.909  44.897  48.250  1.00  0.00     0.077 C 
HETATM    2  C   UNL     1      23.739  45.116  49.420  1.00  0.00     0.020 A 
HETATM    3  C   UNL     1      23.738  46.502  49.643  1.00  0.00     0.053 A 
HETATM    4  C   UNL     1      24.481  47.091  50.685  1.00  0.00     0.053 A 
HETATM    5  C   UNL     1      25.294  46.282  51.466  1.00  0.00     0.047 A 
HETATM    6 BR   UNL     1      26.354  47.087  52.815  1.00  0.00    -0.048 Br
HETATM    7  C   UNL     1      25.306  44.905  51.278  1.00  0.00     0.092 A 
HETATM    8  C   UNL     1      24.487  44.266  50.313  1.00  0.00     0.016 A 
HETATM    9  N   UNL     1      22.848  47.088  48.745  1.00  0.00    -0.312 N 
HETATM   10  C   UNL     1      22.434  46.143  47.817  1.00  0.00     0.060 C 
ENDROOT
BRANCH   8  11
HETATM   11  C   UNL     1      24.482  42.746  50.222  1.00  0.00     0.277 C 
BRANCH  11  12
HETATM   12  N   UNL     1      25.807  42.089  49.914  1.00  0.00    -0.063 N 
HETATM   13  H   UNL     1      26.516  42.798  50.172  1.00  0.00     0.280 HD
HETATM   14  C   UNL     1      26.085  40.852  50.751  1.00  0.00     0.261 C 
HETATM   15  C   UNL     1      27.465  40.291  50.392  1.00  0.00     0.195 C 
HETATM   16  O   UNL     1      27.541  39.992  48.994  1.00  0.00    -0.388 OA
HETATM   17  C   UNL     1      27.355  41.163  48.191  1.00  0.00     0.195 C 
HETATM   18  C   UNL     1      25.975  41.782  48.435  1.00  0.00     0.261 C 
ENDBRANCH  11  12
ENDBRANCH   8  11
BRANCH   7  19
HETATM   19  O   UNL     1      26.122  44.117  52.063  1.00  0.00    -0.359 OA
HETATM   20  H   UNL     1      25.703  43.225  52.103  1.00  0.00     0.218 HD
ENDBRANCH   7  19
BRANCH   1  21
HETATM   21  C   UNL     1      22.654  43.618  47.579  1.00  0.00     0.296 C 
HETATM   22  O   UNL     1      21.723  42.888  47.891  1.00  0.00    -0.259 OA
BRANCH  21  23
HETATM   23  O   UNL     1      23.538  43.367  46.577  1.00  0.00    -0.318 OA
BRANCH  23  24
HETATM   24  C   UNL     1      22.973  43.189  45.263  1.00  0.00     0.174 C 
HETATM   25  C   UNL     1      23.525  44.233  44.312  1.00  0.00     0.034 C 
ENDBRANCH  23  24
ENDBRANCH  21  23
ENDBRANCH   1  21
BRANCH  10  26
HETATM   26  C   UNL     1      21.640  46.474  46.577  1.00  0.00     0.293 C 
BRANCH  26  27
HETATM   27  N   UNL     1      20.136  46.334  46.676  1.00  0.00    -0.066 N 
HETATM   28  H   UNL     1      19.836  45.645  45.974  1.00  0.00     0.280 HD
HETATM   29  C   UNL     1      19.655  45.844  48.021  1.00  0.00     0.235 C 
HETATM   30  C   UNL     1      18.152  45.608  47.964  1.00  0.00     0.028 C 
HETATM   31  C   UNL     1      17.398  46.860  47.530  1.00  0.00     0.003 C 
HETATM   32  C   UNL     1      17.944  47.404  46.216  1.00  0.00     0.028 C 
HETATM   33  C   UNL     1      19.447  47.627  46.280  1.00  0.00     0.235 C 
ENDBRANCH  26  27
ENDBRANCH  10  26
BRANCH   9  34
HETATM   34  C   UNL     1      22.482  48.459  48.736  1.00  0.00     0.040 A 
HETATM   35  C   UNL     1      23.329  49.403  48.144  1.00  0.00     0.030 A 
HETATM   36  C   UNL     1      22.922  50.734  48.062  1.00  0.00     0.002 A 
HETATM   37  C   UNL     1      21.682  51.120  48.572  1.00  0.00     0.000 A 
HETATM   38  C   UNL     1      20.845  50.180  49.172  1.00  0.00     0.002 A 
HETATM   39  C   UNL     1      21.239  48.846  49.255  1.00  0.00     0.030 A 
ENDBRANCH   9  34
TORSDOF 9
ENDMDL
MODEL 6
REMARK VINA RESULT:      -7.1      2.056      6.991
REMARK  9 active torsions:
REMARK  status: ('A' for Active; 'I' for Inactive)
REMARK    1  A    between atoms: C_2  and  O_3 
REMARK    2  A    between atoms: O_3  and  C_4 
REMARK    3  A    between atoms: C_4  and  C_5 
REMARK    4  A    between atoms: C_11  and  O_12 
REMARK    5  A    between atoms: C_13  and  C_14 
REMARK    6  A    between atoms: C_14  and  N_15 
REMARK    7  A    between atoms: N_22  and  C_23 
REMARK    8  A    between atoms: C_29  and  C_30 
REMARK    9  A    between atoms: C_30  and  N_31 
ROOT
HETATM    1  C   UNL     1      21.275  47.940  47.694  1.00  0.00     0.077 C 
HETATM    2  C   UNL     1      22.054  46.793  48.119  1.00  0.00     0.020 A 
HETATM    3  C   UNL     1      21.525  45.688  47.435  1.00  0.00     0.053 A 
HETATM    4  C   UNL     1      22.015  44.382  47.633  1.00  0.00     0.053 A 
HETATM    5  C   UNL     1      23.000  44.175  48.588  1.00  0.00     0.047 A 
HETATM    6 BR   UNL     1      23.599  42.407  48.910  1.00  0.00    -0.048 Br
HETATM    7  C   UNL     1      23.552  45.251  49.273  1.00  0.00     0.092 A 
HETATM    8  C   UNL     1      23.163  46.591  49.020  1.00  0.00     0.016 A 
HETATM    9  N   UNL     1      20.566  46.150  46.536  1.00  0.00    -0.312 N 
HETATM   10  C   UNL     1      20.318  47.495  46.770  1.00  0.00     0.060 C 
ENDROOT
BRANCH   8  11
HETATM   11  C   UNL     1      23.873  47.728  49.741  1.00  0.00     0.277 C 
BRANCH  11  12
HETATM   12  N   UNL     1      25.151  48.228  49.109  1.00  0.00    -0.063 N 
HETATM   13  H   UNL     1      25.272  47.640  48.266  1.00  0.00     0.280 HD
HETATM   14  C   UNL     1      25.076  49.672  48.642  1.00  0.00     0.261 C 
HETATM   15  C   UNL     1      26.402  50.064  47.981  1.00  0.00     0.195 C 
HETATM   16  O   UNL     1      27.494  49.873  48.886  1.00  0.00    -0.388 OA
HETATM   17  C   UNL     1      27.624  48.502  49.278  1.00  0.00     0.195 C 
HETATM   18  C   UNL     1      26.363  48.016  50.001  1.00  0.00     0.261 C 
ENDBRANCH  11  12
ENDBRANCH   8  11
BRANCH   7  19
HETATM   19  O   UNL     1      24.529  45.026  50.221  1.00  0.00    -0.359 OA
HETATM   20  H   UNL     1      24.133  45.248  51.096  1.00  0.00     0.218 HD
ENDBRANCH   7  19
BRANCH   1  21
HETATM   21  C   UNL     1      21.398  49.318  48.181  1.00  0.00     0.296 C 
HETATM   22  O   UNL     1      21.964  50.191  47.538  1.00  0.00    -0.259 OA
BRANCH  21  23
HETATM   23  O   UNL     1      20.799  49.504  49.387  1.00  0.00    -0.318 OA
BRANCH  23  24
HETATM   24  C   UNL     1      20.752  50.861  49.869  1.00  0.00     0.174 C 
HETATM   25  C   UNL     1      19.422  51.496  49.511  1.00  0.00     0.034 C 
ENDBRANCH  23  24
ENDBRANCH  21  23
ENDBRANCH   1  21
BRANCH  10  26
HETATM   26  C   UNL     1      19.190  48.267  46.131  1.00  0.00     0.293 C 
BRANCH  26  27
HETATM   27  N   UNL     1      18.067  48.709  47.046  1.00  0.00    -0.066 N 
HETATM   28  H   UNL     1      18.486  49.032  47.927  1.00  0.00     0.280 HD
HETATM   29  C   UNL     1      17.243  49.849  46.494  1.00  0.00     0.235 C 
HETATM   30  C   UNL     1      16.240  50.301  47.547  1.00  0.00     0.028 C 
HETATM   31  C   UNL     1      15.352  49.153  48.014  1.00  0.00     0.003 C 
HETATM   32  C   UNL     1      16.187  47.970  48.488  1.00  0.00     0.028 C 
HETATM   33  C   UNL     1      17.191  47.531  47.433  1.00  0.00     0.235 C 
ENDBRANCH  26  27
ENDBRANCH  10  26
BRANCH   9  34
HETATM   34  C   UNL     1      19.891  45.349  45.578  1.00  0.00     0.040 A 
HETATM   35  C   UNL     1      18.769  44.603  45.960  1.00  0.00     0.030 A 
HETATM   36  C   UNL     1      18.061  43.888  44.995  1.00  0.00     0.002 A 
HETATM   37  C   UNL     1      18.472  43.912  43.662  1.00  0.00     0.000 A 
HETATM   38  C   UNL     1      19.597  44.647  43.287  1.00  0.00     0.002 A 
HETATM   39  C   UNL     1      20.310  45.370  44.241  1.00  0.00     0.030 A 
ENDBRANCH   9  34
TORSDOF 9
ENDMDL
MODEL 7
REMARK VINA RESULT:      -7.1      3.111      7.424
REMARK  9 active torsions:
REMARK  status: ('A' for Active; 'I' for Inactive)
REMARK    1  A    between atoms: C_2  and  O_3 
REMARK    2  A    between atoms: O_3  and  C_4 
REMARK    3  A    between atoms: C_4  and  C_5 
REMARK    4  A    between atoms: C_11  and  O_12 
REMARK    5  A    between atoms: C_13  and  C_14 
REMARK    6  A    between atoms: C_14  and  N_15 
REMARK    7  A    between atoms: N_22  and  C_23 
REMARK    8  A    between atoms: C_29  and  C_30 
REMARK    9  A    between atoms: C_30  and  N_31 
ROOT
HETATM    1  C   UNL     1      23.694  46.808  49.241  1.00  0.00     0.077 C 
HETATM    2  C   UNL     1      23.843  45.388  48.983  1.00  0.00     0.020 A 
HETATM    3  C   UNL     1      22.690  44.997  48.286  1.00  0.00     0.053 A 
HETATM    4  C   UNL     1      22.468  43.660  47.899  1.00  0.00     0.053 A 
HETATM    5  C   UNL     1      23.384  42.692  48.286  1.00  0.00     0.047 A 
HETATM    6 BR   UNL     1      23.042  40.884  47.835  1.00  0.00    -0.048 Br
HETATM    7  C   UNL     1      24.541  43.051  48.966  1.00  0.00     0.092 A 
HETATM    8  C   UNL     1      24.852  44.399  49.273  1.00  0.00     0.016 A 
HETATM    9  N   UNL     1      21.939  46.138  48.009  1.00  0.00    -0.312 N 
HETATM   10  C   UNL     1      22.474  47.223  48.689  1.00  0.00     0.060 C 
ENDROOT
BRANCH   8  11
HETATM   11  C   UNL     1      26.181  44.730  49.940  1.00  0.00     0.277 C 
BRANCH  11  12
HETATM   12  N   UNL     1      26.448  44.063  51.268  1.00  0.00    -0.063 N 
HETATM   13  H   UNL     1      26.042  43.115  51.170  1.00  0.00     0.280 HD
HETATM   14  C   UNL     1      27.926  43.887  51.577  1.00  0.00     0.261 C 
HETATM   15  C   UNL     1      28.085  43.165  52.919  1.00  0.00     0.195 C 
HETATM   16  O   UNL     1      27.425  43.889  53.964  1.00  0.00    -0.388 OA
HETATM   17  C   UNL     1      26.017  43.998  53.724  1.00  0.00     0.195 C 
HETATM   18  C   UNL     1      25.740  44.755  52.420  1.00  0.00     0.261 C 
ENDBRANCH  11  12
ENDBRANCH   8  11
BRANCH   7  19
HETATM   19  O   UNL     1      25.440  42.074  49.344  1.00  0.00    -0.359 OA
HETATM   20  H   UNL     1      25.283  41.300  48.755  1.00  0.00     0.218 HD
ENDBRANCH   7  19
BRANCH   1  21
HETATM   21  C   UNL     1      24.609  47.665  50.003  1.00  0.00     0.296 C 
HETATM   22  O   UNL     1      24.656  47.651  51.225  1.00  0.00    -0.259 OA
BRANCH  21  23
HETATM   23  O   UNL     1      25.394  48.434  49.202  1.00  0.00    -0.318 OA
BRANCH  23  24
HETATM   24  C   UNL     1      26.816  48.302  49.394  1.00  0.00     0.174 C 
HETATM   25  C   UNL     1      27.525  49.557  48.922  1.00  0.00     0.034 C 
ENDBRANCH  23  24
ENDBRANCH  21  23
ENDBRANCH   1  21
BRANCH  10  26
HETATM   26  C   UNL     1      21.797  48.567  48.794  1.00  0.00     0.293 C 
BRANCH  26  27
HETATM   27  N   UNL     1      20.292  48.584  48.628  1.00  0.00    -0.066 N 
HETATM   28  H   UNL     1      20.012  47.694  48.195  1.00  0.00     0.280 HD
HETATM   29  C   UNL     1      19.536  48.709  49.929  1.00  0.00     0.235 C 
HETATM   30  C   UNL     1      18.043  48.575  49.660  1.00  0.00     0.028 C 
HETATM   31  C   UNL     1      17.558  49.598  48.638  1.00  0.00     0.003 C 
HETATM   32  C   UNL     1      18.380  49.529  47.357  1.00  0.00     0.028 C 
HETATM   33  C   UNL     1      19.870  49.655  47.638  1.00  0.00     0.235 C 
ENDBRANCH  26  27
ENDBRANCH  10  26
BRANCH   9  34
HETATM   34  C   UNL     1      20.762  46.169  47.216  1.00  0.00     0.040 A 
HETATM   35  C   UNL     1      20.835  46.568  45.877  1.00  0.00     0.030 A 
HETATM   36  C   UNL     1      19.691  46.514  45.082  1.00  0.00     0.002 A 
HETATM   37  C   UNL     1      18.483  46.072  45.622  1.00  0.00     0.000 A 
HETATM   38  C   UNL     1      18.410  45.686  46.961  1.00  0.00     0.002 A 
HETATM   39  C   UNL     1      19.549  45.731  47.764  1.00  0.00     0.030 A 
ENDBRANCH   9  34
TORSDOF 9
ENDMDL
MODEL 8
REMARK VINA RESULT:      -7.0      3.333      5.543
REMARK  9 active torsions:
REMARK  status: ('A' for Active; 'I' for Inactive)
REMARK    1  A    between atoms: C_2  and  O_3 
REMARK    2  A    between atoms: O_3  and  C_4 
REMARK    3  A    between atoms: C_4  and  C_5 
REMARK    4  A    between atoms: C_11  and  O_12 
REMARK    5  A    between atoms: C_13  and  C_14 
REMARK    6  A    between atoms: C_14  and  N_15 
REMARK    7  A    between atoms: N_22  and  C_23 
REMARK    8  A    between atoms: C_29  and  C_30 
REMARK    9  A    between atoms: C_30  and  N_31 
ROOT
HETATM    1  C   UNL     1      24.787  43.799  49.694  1.00  0.00     0.077 C 
HETATM    2  C   UNL     1      23.813  43.280  48.753  1.00  0.00     0.020 A 
HETATM    3  C   UNL     1      24.445  42.223  48.081  1.00  0.00     0.053 A 
HETATM    4  C   UNL     1      23.805  41.501  47.054  1.00  0.00     0.053 A 
HETATM    5  C   UNL     1      22.539  41.898  46.647  1.00  0.00     0.047 A 
HETATM    6 BR   UNL     1      21.714  40.977  45.212  1.00  0.00    -0.048 Br
HETATM    7  C   UNL     1      21.882  42.933  47.302  1.00  0.00     0.092 A 
HETATM    8  C   UNL     1      22.450  43.608  48.412  1.00  0.00     0.016 A 
HETATM    9  N   UNL     1      25.689  42.013  48.671  1.00  0.00    -0.312 N 
HETATM   10  C   UNL     1      25.959  43.039  49.567  1.00  0.00     0.060 C 
ENDROOT
BRANCH   8  11
HETATM   11  C   UNL     1      21.638  44.671  49.139  1.00  0.00     0.277 C 
BRANCH  11  12
HETATM   12  N   UNL     1      21.207  45.863  48.318  1.00  0.00    -0.063 N 
HETATM   13  H   UNL     1      21.313  45.555  47.335  1.00  0.00     0.280 HD
HETATM   14  C   UNL     1      19.750  46.246  48.513  1.00  0.00     0.261 C 
HETATM   15  C   UNL     1      19.407  47.433  47.607  1.00  0.00     0.195 C 
HETATM   16  O   UNL     1      20.269  48.543  47.880  1.00  0.00    -0.388 OA
HETATM   17  C   UNL     1      21.642  48.221  47.628  1.00  0.00     0.195 C 
HETATM   18  C   UNL     1      22.109  47.069  48.525  1.00  0.00     0.261 C 
ENDBRANCH  11  12
ENDBRANCH   8  11
BRANCH   7  19
HETATM   19  O   UNL     1      20.624  43.315  46.882  1.00  0.00    -0.359 OA
HETATM   20  H   UNL     1      20.112  43.544  47.692  1.00  0.00     0.218 HD
ENDBRANCH   7  19
BRANCH   1  21
HETATM   21  C   UNL     1      24.625  44.955  50.582  1.00  0.00     0.296 C 
HETATM   22  O   UNL     1      24.207  44.848  51.727  1.00  0.00    -0.259 OA
BRANCH  21  23
HETATM   23  O   UNL     1      25.014  46.121  50.001  1.00  0.00    -0.318 OA
BRANCH  23  24
HETATM   24  C   UNL     1      25.767  47.024  50.833  1.00  0.00     0.174 C 
HETATM   25  C   UNL     1      26.505  48.032  49.973  1.00  0.00     0.034 C 
ENDBRANCH  23  24
ENDBRANCH  21  23
ENDBRANCH   1  21
BRANCH  10  26
HETATM   26  C   UNL     1      27.300  43.251  50.224  1.00  0.00     0.293 C 
BRANCH  26  27
HETATM   27  N   UNL     1      27.430  42.799  51.664  1.00  0.00    -0.066 N 
HETATM   28  H   UNL     1      26.515  42.440  51.966  1.00  0.00     0.280 HD
HETATM   29  C   UNL     1      28.437  41.691  51.867  1.00  0.00     0.235 C 
HETATM   30  C   UNL     1      28.384  41.222  53.315  1.00  0.00     0.028 C 
HETATM   31  C   UNL     1      28.619  42.369  54.291  1.00  0.00     0.003 C 
HETATM   32  C   UNL     1      27.659  43.523  54.027  1.00  0.00     0.028 C 
HETATM   33  C   UNL     1      27.713  43.978  52.576  1.00  0.00     0.235 C 
ENDBRANCH  26  27
ENDBRANCH  10  26
BRANCH   9  34
HETATM   34  C   UNL     1      26.579  40.955  48.350  1.00  0.00     0.040 A 
HETATM   35  C   UNL     1      26.607  39.803  49.144  1.00  0.00     0.030 A 
HETATM   36  C   UNL     1      27.421  38.733  48.772  1.00  0.00     0.002 A 
HETATM   37  C   UNL     1      28.204  38.816  47.620  1.00  0.00     0.000 A 
HETATM   38  C   UNL     1      28.182  39.970  46.837  1.00  0.00     0.002 A 
HETATM   39  C   UNL     1      27.369  41.043  47.196  1.00  0.00     0.030 A 
ENDBRANCH   9  34
TORSDOF 9
ENDMDL
MODEL 9
REMARK VINA RESULT:      -7.0     22.435     24.839
REMARK  9 active torsions:
REMARK  status: ('A' for Active; 'I' for Inactive)
REMARK    1  A    between atoms: C_2  and  O_3 
REMARK    2  A    between atoms: O_3  and  C_4 
REMARK    3  A    between atoms: C_4  and  C_5 
REMARK    4  A    between atoms: C_11  and  O_12 
REMARK    5  A    between atoms: C_13  and  C_14 
REMARK    6  A    between atoms: C_14  and  N_15 
REMARK    7  A    between atoms: N_22  and  C_23 
REMARK    8  A    between atoms: C_29  and  C_30 
REMARK    9  A    between atoms: C_30  and  N_31 
ROOT
HETATM    1  C   UNL     1      38.354  45.258  64.346  1.00  0.00     0.077 C 
HETATM    2  C   UNL     1      39.785  45.358  64.562  1.00  0.00     0.020 A 
HETATM    3  C   UNL     1      40.260  44.040  64.633  1.00  0.00     0.053 A 
HETATM    4  C   UNL     1      41.617  43.747  64.879  1.00  0.00     0.053 A 
HETATM    5  C   UNL     1      42.491  44.795  65.132  1.00  0.00     0.047 A 
HETATM    6 BR   UNL     1      44.297  44.394  65.542  1.00  0.00    -0.048 Br
HETATM    7  C   UNL     1      42.052  46.111  65.056  1.00  0.00     0.092 A 
HETATM    8  C   UNL     1      40.721  46.447  64.701  1.00  0.00     0.016 A 
HETATM    9  N   UNL     1      39.206  43.179  64.339  1.00  0.00    -0.312 N 
HETATM   10  C   UNL     1      38.019  43.897  64.284  1.00  0.00     0.060 C 
ENDROOT
BRANCH   8  11
HETATM   11  C   UNL     1      40.332  47.910  64.548  1.00  0.00     0.277 C 
BRANCH  11  12
HETATM   12  N   UNL     1      39.705  48.567  65.755  1.00  0.00    -0.063 N 
HETATM   13  H   UNL     1      38.858  48.004  65.947  1.00  0.00     0.280 HD
HETATM   14  C   UNL     1      40.573  48.509  67.002  1.00  0.00     0.261 C 
HETATM   15  C   UNL     1      39.830  49.161  68.172  1.00  0.00     0.195 C 
HETATM   16  O   UNL     1      39.475  50.511  67.857  1.00  0.00    -0.388 OA
HETATM   17  C   UNL     1      38.595  50.578  66.728  1.00  0.00     0.195 C 
HETATM   18  C   UNL     1      39.262  49.994  65.478  1.00  0.00     0.261 C 
ENDBRANCH  11  12
ENDBRANCH   8  11
BRANCH   7  19
HETATM   19  O   UNL     1      42.936  47.140  65.311  1.00  0.00    -0.359 OA
HETATM   20  H   UNL     1      43.271  47.006  66.229  1.00  0.00     0.218 HD
ENDBRANCH   7  19
BRANCH   1  21
HETATM   21  C   UNL     1      37.395  46.365  64.270  1.00  0.00     0.296 C 
HETATM   22  O   UNL     1      36.768  46.621  63.251  1.00  0.00    -0.259 OA
BRANCH  21  23
HETATM   23  O   UNL     1      37.273  47.034  65.448  1.00  0.00    -0.318 OA
BRANCH  23  24
HETATM   24  C   UNL     1      35.997  47.656  65.695  1.00  0.00     0.174 C 
HETATM   25  C   UNL     1      35.866  48.013  67.163  1.00  0.00     0.034 C 
ENDBRANCH  23  24
ENDBRANCH  21  23
ENDBRANCH   1  21
BRANCH  10  26
HETATM   26  C   UNL     1      36.654  43.262  64.201  1.00  0.00     0.293 C 
BRANCH  26  27
HETATM   27  N   UNL     1      35.683  43.591  65.316  1.00  0.00    -0.066 N 
HETATM   28  H   UNL     1      35.189  44.455  65.061  1.00  0.00     0.280 HD
HETATM   29  C   UNL     1      34.637  42.526  65.548  1.00  0.00     0.235 C 
HETATM   30  C   UNL     1      33.638  43.019  66.587  1.00  0.00     0.028 C 
HETATM   31  C   UNL     1      34.325  43.413  67.891  1.00  0.00     0.003 C 
HETATM   32  C   UNL     1      35.440  44.422  67.643  1.00  0.00     0.028 C 
HETATM   33  C   UNL     1      36.426  43.924  66.597  1.00  0.00     0.235 C 
ENDBRANCH  26  27
ENDBRANCH  10  26
BRANCH   9  34
HETATM   34  C   UNL     1      39.316  41.771  64.194  1.00  0.00     0.040 A 
HETATM   35  C   UNL     1      39.340  41.202  62.915  1.00  0.00     0.030 A 
HETATM   36  C   UNL     1      39.534  39.828  62.780  1.00  0.00     0.002 A 
HETATM   37  C   UNL     1      39.697  39.029  63.912  1.00  0.00     0.000 A 
HETATM   38  C   UNL     1      39.661  39.596  65.185  1.00  0.00     0.002 A 
HETATM   39  C   UNL     1      39.472  40.969  65.333  1.00  0.00     0.030 A 
ENDBRANCH   9  34
TORSDOF 9
ENDMDL
MODEL 10
REMARK VINA RESULT:      -6.8      3.138      6.620
REMARK  9 active torsions:
REMARK  status: ('A' for Active; 'I' for Inactive)
REMARK    1  A    between atoms: C_2  and  O_3 
REMARK    2  A    between atoms: O_3  and  C_4 
REMARK    3  A    between atoms: C_4  and  C_5 
REMARK    4  A    between atoms: C_11  and  O_12 
REMARK    5  A    between atoms: C_13  and  C_14 
REMARK    6  A    between atoms: C_14  and  N_15 
REMARK    7  A    between atoms: N_22  and  C_23 
REMARK    8  A    between atoms: C_29  and  C_30 
REMARK    9  A    between atoms: C_30  and  N_31 
ROOT
HETATM    1  C   UNL     1      20.256  47.241  46.754  1.00  0.00     0.077 C 
HETATM    2  C   UNL     1      19.204  47.505  45.790  1.00  0.00     0.020 A 
HETATM    3  C   UNL     1      18.477  48.593  46.296  1.00  0.00     0.053 A 
HETATM    4  C   UNL     1      17.343  49.106  45.635  1.00  0.00     0.053 A 
HETATM    5  C   UNL     1      16.891  48.466  44.490  1.00  0.00     0.047 A 
HETATM    6 BR   UNL     1      15.319  49.107  43.649  1.00  0.00    -0.048 Br
HETATM    7  C   UNL     1      17.597  47.393  43.958  1.00  0.00     0.092 A 
HETATM    8  C   UNL     1      18.804  46.921  44.533  1.00  0.00     0.016 A 
HETATM    9  N   UNL     1      19.128  49.062  47.435  1.00  0.00    -0.312 N 
HETATM   10  C   UNL     1      20.136  48.176  47.792  1.00  0.00     0.060 C 
ENDROOT
BRANCH   8  11
HETATM   11  C   UNL     1      19.573  45.801  43.847  1.00  0.00     0.277 C 
BRANCH  11  12
HETATM   12  N   UNL     1      20.829  46.203  43.112  1.00  0.00    -0.063 N 
HETATM   13  H   UNL     1      21.245  46.950  43.696  1.00  0.00     0.280 HD
HETATM   14  C   UNL     1      21.859  45.090  43.006  1.00  0.00     0.261 C 
HETATM   15  C   UNL     1      23.105  45.613  42.285  1.00  0.00     0.195 C 
HETATM   16  O   UNL     1      22.764  46.121  40.990  1.00  0.00    -0.388 OA
HETATM   17  C   UNL     1      21.851  47.221  41.076  1.00  0.00     0.195 C 
HETATM   18  C   UNL     1      20.538  46.793  41.742  1.00  0.00     0.261 C 
ENDBRANCH  11  12
ENDBRANCH   8  11
BRANCH   7  19
HETATM   19  O   UNL     1      17.131  46.768  42.820  1.00  0.00    -0.359 OA
HETATM   20  H   UNL     1      16.478  46.091  43.114  1.00  0.00     0.218 HD
ENDBRANCH   7  19
BRANCH   1  21
HETATM   21  C   UNL     1      21.240  46.155  46.709  1.00  0.00     0.296 C 
HETATM   22  O   UNL     1      22.299  46.254  46.105  1.00  0.00    -0.259 OA
BRANCH  21  23
HETATM   23  O   UNL     1      20.850  45.066  47.423  1.00  0.00    -0.318 OA
BRANCH  23  24
HETATM   24  C   UNL     1      21.521  43.829  47.111  1.00  0.00     0.174 C 
HETATM   25  C   UNL     1      20.722  43.047  46.087  1.00  0.00     0.034 C 
ENDBRANCH  23  24
ENDBRANCH  21  23
ENDBRANCH   1  21
BRANCH  10  26
HETATM   26  C   UNL     1      20.902  48.252  49.090  1.00  0.00     0.293 C 
BRANCH  26  27
HETATM   27  N   UNL     1      22.246  48.949  49.045  1.00  0.00    -0.066 N 
HETATM   28  H   UNL     1      22.300  49.583  49.852  1.00  0.00     0.280 HD
HETATM   29  C   UNL     1      23.424  48.008  49.132  1.00  0.00     0.235 C 
HETATM   30  C   UNL     1      24.711  48.819  49.219  1.00  0.00     0.028 C 
HETATM   31  C   UNL     1      24.856  49.779  48.044  1.00  0.00     0.003 C 
HETATM   32  C   UNL     1      23.626  50.668  47.904  1.00  0.00     0.028 C 
HETATM   33  C   UNL     1      22.346  49.849  47.827  1.00  0.00     0.235 C 
ENDBRANCH  26  27
ENDBRANCH  10  26
BRANCH   9  34
HETATM   34  C   UNL     1      18.767  50.225  48.163  1.00  0.00     0.040 A 
HETATM   35  C   UNL     1      19.321  51.463  47.819  1.00  0.00     0.030 A 
HETATM   36  C   UNL     1      18.896  52.613  48.483  1.00  0.00     0.002 A 
HETATM   37  C   UNL     1      17.930  52.527  49.485  1.00  0.00     0.000 A 
HETATM   38  C   UNL     1      17.387  51.290  49.835  1.00  0.00     0.002 A 
HETATM   39  C   UNL     1      17.801  50.134  49.175  1.00  0.00     0.030 A 
ENDBRANCH   9  34
TORSDOF 9
ENDMDL
