MODEL 1
REMARK VINA RESULT:      -8.8      0.000      0.000
REMARK  6 active torsions:
REMARK  status: ('A' for Active; 'I' for Inactive)
REMARK    1  A    between atoms: C_7  and  S_8 
REMARK    2  A    between atoms: S_8  and  C_9 
REMARK    3  A    between atoms: C_9  and  C_10 
REMARK    4  A    between atoms: C_18  and  C_19 
REMARK    5  A    between atoms: C_27  and  C_28 
REMARK    6  A    between atoms: C_28  and  O_29 
ROOT
HETATM    1  C   UNL     1      24.193  41.950  49.996  1.00  0.00     0.070 C 
HETATM    2  C   UNL     1      24.544  43.229  50.714  1.00  0.00     0.037 A 
HETATM    3  N   UNL     1      25.179  43.073  51.943  1.00  0.00    -0.192 N 
HETATM    4  C   UNL     1      25.572  44.105  52.711  1.00  0.00     0.726 A 
HETATM    5  N   UNL     1      25.301  45.381  52.307  1.00  0.00    -0.082 N 
HETATM    6  N   UNL     1      25.725  46.286  53.212  1.00  0.00    -0.128 NA
HETATM    7  C   UNL     1      26.322  45.484  54.105  1.00  0.00     0.226 A 
HETATM    8  N   UNL     1      26.219  44.139  53.846  1.00  0.00    -0.035 NA
HETATM    9  C   UNL     1      24.625  45.725  51.046  1.00  0.00     0.208 A 
HETATM   10  C   UNL     1      24.264  44.473  50.253  1.00  0.00     0.070 A 
HETATM   11  H   UNL     1      25.427  42.130  52.229  1.00  0.00     0.184 HD
ENDROOT
BRANCH   7  12
HETATM   12  S   UNL     1      27.203  46.081  55.482  1.00  0.00    -0.083 SA
BRANCH  12  13
HETATM   13  C   UNL     1      28.912  45.996  54.880  1.00  0.00     0.123 C 
BRANCH  13  14
HETATM   14  C   UNL     1      29.800  45.251  55.850  1.00  0.00    -0.027 A 
HETATM   15  C   UNL     1      30.402  44.019  55.541  1.00  0.00     0.041 A 
HETATM   16 CL   UNL     1      30.196  43.254  54.004  1.00  0.00    -0.084 Cl
HETATM   17  C   UNL     1      31.200  43.360  56.482  1.00  0.00     0.024 A 
HETATM   18  C   UNL     1      31.400  43.913  57.746  1.00  0.00     0.002 A 
HETATM   19  C   UNL     1      30.803  45.127  58.073  1.00  0.00     0.001 A 
HETATM   20  C   UNL     1      30.010  45.791  57.134  1.00  0.00     0.009 A 
ENDBRANCH  13  14
ENDBRANCH  12  13
ENDBRANCH   7  12
BRANCH   9  21
HETATM   21  C   UNL     1      25.477  46.725  50.277  1.00  0.00     0.032 A 
HETATM   22  C   UNL     1      26.795  46.456  49.873  1.00  0.00     0.045 A 
HETATM   23 CL   UNL     1      27.595  44.972  50.251  1.00  0.00    -0.084 Cl
HETATM   24  C   UNL     1      27.526  47.398  49.136  1.00  0.00     0.024 A 
HETATM   25  C   UNL     1      26.957  48.621  48.787  1.00  0.00     0.005 A 
HETATM   26  C   UNL     1      25.653  48.905  49.175  1.00  0.00     0.043 A 
HETATM   27  C   UNL     1      24.932  47.964  49.906  1.00  0.00     0.126 A 
HETATM   28  F   UNL     1      23.674  48.270  50.256  1.00  0.00    -0.205 F 
ENDBRANCH   9  21
BRANCH  10  29
HETATM   29  C   UNL     1      23.626  44.686  48.939  1.00  0.00     0.293 C 
HETATM   30  O   UNL     1      24.144  44.426  47.866  1.00  0.00    -0.259 OA
BRANCH  29  31
HETATM   31  O   UNL     1      22.396  45.223  49.122  1.00  0.00    -0.323 OA
HETATM   32  C   UNL     1      22.055  46.227  48.163  1.00  0.00     0.213 C 
ENDBRANCH  29  31
ENDBRANCH  10  29
TORSDOF 6
ENDMDL
MODEL 2
REMARK VINA RESULT:      -8.3      4.991      6.642
REMARK  6 active torsions:
REMARK  status: ('A' for Active; 'I' for Inactive)
REMARK    1  A    between atoms: C_7  and  S_8 
REMARK    2  A    between atoms: S_8  and  C_9 
REMARK    3  A    between atoms: C_9  and  C_10 
REMARK    4  A    between atoms: C_18  and  C_19 
REMARK    5  A    between atoms: C_27  and  C_28 
REMARK    6  A    between atoms: C_28  and  O_29 
ROOT
HETATM    1  C   UNL     1      29.822  37.546  50.755  1.00  0.00     0.070 C 
HETATM    2  C   UNL     1      28.865  38.648  50.377  1.00  0.00     0.037 A 
HETATM    3  N   UNL     1      28.953  39.808  51.140  1.00  0.00    -0.192 N 
HETATM    4  C   UNL     1      28.185  40.893  50.934  1.00  0.00     0.726 A 
HETATM    5  N   UNL     1      27.227  40.859  49.961  1.00  0.00    -0.082 N 
HETATM    6  N   UNL     1      26.524  42.008  49.919  1.00  0.00    -0.128 NA
HETATM    7  C   UNL     1      27.171  42.729  50.846  1.00  0.00     0.226 A 
HETATM    8  N   UNL     1      28.174  42.065  51.510  1.00  0.00    -0.035 NA
HETATM    9  C   UNL     1      26.988  39.710  49.074  1.00  0.00     0.208 A 
HETATM   10  C   UNL     1      27.944  38.562  49.385  1.00  0.00     0.070 A 
HETATM   11  H   UNL     1      29.694  39.861  51.834  1.00  0.00     0.184 HD
ENDROOT
BRANCH   7  12
HETATM   12  S   UNL     1      26.811  44.400  51.176  1.00  0.00    -0.083 SA
BRANCH  12  13
HETATM   13  C   UNL     1      26.230  44.309  52.892  1.00  0.00     0.123 C 
BRANCH  13  14
HETATM   14  C   UNL     1      27.202  44.980  53.838  1.00  0.00    -0.027 A 
HETATM   15  C   UNL     1      27.108  46.337  54.189  1.00  0.00     0.041 A 
HETATM   16 CL   UNL     1      25.852  47.360  53.586  1.00  0.00    -0.084 Cl
HETATM   17  C   UNL     1      28.045  46.915  55.053  1.00  0.00     0.024 A 
HETATM   18  C   UNL     1      29.091  46.153  55.568  1.00  0.00     0.002 A 
HETATM   19  C   UNL     1      29.206  44.810  55.221  1.00  0.00     0.001 A 
HETATM   20  C   UNL     1      28.270  44.227  54.364  1.00  0.00     0.009 A 
ENDBRANCH  13  14
ENDBRANCH  12  13
ENDBRANCH   7  12
BRANCH   9  21
HETATM   21  C   UNL     1      27.027  40.176  47.625  1.00  0.00     0.032 A 
HETATM   22  C   UNL     1      25.897  40.179  46.792  1.00  0.00     0.045 A 
HETATM   23 CL   UNL     1      24.354  39.608  47.322  1.00  0.00    -0.084 Cl
HETATM   24  C   UNL     1      25.977  40.651  45.475  1.00  0.00     0.024 A 
HETATM   25  C   UNL     1      27.183  41.131  44.966  1.00  0.00     0.005 A 
HETATM   26  C   UNL     1      28.312  41.139  45.777  1.00  0.00     0.043 A 
HETATM   27  C   UNL     1      28.225  40.670  47.085  1.00  0.00     0.126 A 
HETATM   28  F   UNL     1      29.333  40.701  47.838  1.00  0.00    -0.205 F 
ENDBRANCH   9  21
BRANCH  10  29
HETATM   29  C   UNL     1      27.840  37.366  48.526  1.00  0.00     0.293 C 
HETATM   30  O   UNL     1      28.561  37.134  47.570  1.00  0.00    -0.259 OA
BRANCH  29  31
HETATM   31  O   UNL     1      26.820  36.590  48.964  1.00  0.00    -0.323 OA
HETATM   32  C   UNL     1      25.846  36.295  47.960  1.00  0.00     0.213 C 
ENDBRANCH  29  31
ENDBRANCH  10  29
TORSDOF 6
ENDMDL
MODEL 3
REMARK VINA RESULT:      -8.2     13.324     15.397
REMARK  6 active torsions:
REMARK  status: ('A' for Active; 'I' for Inactive)
REMARK    1  A    between atoms: C_7  and  S_8 
REMARK    2  A    between atoms: S_8  and  C_9 
REMARK    3  A    between atoms: C_9  and  C_10 
REMARK    4  A    between atoms: C_18  and  C_19 
REMARK    5  A    between atoms: C_27  and  C_28 
REMARK    6  A    between atoms: C_28  and  O_29 
ROOT
HETATM    1  C   UNL     1      34.886  50.231  41.831  1.00  0.00     0.070 C 
HETATM    2  C   UNL     1      33.699  49.879  40.971  1.00  0.00     0.037 A 
HETATM    3  N   UNL     1      33.180  48.601  41.156  1.00  0.00    -0.192 N 
HETATM    4  C   UNL     1      32.117  48.126  40.481  1.00  0.00     0.726 A 
HETATM    5  N   UNL     1      31.530  48.904  39.524  1.00  0.00    -0.082 N 
HETATM    6  N   UNL     1      30.511  48.260  38.921  1.00  0.00    -0.128 NA
HETATM    7  C   UNL     1      30.486  47.120  39.626  1.00  0.00     0.226 A 
HETATM    8  N   UNL     1      31.477  46.991  40.569  1.00  0.00    -0.035 NA
HETATM    9  C   UNL     1      31.960  50.271  39.190  1.00  0.00     0.208 A 
HETATM   10  C   UNL     1      33.146  50.703  40.045  1.00  0.00     0.070 A 
HETATM   11  H   UNL     1      33.580  48.034  41.898  1.00  0.00     0.184 HD
ENDROOT
BRANCH   7  12
HETATM   12  S   UNL     1      29.272  45.892  39.407  1.00  0.00    -0.083 SA
BRANCH  12  13
HETATM   13  C   UNL     1      27.857  46.628  40.272  1.00  0.00     0.123 C 
BRANCH  13  14
HETATM   14  C   UNL     1      27.285  47.794  39.498  1.00  0.00    -0.027 A 
HETATM   15  C   UNL     1      27.113  49.071  40.060  1.00  0.00     0.041 A 
HETATM   16 CL   UNL     1      27.562  49.428  41.690  1.00  0.00    -0.084 Cl
HETATM   17  C   UNL     1      26.560  50.112  39.306  1.00  0.00     0.024 A 
HETATM   18  C   UNL     1      26.164  49.893  37.988  1.00  0.00     0.002 A 
HETATM   19  C   UNL     1      26.317  48.632  37.419  1.00  0.00     0.001 A 
HETATM   20  C   UNL     1      26.874  47.591  38.166  1.00  0.00     0.009 A 
ENDBRANCH  13  14
ENDBRANCH  12  13
ENDBRANCH   7  12
BRANCH   9  21
HETATM   21  C   UNL     1      30.762  51.207  39.269  1.00  0.00     0.032 A 
HETATM   22  C   UNL     1      30.153  51.570  40.481  1.00  0.00     0.045 A 
HETATM   23 CL   UNL     1      30.681  50.950  42.005  1.00  0.00    -0.084 Cl
HETATM   24  C   UNL     1      29.073  52.463  40.503  1.00  0.00     0.024 A 
HETATM   25  C   UNL     1      28.583  53.012  39.319  1.00  0.00     0.005 A 
HETATM   26  C   UNL     1      29.174  52.667  38.110  1.00  0.00     0.043 A 
HETATM   27  C   UNL     1      30.248  51.780  38.095  1.00  0.00     0.126 A 
HETATM   28  F   UNL     1      30.797  51.478  36.910  1.00  0.00    -0.205 F 
ENDBRANCH   9  21
BRANCH  10  29
HETATM   29  C   UNL     1      33.640  52.080  39.842  1.00  0.00     0.293 C 
HETATM   30  O   UNL     1      33.166  53.072  40.370  1.00  0.00    -0.259 OA
BRANCH  29  31
HETATM   31  O   UNL     1      34.681  52.057  38.975  1.00  0.00    -0.323 OA
HETATM   32  C   UNL     1      35.708  53.002  39.281  1.00  0.00     0.213 C 
ENDBRANCH  29  31
ENDBRANCH  10  29
TORSDOF 6
ENDMDL
MODEL 4
REMARK VINA RESULT:      -8.0      3.689      5.344
REMARK  6 active torsions:
REMARK  status: ('A' for Active; 'I' for Inactive)
REMARK    1  A    between atoms: C_7  and  S_8 
REMARK    2  A    between atoms: S_8  and  C_9 
REMARK    3  A    between atoms: C_9  and  C_10 
REMARK    4  A    between atoms: C_18  and  C_19 
REMARK    5  A    between atoms: C_27  and  C_28 
REMARK    6  A    between atoms: C_28  and  O_29 
ROOT
HETATM    1  C   UNL     1      22.765  42.846  49.309  1.00  0.00     0.070 C 
HETATM    2  C   UNL     1      24.243  42.586  49.448  1.00  0.00     0.037 A 
HETATM    3  N   UNL     1      24.826  43.040  50.627  1.00  0.00    -0.192 N 
HETATM    4  C   UNL     1      26.129  42.883  50.920  1.00  0.00     0.726 A 
HETATM    5  N   UNL     1      26.954  42.291  50.006  1.00  0.00    -0.082 N 
HETATM    6  N   UNL     1      28.228  42.253  50.443  1.00  0.00    -0.128 NA
HETATM    7  C   UNL     1      28.085  42.767  51.673  1.00  0.00     0.226 A 
HETATM    8  N   UNL     1      26.817  43.194  51.987  1.00  0.00    -0.035 NA
HETATM    9  C   UNL     1      26.508  41.768  48.706  1.00  0.00     0.208 A 
HETATM   10  C   UNL     1      25.010  41.975  48.509  1.00  0.00     0.070 A 
HETATM   11  H   UNL     1      24.212  43.438  51.333  1.00  0.00     0.184 HD
ENDROOT
BRANCH   7  12
HETATM   12  S   UNL     1      29.389  42.864  52.823  1.00  0.00    -0.083 SA
BRANCH  12  13
HETATM   13  C   UNL     1      28.786  44.160  53.940  1.00  0.00     0.123 C 
BRANCH  13  14
HETATM   14  C   UNL     1      29.623  44.234  55.198  1.00  0.00    -0.027 A 
HETATM   15  C   UNL     1      29.554  45.313  56.095  1.00  0.00     0.041 A 
HETATM   16 CL   UNL     1      28.483  46.648  55.851  1.00  0.00    -0.084 Cl
HETATM   17  C   UNL     1      30.365  45.344  57.235  1.00  0.00     0.024 A 
HETATM   18  C   UNL     1      31.260  44.307  57.490  1.00  0.00     0.002 A 
HETATM   19  C   UNL     1      31.349  43.236  56.605  1.00  0.00     0.001 A 
HETATM   20  C   UNL     1      30.538  43.199  55.469  1.00  0.00     0.009 A 
ENDBRANCH  13  14
ENDBRANCH  12  13
ENDBRANCH   7  12
BRANCH   9  21
HETATM   21  C   UNL     1      26.960  40.320  48.566  1.00  0.00     0.032 A 
HETATM   22  C   UNL     1      27.742  39.864  47.493  1.00  0.00     0.045 A 
HETATM   23 CL   UNL     1      28.234  40.898  46.198  1.00  0.00    -0.084 Cl
HETATM   24  C   UNL     1      28.161  38.528  47.427  1.00  0.00     0.024 A 
HETATM   25  C   UNL     1      27.811  37.625  48.430  1.00  0.00     0.005 A 
HETATM   26  C   UNL     1      27.039  38.059  49.501  1.00  0.00     0.043 A 
HETATM   27  C   UNL     1      26.627  39.388  49.561  1.00  0.00     0.126 A 
HETATM   28  F   UNL     1      25.891  39.771  50.614  1.00  0.00    -0.205 F 
ENDBRANCH   9  21
BRANCH  10  29
HETATM   29  C   UNL     1      24.428  41.444  47.261  1.00  0.00     0.293 C 
HETATM   30  O   UNL     1      24.395  42.045  46.200  1.00  0.00    -0.259 OA
BRANCH  29  31
HETATM   31  O   UNL     1      23.935  40.204  47.492  1.00  0.00    -0.323 OA
HETATM   32  C   UNL     1      22.614  40.005  46.984  1.00  0.00     0.213 C 
ENDBRANCH  29  31
ENDBRANCH  10  29
TORSDOF 6
ENDMDL
MODEL 5
REMARK VINA RESULT:      -7.9     12.528     14.728
REMARK  6 active torsions:
REMARK  status: ('A' for Active; 'I' for Inactive)
REMARK    1  A    between atoms: C_7  and  S_8 
REMARK    2  A    between atoms: S_8  and  C_9 
REMARK    3  A    between atoms: C_9  and  C_10 
REMARK    4  A    between atoms: C_18  and  C_19 
REMARK    5  A    between atoms: C_27  and  C_28 
REMARK    6  A    between atoms: C_28  and  O_29 
ROOT
HETATM    1  C   UNL     1      28.765  53.261  37.875  1.00  0.00     0.070 C 
HETATM    2  C   UNL     1      28.588  52.127  38.852  1.00  0.00     0.037 A 
HETATM    3  N   UNL     1      27.405  51.404  38.727  1.00  0.00    -0.192 N 
HETATM    4  C   UNL     1      27.090  50.355  39.508  1.00  0.00     0.726 A 
HETATM    5  N   UNL     1      27.938  49.991  40.514  1.00  0.00    -0.082 N 
HETATM    6  N   UNL     1      27.450  48.952  41.221  1.00  0.00    -0.128 NA
HETATM    7  C   UNL     1      26.334  48.684  40.529  1.00  0.00     0.226 A 
HETATM    8  N   UNL     1      26.065  49.544  39.491  1.00  0.00    -0.035 NA
HETATM    9  C   UNL     1      29.221  50.654  40.796  1.00  0.00     0.208 A 
HETATM   10  C   UNL     1      29.477  51.801  39.823  1.00  0.00     0.070 A 
HETATM   11  H   UNL     1      26.790  51.637  37.952  1.00  0.00     0.184 HD
ENDROOT
BRANCH   7  12
HETATM   12  S   UNL     1      25.301  47.326  40.875  1.00  0.00    -0.083 SA
BRANCH  12  13
HETATM   13  C   UNL     1      25.271  46.479  39.271  1.00  0.00     0.123 C 
BRANCH  13  14
HETATM   14  C   UNL     1      26.663  46.077  38.836  1.00  0.00    -0.027 A 
HETATM   15  C   UNL     1      27.173  46.358  37.557  1.00  0.00     0.041 A 
HETATM   16 CL   UNL     1      26.256  47.215  36.368  1.00  0.00    -0.084 Cl
HETATM   17  C   UNL     1      28.461  45.946  37.198  1.00  0.00     0.024 A 
HETATM   18  C   UNL     1      29.252  45.240  38.102  1.00  0.00     0.002 A 
HETATM   19  C   UNL     1      28.758  44.943  39.369  1.00  0.00     0.001 A 
HETATM   20  C   UNL     1      27.476  45.358  39.734  1.00  0.00     0.009 A 
ENDBRANCH  13  14
ENDBRANCH  12  13
ENDBRANCH   7  12
BRANCH   9  21
HETATM   21  C   UNL     1      30.328  49.610  40.833  1.00  0.00     0.032 A 
HETATM   22  C   UNL     1      31.299  49.560  41.845  1.00  0.00     0.045 A 
HETATM   23 CL   UNL     1      31.357  50.714  43.131  1.00  0.00    -0.084 Cl
HETATM   24  C   UNL     1      32.279  48.558  41.853  1.00  0.00     0.024 A 
HETATM   25  C   UNL     1      32.305  47.586  40.854  1.00  0.00     0.005 A 
HETATM   26  C   UNL     1      31.351  47.616  39.845  1.00  0.00     0.043 A 
HETATM   27  C   UNL     1      30.380  48.615  39.844  1.00  0.00     0.126 A 
HETATM   28  F   UNL     1      29.471  48.607  38.858  1.00  0.00    -0.205 F 
ENDBRANCH   9  21
BRANCH  10  29
HETATM   29  C   UNL     1      30.761  52.515  39.969  1.00  0.00     0.293 C 
HETATM   30  O   UNL     1      30.969  53.414  40.767  1.00  0.00    -0.259 OA
BRANCH  29  31
HETATM   31  O   UNL     1      31.649  52.022  39.073  1.00  0.00    -0.323 OA
HETATM   32  C   UNL     1      33.008  52.360  39.360  1.00  0.00     0.213 C 
ENDBRANCH  29  31
ENDBRANCH  10  29
TORSDOF 6
ENDMDL
MODEL 6
REMARK VINA RESULT:      -7.6     11.740     13.984
REMARK  6 active torsions:
REMARK  status: ('A' for Active; 'I' for Inactive)
REMARK    1  A    between atoms: C_7  and  S_8 
REMARK    2  A    between atoms: S_8  and  C_9 
REMARK    3  A    between atoms: C_9  and  C_10 
REMARK    4  A    between atoms: C_18  and  C_19 
REMARK    5  A    between atoms: C_27  and  C_28 
REMARK    6  A    between atoms: C_28  and  O_29 
ROOT
HETATM    1  C   UNL     1      28.768  53.172  37.958  1.00  0.00     0.070 C 
HETATM    2  C   UNL     1      28.582  52.034  38.930  1.00  0.00     0.037 A 
HETATM    3  N   UNL     1      27.450  51.250  38.728  1.00  0.00    -0.192 N 
HETATM    4  C   UNL     1      27.136  50.189  39.493  1.00  0.00     0.726 A 
HETATM    5  N   UNL     1      27.929  49.875  40.560  1.00  0.00    -0.082 N 
HETATM    6  N   UNL     1      27.447  48.815  41.239  1.00  0.00    -0.128 NA
HETATM    7  C   UNL     1      26.398  48.485  40.472  1.00  0.00     0.226 A 
HETATM    8  N   UNL     1      26.159  49.326  39.412  1.00  0.00    -0.035 NA
HETATM    9  C   UNL     1      29.153  50.606  40.925  1.00  0.00     0.208 A 
HETATM   10  C   UNL     1      29.416  51.760  39.964  1.00  0.00     0.070 A 
HETATM   11  H   UNL     1      26.881  51.447  37.909  1.00  0.00     0.184 HD
ENDROOT
BRANCH   7  12
HETATM   12  S   UNL     1      25.416  47.077  40.757  1.00  0.00    -0.083 SA
BRANCH  12  13
HETATM   13  C   UNL     1      26.559  46.026  41.694  1.00  0.00     0.123 C 
BRANCH  13  14
HETATM   14  C   UNL     1      27.265  45.039  40.791  1.00  0.00    -0.027 A 
HETATM   15  C   UNL     1      27.287  43.657  41.043  1.00  0.00     0.041 A 
HETATM   16 CL   UNL     1      26.485  42.955  42.404  1.00  0.00    -0.084 Cl
HETATM   17  C   UNL     1      27.972  42.787  40.186  1.00  0.00     0.024 A 
HETATM   18  C   UNL     1      28.650  43.284  39.075  1.00  0.00     0.002 A 
HETATM   19  C   UNL     1      28.648  44.652  38.817  1.00  0.00     0.001 A 
HETATM   20  C   UNL     1      27.962  45.522  39.666  1.00  0.00     0.009 A 
ENDBRANCH  13  14
ENDBRANCH  12  13
ENDBRANCH   7  12
BRANCH   9  21
HETATM   21  C   UNL     1      30.308  49.622  41.048  1.00  0.00     0.032 A 
HETATM   22  C   UNL     1      30.621  48.682  40.053  1.00  0.00     0.045 A 
HETATM   23 CL   UNL     1      29.693  48.523  38.604  1.00  0.00    -0.084 Cl
HETATM   24  C   UNL     1      31.716  47.820  40.199  1.00  0.00     0.024 A 
HETATM   25  C   UNL     1      32.520  47.881  41.336  1.00  0.00     0.005 A 
HETATM   26  C   UNL     1      32.227  48.806  42.331  1.00  0.00     0.043 A 
HETATM   27  C   UNL     1      31.138  49.660  42.179  1.00  0.00     0.126 A 
HETATM   28  F   UNL     1      30.892  50.545  43.157  1.00  0.00    -0.205 F 
ENDBRANCH   9  21
BRANCH  10  29
HETATM   29  C   UNL     1      30.648  52.542  40.193  1.00  0.00     0.293 C 
HETATM   30  O   UNL     1      30.760  53.434  41.017  1.00  0.00    -0.259 OA
BRANCH  29  31
HETATM   31  O   UNL     1      31.610  52.118  39.339  1.00  0.00    -0.323 OA
HETATM   32  C   UNL     1      32.916  52.068  39.918  1.00  0.00     0.213 C 
ENDBRANCH  29  31
ENDBRANCH  10  29
TORSDOF 6
ENDMDL
MODEL 7
REMARK VINA RESULT:      -7.5      4.741      6.574
REMARK  6 active torsions:
REMARK  status: ('A' for Active; 'I' for Inactive)
REMARK    1  A    between atoms: C_7  and  S_8 
REMARK    2  A    between atoms: S_8  and  C_9 
REMARK    3  A    between atoms: C_9  and  C_10 
REMARK    4  A    between atoms: C_18  and  C_19 
REMARK    5  A    between atoms: C_27  and  C_28 
REMARK    6  A    between atoms: C_28  and  O_29 
ROOT
HETATM    1  C   UNL     1      29.810  37.705  50.647  1.00  0.00     0.070 C 
HETATM    2  C   UNL     1      28.734  38.710  50.321  1.00  0.00     0.037 A 
HETATM    3  N   UNL     1      28.732  39.863  51.100  1.00  0.00    -0.192 N 
HETATM    4  C   UNL     1      27.851  40.868  50.938  1.00  0.00     0.726 A 
HETATM    5  N   UNL     1      26.868  40.750  49.998  1.00  0.00    -0.082 N 
HETATM    6  N   UNL     1      26.052  41.823  50.000  1.00  0.00    -0.128 NA
HETATM    7  C   UNL     1      26.656  42.593  50.916  1.00  0.00     0.226 A 
HETATM    8  N   UNL     1      27.744  42.025  51.535  1.00  0.00    -0.035 NA
HETATM    9  C   UNL     1      26.714  39.594  49.101  1.00  0.00     0.208 A 
HETATM   10  C   UNL     1      27.791  38.545  49.360  1.00  0.00     0.070 A 
HETATM   11  H   UNL     1      29.488  39.981  51.769  1.00  0.00     0.184 HD
ENDROOT
BRANCH   7  12
HETATM   12  S   UNL     1      26.142  44.214  51.287  1.00  0.00    -0.083 SA
BRANCH  12  13
HETATM   13  C   UNL     1      25.896  44.111  53.081  1.00  0.00     0.123 C 
BRANCH  13  14
HETATM   14  C   UNL     1      26.596  45.244  53.798  1.00  0.00    -0.027 A 
HETATM   15  C   UNL     1      27.835  45.088  54.442  1.00  0.00     0.041 A 
HETATM   16 CL   UNL     1      28.685  43.582  54.453  1.00  0.00    -0.084 Cl
HETATM   17  C   UNL     1      28.432  46.164  55.108  1.00  0.00     0.024 A 
HETATM   18  C   UNL     1      27.798  47.404  55.150  1.00  0.00     0.002 A 
HETATM   19  C   UNL     1      26.565  47.573  54.527  1.00  0.00     0.001 A 
HETATM   20  C   UNL     1      25.969  46.504  53.856  1.00  0.00     0.009 A 
ENDBRANCH  13  14
ENDBRANCH  12  13
ENDBRANCH   7  12
BRANCH   9  21
HETATM   21  C   UNL     1      26.654  40.082  47.660  1.00  0.00     0.032 A 
HETATM   22  C   UNL     1      27.764  40.619  46.988  1.00  0.00     0.045 A 
HETATM   23 CL   UNL     1      29.302  40.820  47.750  1.00  0.00    -0.084 Cl
HETATM   24  C   UNL     1      27.666  41.023  45.649  1.00  0.00     0.024 A 
HETATM   25  C   UNL     1      26.463  40.896  44.956  1.00  0.00     0.005 A 
HETATM   26  C   UNL     1      25.355  40.364  45.604  1.00  0.00     0.043 A 
HETATM   27  C   UNL     1      25.459  39.964  46.934  1.00  0.00     0.126 A 
HETATM   28  F   UNL     1      24.370  39.448  47.522  1.00  0.00    -0.205 F 
ENDBRANCH   9  21
BRANCH  10  29
HETATM   29  C   UNL     1      27.777  37.356  48.485  1.00  0.00     0.293 C 
HETATM   30  O   UNL     1      28.512  37.192  47.525  1.00  0.00    -0.259 OA
BRANCH  29  31
HETATM   31  O   UNL     1      26.819  36.499  48.912  1.00  0.00    -0.323 OA
HETATM   32  C   UNL     1      25.825  36.207  47.928  1.00  0.00     0.213 C 
ENDBRANCH  29  31
ENDBRANCH  10  29
TORSDOF 6
ENDMDL
MODEL 8
REMARK VINA RESULT:      -7.5      5.765      9.761
REMARK  6 active torsions:
REMARK  status: ('A' for Active; 'I' for Inactive)
REMARK    1  A    between atoms: C_7  and  S_8 
REMARK    2  A    between atoms: S_8  and  C_9 
REMARK    3  A    between atoms: C_9  and  C_10 
REMARK    4  A    between atoms: C_18  and  C_19 
REMARK    5  A    between atoms: C_27  and  C_28 
REMARK    6  A    between atoms: C_28  and  O_29 
ROOT
HETATM    1  C   UNL     1      23.957  44.405  50.704  1.00  0.00     0.070 C 
HETATM    2  C   UNL     1      23.384  45.259  49.602  1.00  0.00     0.037 A 
HETATM    3  N   UNL     1      22.408  44.653  48.817  1.00  0.00    -0.192 N 
HETATM    4  C   UNL     1      21.783  45.272  47.799  1.00  0.00     0.726 A 
HETATM    5  N   UNL     1      22.145  46.547  47.468  1.00  0.00    -0.082 N 
HETATM    6  N   UNL     1      21.451  46.996  46.404  1.00  0.00    -0.128 NA
HETATM    7  C   UNL     1      20.623  45.963  46.192  1.00  0.00     0.226 A 
HETATM    8  N   UNL     1      20.821  44.876  47.009  1.00  0.00    -0.035 NA
HETATM    9  C   UNL     1      23.167  47.329  48.181  1.00  0.00     0.208 A 
HETATM   10  C   UNL     1      23.772  46.530  49.331  1.00  0.00     0.070 A 
HETATM   11  H   UNL     1      22.099  43.722  49.085  1.00  0.00     0.184 HD
ENDROOT
BRANCH   7  12
HETATM   12  S   UNL     1      19.355  45.988  45.000  1.00  0.00    -0.083 SA
BRANCH  12  13
HETATM   13  C   UNL     1      17.913  46.405  46.018  1.00  0.00     0.123 C 
BRANCH  13  14
HETATM   14  C   UNL     1      17.956  47.849  46.466  1.00  0.00    -0.027 A 
HETATM   15  C   UNL     1      17.477  48.273  47.717  1.00  0.00     0.041 A 
HETATM   16 CL   UNL     1      16.813  47.171  48.871  1.00  0.00    -0.084 Cl
HETATM   17  C   UNL     1      17.522  49.625  48.075  1.00  0.00     0.024 A 
HETATM   18  C   UNL     1      18.033  50.571  47.189  1.00  0.00     0.002 A 
HETATM   19  C   UNL     1      18.501  50.170  45.942  1.00  0.00     0.001 A 
HETATM   20  C   UNL     1      18.464  48.821  45.582  1.00  0.00     0.009 A 
ENDBRANCH  13  14
ENDBRANCH  12  13
ENDBRANCH   7  12
BRANCH   9  21
HETATM   21  C   UNL     1      22.574  48.668  48.597  1.00  0.00     0.032 A 
HETATM   22  C   UNL     1      23.229  49.892  48.385  1.00  0.00     0.045 A 
HETATM   23 CL   UNL     1      24.797  49.992  47.667  1.00  0.00    -0.084 Cl
HETATM   24  C   UNL     1      22.626  51.102  48.756  1.00  0.00     0.024 A 
HETATM   25  C   UNL     1      21.360  51.113  49.341  1.00  0.00     0.005 A 
HETATM   26  C   UNL     1      20.696  49.912  49.556  1.00  0.00     0.043 A 
HETATM   27  C   UNL     1      21.301  48.713  49.184  1.00  0.00     0.126 A 
HETATM   28  F   UNL     1      20.625  47.576  49.401  1.00  0.00    -0.205 F 
ENDBRANCH   9  21
BRANCH  10  29
HETATM   29  C   UNL     1      24.777  47.226  50.160  1.00  0.00     0.293 C 
HETATM   30  O   UNL     1      24.529  47.827  51.192  1.00  0.00    -0.259 OA
BRANCH  29  31
HETATM   31  O   UNL     1      25.996  47.097  49.585  1.00  0.00    -0.323 OA
HETATM   32  C   UNL     1      26.862  48.211  49.811  1.00  0.00     0.213 C 
ENDBRANCH  29  31
ENDBRANCH  10  29
TORSDOF 6
ENDMDL
MODEL 9
REMARK VINA RESULT:      -7.5      5.619      8.018
REMARK  6 active torsions:
REMARK  status: ('A' for Active; 'I' for Inactive)
REMARK    1  A    between atoms: C_7  and  S_8 
REMARK    2  A    between atoms: S_8  and  C_9 
REMARK    3  A    between atoms: C_9  and  C_10 
REMARK    4  A    between atoms: C_18  and  C_19 
REMARK    5  A    between atoms: C_27  and  C_28 
REMARK    6  A    between atoms: C_28  and  O_29 
ROOT
HETATM    1  C   UNL     1      16.819  46.214  45.396  1.00  0.00     0.070 C 
HETATM    2  C   UNL     1      17.897  46.327  46.444  1.00  0.00     0.037 A 
HETATM    3  N   UNL     1      19.003  45.504  46.260  1.00  0.00    -0.192 N 
HETATM    4  C   UNL     1      20.061  45.484  47.092  1.00  0.00     0.726 A 
HETATM    5  N   UNL     1      20.048  46.269  48.209  1.00  0.00    -0.082 N 
HETATM    6  N   UNL     1      21.161  46.095  48.949  1.00  0.00    -0.128 NA
HETATM    7  C   UNL     1      21.846  45.245  48.170  1.00  0.00     0.226 A 
HETATM    8  N   UNL     1      21.188  44.825  47.039  1.00  0.00    -0.035 NA
HETATM    9  C   UNL     1      18.954  47.186  48.564  1.00  0.00     0.208 A 
HETATM   10  C   UNL     1      17.836  47.142  47.528  1.00  0.00     0.070 A 
HETATM   11  H   UNL     1      19.044  44.952  45.408  1.00  0.00     0.184 HD
ENDROOT
BRANCH   7  12
HETATM   12  S   UNL     1      23.469  44.726  48.524  1.00  0.00    -0.083 SA
BRANCH  12  13
HETATM   13  C   UNL     1      23.858  45.732  49.983  1.00  0.00     0.123 C 
BRANCH  13  14
HETATM   14  C   UNL     1      24.690  46.939  49.612  1.00  0.00    -0.027 A 
HETATM   15  C   UNL     1      26.094  46.943  49.671  1.00  0.00     0.041 A 
HETATM   16 CL   UNL     1      27.000  45.552  50.153  1.00  0.00    -0.084 Cl
HETATM   17  C   UNL     1      26.817  48.093  49.337  1.00  0.00     0.024 A 
HETATM   18  C   UNL     1      26.152  49.255  48.950  1.00  0.00     0.002 A 
HETATM   19  C   UNL     1      24.761  49.272  48.898  1.00  0.00     0.001 A 
HETATM   20  C   UNL     1      24.036  48.125  49.225  1.00  0.00     0.009 A 
ENDBRANCH  13  14
ENDBRANCH  12  13
ENDBRANCH   7  12
BRANCH   9  21
HETATM   21  C   UNL     1      19.523  48.577  48.807  1.00  0.00     0.032 A 
HETATM   22  C   UNL     1      19.412  49.245  50.037  1.00  0.00     0.045 A 
HETATM   23 CL   UNL     1      18.577  48.565  51.389  1.00  0.00    -0.084 Cl
HETATM   24  C   UNL     1      19.983  50.512  50.220  1.00  0.00     0.024 A 
HETATM   25  C   UNL     1      20.676  51.133  49.183  1.00  0.00     0.005 A 
HETATM   26  C   UNL     1      20.798  50.487  47.959  1.00  0.00     0.043 A 
HETATM   27  C   UNL     1      20.229  49.228  47.784  1.00  0.00     0.126 A 
HETATM   28  F   UNL     1      20.375  48.633  46.591  1.00  0.00    -0.205 F 
ENDBRANCH   9  21
BRANCH  10  29
HETATM   29  C   UNL     1      16.699  48.059  47.743  1.00  0.00     0.293 C 
HETATM   30  O   UNL     1      15.756  47.833  48.484  1.00  0.00    -0.259 OA
BRANCH  29  31
HETATM   31  O   UNL     1      16.870  49.167  46.983  1.00  0.00    -0.323 OA
HETATM   32  C   UNL     1      16.220  50.329  47.502  1.00  0.00     0.213 C 
ENDBRANCH  29  31
ENDBRANCH  10  29
TORSDOF 6
ENDMDL
MODEL 10
REMARK VINA RESULT:      -7.5      3.784      5.539
REMARK  6 active torsions:
REMARK  status: ('A' for Active; 'I' for Inactive)
REMARK    1  A    between atoms: C_7  and  S_8 
REMARK    2  A    between atoms: S_8  and  C_9 
REMARK    3  A    between atoms: C_9  and  C_10 
REMARK    4  A    between atoms: C_18  and  C_19 
REMARK    5  A    between atoms: C_27  and  C_28 
REMARK    6  A    between atoms: C_28  and  O_29 
ROOT
HETATM    1  C   UNL     1      22.204  40.658  47.700  1.00  0.00     0.070 C 
HETATM    2  C   UNL     1      23.510  41.247  48.168  1.00  0.00     0.037 A 
HETATM    3  N   UNL     1      23.415  42.177  49.199  1.00  0.00    -0.192 N 
HETATM    4  C   UNL     1      24.480  42.791  49.746  1.00  0.00     0.726 A 
HETATM    5  N   UNL     1      25.726  42.541  49.245  1.00  0.00    -0.082 N 
HETATM    6  N   UNL     1      26.668  43.269  49.878  1.00  0.00    -0.128 NA
HETATM    7  C   UNL     1      25.924  43.879  50.812  1.00  0.00     0.226 A 
HETATM    8  N   UNL     1      24.574  43.634  50.740  1.00  0.00    -0.035 NA
HETATM    9  C   UNL     1      26.005  41.600  48.149  1.00  0.00     0.208 A 
HETATM   10  C   UNL     1      24.724  40.946  47.642  1.00  0.00     0.070 A 
HETATM   11  H   UNL     1      22.499  42.333  49.610  1.00  0.00     0.184 HD
ENDROOT
BRANCH   7  12
HETATM   12  S   UNL     1      26.601  44.885  52.061  1.00  0.00    -0.083 SA
BRANCH  12  13
HETATM   13  C   UNL     1      26.696  43.719  53.448  1.00  0.00     0.123 C 
BRANCH  13  14
HETATM   14  C   UNL     1      28.033  43.808  54.150  1.00  0.00    -0.027 A 
HETATM   15  C   UNL     1      29.009  42.802  54.059  1.00  0.00     0.041 A 
HETATM   16 CL   UNL     1      28.776  41.374  53.113  1.00  0.00    -0.084 Cl
HETATM   17  C   UNL     1      30.223  42.924  54.745  1.00  0.00     0.024 A 
HETATM   18  C   UNL     1      30.474  44.042  55.537  1.00  0.00     0.002 A 
HETATM   19  C   UNL     1      29.514  45.043  55.647  1.00  0.00     0.001 A 
HETATM   20  C   UNL     1      28.303  44.929  54.960  1.00  0.00     0.009 A 
ENDBRANCH  13  14
ENDBRANCH  12  13
ENDBRANCH   7  12
BRANCH   9  21
HETATM   21  C   UNL     1      27.074  40.613  48.595  1.00  0.00     0.032 A 
HETATM   22  C   UNL     1      28.232  40.349  47.846  1.00  0.00     0.045 A 
HETATM   23 CL   UNL     1      28.534  41.093  46.315  1.00  0.00    -0.084 Cl
HETATM   24  C   UNL     1      29.204  39.456  48.316  1.00  0.00     0.024 A 
HETATM   25  C   UNL     1      29.041  38.812  49.542  1.00  0.00     0.005 A 
HETATM   26  C   UNL     1      27.903  39.063  50.299  1.00  0.00     0.043 A 
HETATM   27  C   UNL     1      26.942  39.952  49.826  1.00  0.00     0.126 A 
HETATM   28  F   UNL     1      25.862  40.174  50.589  1.00  0.00    -0.205 F 
ENDBRANCH   9  21
BRANCH  10  29
HETATM   29  C   UNL     1      24.876  39.938  46.574  1.00  0.00     0.293 C 
HETATM   30  O   UNL     1      24.935  40.194  45.382  1.00  0.00    -0.259 OA
BRANCH  29  31
HETATM   31  O   UNL     1      24.923  38.704  47.129  1.00  0.00    -0.323 OA
HETATM   32  C   UNL     1      25.534  37.718  46.294  1.00  0.00     0.213 C 
ENDBRANCH  29  31
ENDBRANCH  10  29
TORSDOF 6
ENDMDL
