MODEL 1
REMARK VINA RESULT:     -10.0      0.000      0.000
REMARK  8 active torsions:
REMARK  status: ('A' for Active; 'I' for Inactive)
REMARK    1  A    between atoms: C_4  and  O_5 
REMARK    2  A    between atoms: O_5  and  C_6 
REMARK    3  A    between atoms: C_6  and  C_7 
REMARK       I    between atoms: C_7  and  N_8 
REMARK    4  A    between atoms: N_8  and  C_9 
REMARK    5  A    between atoms: C_9  and  N_10 
REMARK    6  A    between atoms: N_10  and  C_11 
REMARK    7  A    between atoms: C_14  and  N_15 
REMARK    8  A    between atoms: N_18  and  C_19 
ROOT
HETATM    1  C   UNL     1      23.765  43.632  48.810  1.00  0.00     0.034 A 
HETATM    2  C   UNL     1      24.984  44.314  48.754  1.00  0.00     0.031 A 
HETATM    3  C   UNL     1      25.866  44.319  49.846  1.00  0.00     0.026 A 
HETATM    4  C   UNL     1      25.561  43.653  51.038  1.00  0.00     0.010 A 
HETATM    5  C   UNL     1      24.296  43.047  51.102  1.00  0.00     0.026 A 
HETATM    6  C   UNL     1      23.415  43.024  50.007  1.00  0.00     0.031 A 
ENDROOT
BRANCH   4   7
HETATM    7  N   UNL     1      26.427  43.602  52.147  1.00  0.00    -0.280 NA
HETATM    8  C   UNL     1      25.916  44.122  53.441  1.00  0.00     0.115 C 
HETATM    9  C   UNL     1      26.903  43.844  54.601  1.00  0.00     0.138 C 
HETATM   10  N   UNL     1      28.248  44.384  54.290  1.00  0.00    -0.374 N 
HETATM   11  C   UNL     1      28.771  43.830  53.014  1.00  0.00     0.138 C 
HETATM   12  C   UNL     1      27.796  44.110  51.848  1.00  0.00     0.115 C 
BRANCH  10  13
HETATM   13  C   UNL     1      29.202  44.495  55.321  1.00  0.00     0.115 A 
HETATM   14  C   UNL     1      30.270  43.594  55.514  1.00  0.00     0.187 A 
HETATM   15  F   UNL     1      30.469  42.574  54.665  1.00  0.00    -0.200 F 
HETATM   16  C   UNL     1      31.172  43.736  56.570  1.00  0.00     0.199 A 
HETATM   17  F   UNL     1      32.177  42.859  56.706  1.00  0.00    -0.199 F 
HETATM   18  C   UNL     1      31.037  44.774  57.474  1.00  0.00     0.199 A 
HETATM   19  F   UNL     1      31.907  44.906  58.485  1.00  0.00    -0.199 F 
HETATM   20  C   UNL     1      29.997  45.673  57.329  1.00  0.00     0.199 A 
HETATM   21  F   UNL     1      29.852  46.676  58.207  1.00  0.00    -0.199 F 
HETATM   22  C   UNL     1      29.093  45.532  56.277  1.00  0.00     0.187 A 
HETATM   23  F   UNL     1      28.073  46.405  56.208  1.00  0.00    -0.200 F 
ENDBRANCH  10  13
ENDBRANCH   4   7
BRANCH   1  24
HETATM   24  N   UNL     1      22.988  43.644  47.634  1.00  0.00    -0.333 N 
HETATM   25  H   UNL     1      23.103  42.810  47.058  1.00  0.00     0.168 HD
BRANCH  24  26
HETATM   26  C   UNL     1      22.016  44.495  47.159  1.00  0.00     0.178 C 
HETATM   27  S   UNL     1      20.564  44.149  46.410  1.00  0.00    -0.040 SA
BRANCH  26  28
HETATM   28  N   UNL     1      22.326  45.842  47.281  1.00  0.00    -0.302 N 
HETATM   29  C   UNL     1      21.750  46.803  48.101  1.00  0.00     0.248 C 
HETATM   30  O   UNL     1      20.744  46.607  48.782  1.00  0.00    -0.271 OA
HETATM   31  H   UNL     1      23.164  46.119  46.779  1.00  0.00     0.171 HD
BRANCH  29  32
HETATM   32  C   UNL     1      22.460  48.151  48.064  1.00  0.00     0.278 C 
BRANCH  32  33
HETATM   33  O   UNL     1      23.118  48.472  49.284  1.00  0.00    -0.342 OA
BRANCH  33  34
HETATM   34  C   UNL     1      24.476  48.642  49.219  1.00  0.00     0.069 A 
HETATM   35  C   UNL     1      25.425  47.873  49.894  1.00  0.00     0.037 A 
HETATM   36  C   UNL     1      26.789  48.133  49.725  1.00  0.00     0.003 A 
HETATM   37  C   UNL     1      27.209  49.160  48.883  1.00  0.00     0.000 A 
HETATM   38  C   UNL     1      26.265  49.923  48.200  1.00  0.00     0.003 A 
HETATM   39  C   UNL     1      24.904  49.658  48.361  1.00  0.00     0.037 A 
ENDBRANCH  33  34
ENDBRANCH  32  33
ENDBRANCH  29  32
ENDBRANCH  26  28
ENDBRANCH  24  26
ENDBRANCH   1  24
TORSDOF 8
ENDMDL
MODEL 2
REMARK VINA RESULT:      -9.9      6.500     11.548
REMARK  8 active torsions:
REMARK  status: ('A' for Active; 'I' for Inactive)
REMARK    1  A    between atoms: C_4  and  O_5 
REMARK    2  A    between atoms: O_5  and  C_6 
REMARK    3  A    between atoms: C_6  and  C_7 
REMARK       I    between atoms: C_7  and  N_8 
REMARK    4  A    between atoms: N_8  and  C_9 
REMARK    5  A    between atoms: C_9  and  N_10 
REMARK    6  A    between atoms: N_10  and  C_11 
REMARK    7  A    between atoms: C_14  and  N_15 
REMARK    8  A    between atoms: N_18  and  C_19 
ROOT
HETATM    1  C   UNL     1      25.850  46.074  50.040  1.00  0.00     0.034 A 
HETATM    2  C   UNL     1      26.059  47.441  49.835  1.00  0.00     0.031 A 
HETATM    3  C   UNL     1      25.025  48.276  49.384  1.00  0.00     0.026 A 
HETATM    4  C   UNL     1      23.747  47.777  49.111  1.00  0.00     0.010 A 
HETATM    5  C   UNL     1      23.582  46.389  49.244  1.00  0.00     0.026 A 
HETATM    6  C   UNL     1      24.609  45.550  49.710  1.00  0.00     0.031 A 
ENDROOT
BRANCH   4   7
HETATM    7  N   UNL     1      22.669  48.579  48.689  1.00  0.00    -0.280 NA
HETATM    8  C   UNL     1      22.467  49.876  49.383  1.00  0.00     0.115 C 
HETATM    9  C   UNL     1      21.363  50.724  48.706  1.00  0.00     0.138 C 
HETATM   10  N   UNL     1      20.097  49.958  48.604  1.00  0.00    -0.374 N 
HETATM   11  C   UNL     1      20.298  48.679  47.874  1.00  0.00     0.138 C 
HETATM   12  C   UNL     1      21.393  47.822  48.549  1.00  0.00     0.115 C 
BRANCH  10  13
HETATM   13  C   UNL     1      18.904  50.638  48.290  1.00  0.00     0.115 A 
HETATM   14  C   UNL     1      18.563  51.087  46.997  1.00  0.00     0.187 A 
HETATM   15  F   UNL     1      19.366  50.839  45.951  1.00  0.00    -0.200 F 
HETATM   16  C   UNL     1      17.377  51.780  46.746  1.00  0.00     0.199 A 
HETATM   17  F   UNL     1      17.093  52.179  45.497  1.00  0.00    -0.199 F 
HETATM   18  C   UNL     1      16.495  52.056  47.774  1.00  0.00     0.199 A 
HETATM   19  F   UNL     1      15.358  52.721  47.527  1.00  0.00    -0.199 F 
HETATM   20  C   UNL     1      16.795  51.645  49.060  1.00  0.00     0.199 A 
HETATM   21  F   UNL     1      15.951  51.919  50.065  1.00  0.00    -0.199 F 
HETATM   22  C   UNL     1      17.980  50.955  49.313  1.00  0.00     0.187 A 
HETATM   23  F   UNL     1      18.247  50.619  50.587  1.00  0.00    -0.200 F 
ENDBRANCH  10  13
ENDBRANCH   4   7
BRANCH   1  24
HETATM   24  N   UNL     1      26.943  45.346  50.553  1.00  0.00    -0.333 N 
HETATM   25  H   UNL     1      27.851  45.739  50.303  1.00  0.00     0.168 HD
BRANCH  24  26
HETATM   26  C   UNL     1      27.039  44.282  51.420  1.00  0.00     0.178 C 
HETATM   27  S   UNL     1      26.700  42.666  51.173  1.00  0.00    -0.040 SA
BRANCH  26  28
HETATM   28  N   UNL     1      27.429  44.627  52.707  1.00  0.00    -0.302 N 
HETATM   29  C   UNL     1      26.759  45.396  53.649  1.00  0.00     0.248 C 
HETATM   30  O   UNL     1      25.724  46.018  53.412  1.00  0.00    -0.271 OA
HETATM   31  H   UNL     1      28.266  44.148  53.026  1.00  0.00     0.171 HD
BRANCH  29  32
HETATM   32  C   UNL     1      27.440  45.433  55.011  1.00  0.00     0.278 C 
BRANCH  32  33
HETATM   33  O   UNL     1      28.804  45.832  54.946  1.00  0.00    -0.342 OA
BRANCH  33  34
HETATM   34  C   UNL     1      29.660  45.223  55.825  1.00  0.00     0.069 A 
HETATM   35  C   UNL     1      29.971  45.682  57.107  1.00  0.00     0.037 A 
HETATM   36  C   UNL     1      30.846  44.954  57.920  1.00  0.00     0.003 A 
HETATM   37  C   UNL     1      31.413  43.769  57.457  1.00  0.00     0.000 A 
HETATM   38  C   UNL     1      31.098  43.304  56.182  1.00  0.00     0.003 A 
HETATM   39  C   UNL     1      30.217  44.024  55.374  1.00  0.00     0.037 A 
ENDBRANCH  33  34
ENDBRANCH  32  33
ENDBRANCH  29  32
ENDBRANCH  26  28
ENDBRANCH  24  26
ENDBRANCH   1  24
TORSDOF 8
ENDMDL
MODEL 3
REMARK VINA RESULT:      -9.8      2.738      4.176
REMARK  8 active torsions:
REMARK  status: ('A' for Active; 'I' for Inactive)
REMARK    1  A    between atoms: C_4  and  O_5 
REMARK    2  A    between atoms: O_5  and  C_6 
REMARK    3  A    between atoms: C_6  and  C_7 
REMARK       I    between atoms: C_7  and  N_8 
REMARK    4  A    between atoms: N_8  and  C_9 
REMARK    5  A    between atoms: C_9  and  N_10 
REMARK    6  A    between atoms: N_10  and  C_11 
REMARK    7  A    between atoms: C_14  and  N_15 
REMARK    8  A    between atoms: N_18  and  C_19 
ROOT
HETATM    1  C   UNL     1      23.407  45.667  49.194  1.00  0.00     0.034 A 
HETATM    2  C   UNL     1      23.480  44.484  49.934  1.00  0.00     0.031 A 
HETATM    3  C   UNL     1      24.279  44.393  51.085  1.00  0.00     0.026 A 
HETATM    4  C   UNL     1      25.044  45.476  51.533  1.00  0.00     0.010 A 
HETATM    5  C   UNL     1      25.021  46.626  50.728  1.00  0.00     0.026 A 
HETATM    6  C   UNL     1      24.210  46.729  49.584  1.00  0.00     0.031 A 
ENDROOT
BRANCH   4   7
HETATM    7  N   UNL     1      25.834  45.444  52.698  1.00  0.00    -0.280 NA
HETATM    8  C   UNL     1      26.665  46.638  52.996  1.00  0.00     0.115 C 
HETATM    9  C   UNL     1      27.341  46.535  54.385  1.00  0.00     0.138 C 
HETATM   10  N   UNL     1      28.127  45.283  54.498  1.00  0.00    -0.374 N 
HETATM   11  C   UNL     1      27.281  44.089  54.238  1.00  0.00     0.138 C 
HETATM   12  C   UNL     1      26.609  44.180  52.848  1.00  0.00     0.115 C 
BRANCH  10  13
HETATM   13  C   UNL     1      29.044  45.139  55.557  1.00  0.00     0.115 A 
HETATM   14  C   UNL     1      29.034  45.924  56.728  1.00  0.00     0.187 A 
HETATM   15  F   UNL     1      28.085  46.853  56.923  1.00  0.00    -0.200 F 
HETATM   16  C   UNL     1      29.984  45.757  57.738  1.00  0.00     0.199 A 
HETATM   17  F   UNL     1      29.927  46.522  58.837  1.00  0.00    -0.199 F 
HETATM   18  C   UNL     1      30.981  44.807  57.611  1.00  0.00     0.199 A 
HETATM   19  F   UNL     1      31.890  44.649  58.583  1.00  0.00    -0.199 F 
HETATM   20  C   UNL     1      31.036  44.023  56.473  1.00  0.00     0.199 A 
HETATM   21  F   UNL     1      32.006  43.107  56.337  1.00  0.00    -0.199 F 
HETATM   22  C   UNL     1      30.089  44.190  55.464  1.00  0.00     0.187 A 
HETATM   23  F   UNL     1      30.215  43.436  54.358  1.00  0.00    -0.200 F 
ENDBRANCH  10  13
ENDBRANCH   4   7
BRANCH   1  24
HETATM   24  N   UNL     1      22.525  45.661  48.094  1.00  0.00    -0.333 N 
HETATM   25  H   UNL     1      22.997  45.702  47.190  1.00  0.00     0.168 HD
BRANCH  24  26
HETATM   26  C   UNL     1      21.164  45.491  47.982  1.00  0.00     0.178 C 
HETATM   27  S   UNL     1      20.290  44.486  46.975  1.00  0.00    -0.040 SA
BRANCH  26  28
HETATM   28  N   UNL     1      20.414  46.326  48.798  1.00  0.00    -0.302 N 
HETATM   29  C   UNL     1      20.407  47.713  48.863  1.00  0.00     0.248 C 
HETATM   30  O   UNL     1      21.202  48.430  48.257  1.00  0.00    -0.271 OA
HETATM   31  H   UNL     1      19.697  45.844  49.332  1.00  0.00     0.171 HD
BRANCH  29  32
HETATM   32  C   UNL     1      19.336  48.281  49.786  1.00  0.00     0.278 C 
BRANCH  32  33
HETATM   33  O   UNL     1      19.681  49.550  50.330  1.00  0.00    -0.342 OA
BRANCH  33  34
HETATM   34  C   UNL     1      19.087  50.642  49.754  1.00  0.00     0.069 A 
HETATM   35  C   UNL     1      19.735  51.606  48.979  1.00  0.00     0.037 A 
HETATM   36  C   UNL     1      19.009  52.666  48.425  1.00  0.00     0.003 A 
HETATM   37  C   UNL     1      17.637  52.767  48.643  1.00  0.00     0.000 A 
HETATM   38  C   UNL     1      16.986  51.802  49.407  1.00  0.00     0.003 A 
HETATM   39  C   UNL     1      17.708  50.739  49.952  1.00  0.00     0.037 A 
ENDBRANCH  33  34
ENDBRANCH  32  33
ENDBRANCH  29  32
ENDBRANCH  26  28
ENDBRANCH  24  26
ENDBRANCH   1  24
TORSDOF 8
ENDMDL
MODEL 4
REMARK VINA RESULT:      -9.7      6.363     11.419
REMARK  8 active torsions:
REMARK  status: ('A' for Active; 'I' for Inactive)
REMARK    1  A    between atoms: C_4  and  O_5 
REMARK    2  A    between atoms: O_5  and  C_6 
REMARK    3  A    between atoms: C_6  and  C_7 
REMARK       I    between atoms: C_7  and  N_8 
REMARK    4  A    between atoms: N_8  and  C_9 
REMARK    5  A    between atoms: C_9  and  N_10 
REMARK    6  A    between atoms: N_10  and  C_11 
REMARK    7  A    between atoms: C_14  and  N_15 
REMARK    8  A    between atoms: N_18  and  C_19 
ROOT
HETATM    1  C   UNL     1      25.882  45.489  49.884  1.00  0.00     0.034 A 
HETATM    2  C   UNL     1      24.705  44.973  49.333  1.00  0.00     0.031 A 
HETATM    3  C   UNL     1      23.644  45.814  48.965  1.00  0.00     0.026 A 
HETATM    4  C   UNL     1      23.711  47.200  49.142  1.00  0.00     0.010 A 
HETATM    5  C   UNL     1      24.867  47.688  49.774  1.00  0.00     0.026 A 
HETATM    6  C   UNL     1      25.940  46.853  50.130  1.00  0.00     0.031 A 
ENDROOT
BRANCH   4   7
HETATM    7  N   UNL     1      22.687  48.087  48.759  1.00  0.00    -0.280 NA
HETATM    8  C   UNL     1      22.626  49.402  49.446  1.00  0.00     0.115 C 
HETATM    9  C   UNL     1      21.568  50.335  48.807  1.00  0.00     0.138 C 
HETATM   10  N   UNL     1      20.240  49.678  48.768  1.00  0.00    -0.374 N 
HETATM   11  C   UNL     1      20.300  48.381  48.044  1.00  0.00     0.138 C 
HETATM   12  C   UNL     1      21.347  47.440  48.681  1.00  0.00     0.115 C 
BRANCH  10  13
HETATM   13  C   UNL     1      19.095  50.453  48.498  1.00  0.00     0.115 A 
HETATM   14  C   UNL     1      18.092  50.744  49.446  1.00  0.00     0.187 A 
HETATM   15  F   UNL     1      18.204  50.321  50.715  1.00  0.00    -0.200 F 
HETATM   16  C   UNL     1      16.962  51.496  49.118  1.00  0.00     0.199 A 
HETATM   17  F   UNL     1      16.040  51.754  50.058  1.00  0.00    -0.199 F 
HETATM   18  C   UNL     1      16.790  51.979  47.834  1.00  0.00     0.199 A 
HETATM   19  F   UNL     1      15.705  52.702  47.525  1.00  0.00    -0.199 F 
HETATM   20  C   UNL     1      17.743  51.707  46.870  1.00  0.00     0.199 A 
HETATM   21  F   UNL     1      17.578  52.161  45.618  1.00  0.00    -0.199 F 
HETATM   22  C   UNL     1      18.870  50.954  47.195  1.00  0.00     0.187 A 
HETATM   23  F   UNL     1      19.743  50.679  46.210  1.00  0.00    -0.200 F 
ENDBRANCH  10  13
ENDBRANCH   4   7
BRANCH   1  24
HETATM   24  N   UNL     1      26.903  44.557  50.158  1.00  0.00    -0.333 N 
HETATM   25  H   UNL     1      27.732  44.673  49.573  1.00  0.00     0.168 HD
BRANCH  24  26
HETATM   26  C   UNL     1      27.064  43.599  51.133  1.00  0.00     0.178 C 
HETATM   27  S   UNL     1      26.745  41.960  51.085  1.00  0.00    -0.040 SA
BRANCH  26  28
HETATM   28  N   UNL     1      27.509  44.091  52.351  1.00  0.00    -0.302 N 
HETATM   29  C   UNL     1      26.778  44.642  53.395  1.00  0.00     0.248 C 
HETATM   30  O   UNL     1      25.576  44.897  53.326  1.00  0.00    -0.271 OA
HETATM   31  H   UNL     1      28.492  43.912  52.534  1.00  0.00     0.171 HD
BRANCH  29  32
HETATM   32  C   UNL     1      27.604  44.937  54.640  1.00  0.00     0.278 C 
BRANCH  32  33
HETATM   33  O   UNL     1      29.007  44.867  54.411  1.00  0.00    -0.342 OA
BRANCH  33  34
HETATM   34  C   UNL     1      29.790  44.597  55.502  1.00  0.00     0.069 A 
HETATM   35  C   UNL     1      30.647  43.502  55.638  1.00  0.00     0.037 A 
HETATM   36  C   UNL     1      31.414  43.351  56.797  1.00  0.00     0.003 A 
HETATM   37  C   UNL     1      31.331  44.290  57.822  1.00  0.00     0.000 A 
HETATM   38  C   UNL     1      30.486  45.389  57.686  1.00  0.00     0.003 A 
HETATM   39  C   UNL     1      29.726  45.545  56.526  1.00  0.00     0.037 A 
ENDBRANCH  33  34
ENDBRANCH  32  33
ENDBRANCH  29  32
ENDBRANCH  26  28
ENDBRANCH  24  26
ENDBRANCH   1  24
TORSDOF 8
ENDMDL
MODEL 5
REMARK VINA RESULT:      -9.6      1.466      2.726
REMARK  8 active torsions:
REMARK  status: ('A' for Active; 'I' for Inactive)
REMARK    1  A    between atoms: C_4  and  O_5 
REMARK    2  A    between atoms: O_5  and  C_6 
REMARK    3  A    between atoms: C_6  and  C_7 
REMARK       I    between atoms: C_7  and  N_8 
REMARK    4  A    between atoms: N_8  and  C_9 
REMARK    5  A    between atoms: C_9  and  N_10 
REMARK    6  A    between atoms: N_10  and  C_11 
REMARK    7  A    between atoms: C_14  and  N_15 
REMARK    8  A    between atoms: N_18  and  C_19 
ROOT
HETATM    1  C   UNL     1      23.549  43.959  48.973  1.00  0.00     0.034 A 
HETATM    2  C   UNL     1      23.590  42.951  49.940  1.00  0.00     0.031 A 
HETATM    3  C   UNL     1      24.370  43.084  51.099  1.00  0.00     0.026 A 
HETATM    4  C   UNL     1      25.147  44.224  51.331  1.00  0.00     0.010 A 
HETATM    5  C   UNL     1      25.157  45.186  50.308  1.00  0.00     0.026 A 
HETATM    6  C   UNL     1      24.365  45.066  49.153  1.00  0.00     0.031 A 
ENDROOT
BRANCH   4   7
HETATM    7  N   UNL     1      25.920  44.419  52.492  1.00  0.00    -0.280 NA
HETATM    8  C   UNL     1      26.732  45.659  52.576  1.00  0.00     0.115 C 
HETATM    9  C   UNL     1      27.388  45.823  53.969  1.00  0.00     0.138 C 
HETATM   10  N   UNL     1      28.186  44.624  54.322  1.00  0.00    -0.374 N 
HETATM   11  C   UNL     1      27.357  43.392  54.275  1.00  0.00     0.138 C 
HETATM   12  C   UNL     1      26.706  43.215  52.884  1.00  0.00     0.115 C 
BRANCH  10  13
HETATM   13  C   UNL     1      29.088  44.690  55.402  1.00  0.00     0.115 A 
HETATM   14  C   UNL     1      29.000  45.626  56.453  1.00  0.00     0.187 A 
HETATM   15  F   UNL     1      27.986  46.504  56.506  1.00  0.00    -0.200 F 
HETATM   16  C   UNL     1      29.937  45.665  57.487  1.00  0.00     0.199 A 
HETATM   17  F   UNL     1      29.805  46.568  58.470  1.00  0.00    -0.199 F 
HETATM   18  C   UNL     1      30.998  44.778  57.504  1.00  0.00     0.199 A 
HETATM   19  F   UNL     1      31.895  44.819  58.500  1.00  0.00    -0.199 F 
HETATM   20  C   UNL     1      31.130  43.852  56.487  1.00  0.00     0.199 A 
HETATM   21  F   UNL     1      32.162  42.996  56.489  1.00  0.00    -0.199 F 
HETATM   22  C   UNL     1      30.196  43.813  55.452  1.00  0.00     0.187 A 
HETATM   23  F   UNL     1      30.396  42.926  54.463  1.00  0.00    -0.200 F 
ENDBRANCH  10  13
ENDBRANCH   4   7
BRANCH   1  24
HETATM   24  N   UNL     1      22.684  43.742  47.881  1.00  0.00    -0.333 N 
HETATM   25  H   UNL     1      22.113  42.901  47.971  1.00  0.00     0.168 HD
BRANCH  24  26
HETATM   26  C   UNL     1      22.363  44.493  46.773  1.00  0.00     0.178 C 
HETATM   27  S   UNL     1      22.868  44.333  45.189  1.00  0.00    -0.040 SA
BRANCH  26  28
HETATM   28  N   UNL     1      21.535  45.575  47.036  1.00  0.00    -0.302 N 
HETATM   29  C   UNL     1      20.495  45.681  47.949  1.00  0.00     0.248 C 
HETATM   30  O   UNL     1      20.058  44.733  48.601  1.00  0.00    -0.271 OA
HETATM   31  H   UNL     1      21.816  46.432  46.569  1.00  0.00     0.171 HD
BRANCH  29  32
HETATM   32  C   UNL     1      19.908  47.083  48.055  1.00  0.00     0.278 C 
BRANCH  32  33
HETATM   33  O   UNL     1      20.415  47.821  49.161  1.00  0.00    -0.342 OA
BRANCH  33  34
HETATM   34  C   UNL     1      21.360  48.772  48.878  1.00  0.00     0.069 A 
HETATM   35  C   UNL     1      22.715  48.528  48.643  1.00  0.00     0.037 A 
HETATM   36  C   UNL     1      23.576  49.587  48.341  1.00  0.00     0.003 A 
HETATM   37  C   UNL     1      23.090  50.891  48.271  1.00  0.00     0.000 A 
HETATM   38  C   UNL     1      21.737  51.136  48.495  1.00  0.00     0.003 A 
HETATM   39  C   UNL     1      20.875  50.079  48.788  1.00  0.00     0.037 A 
ENDBRANCH  33  34
ENDBRANCH  32  33
ENDBRANCH  29  32
ENDBRANCH  26  28
ENDBRANCH  24  26
ENDBRANCH   1  24
TORSDOF 8
ENDMDL
MODEL 6
REMARK VINA RESULT:      -9.4      1.628      2.132
REMARK  8 active torsions:
REMARK  status: ('A' for Active; 'I' for Inactive)
REMARK    1  A    between atoms: C_4  and  O_5 
REMARK    2  A    between atoms: O_5  and  C_6 
REMARK    3  A    between atoms: C_6  and  C_7 
REMARK       I    between atoms: C_7  and  N_8 
REMARK    4  A    between atoms: N_8  and  C_9 
REMARK    5  A    between atoms: C_9  and  N_10 
REMARK    6  A    between atoms: N_10  and  C_11 
REMARK    7  A    between atoms: C_14  and  N_15 
REMARK    8  A    between atoms: N_18  and  C_19 
ROOT
HETATM    1  C   UNL     1      23.375  43.710  49.197  1.00  0.00     0.034 A 
HETATM    2  C   UNL     1      24.107  42.638  49.716  1.00  0.00     0.031 A 
HETATM    3  C   UNL     1      24.954  42.803  50.823  1.00  0.00     0.026 A 
HETATM    4  C   UNL     1      25.112  44.045  51.447  1.00  0.00     0.010 A 
HETATM    5  C   UNL     1      24.433  45.124  50.857  1.00  0.00     0.026 A 
HETATM    6  C   UNL     1      23.571  44.963  49.759  1.00  0.00     0.031 A 
ENDROOT
BRANCH   4   7
HETATM    7  N   UNL     1      25.923  44.254  52.579  1.00  0.00    -0.280 NA
HETATM    8  C   UNL     1      26.700  45.517  52.643  1.00  0.00     0.115 C 
HETATM    9  C   UNL     1      27.404  45.689  54.010  1.00  0.00     0.138 C 
HETATM   10  N   UNL     1      28.252  44.513  54.320  1.00  0.00    -0.374 N 
HETATM   11  C   UNL     1      27.459  43.255  54.293  1.00  0.00     0.138 C 
HETATM   12  C   UNL     1      26.759  43.071  52.927  1.00  0.00     0.115 C 
BRANCH  10  13
HETATM   13  C   UNL     1      29.193  44.597  55.364  1.00  0.00     0.115 A 
HETATM   14  C   UNL     1      30.300  43.734  55.506  1.00  0.00     0.187 A 
HETATM   15  F   UNL     1      30.550  42.783  54.592  1.00  0.00    -0.200 F 
HETATM   16  C   UNL     1      31.189  43.844  56.577  1.00  0.00     0.199 A 
HETATM   17  F   UNL     1      32.232  43.006  56.663  1.00  0.00    -0.199 F 
HETATM   18  C   UNL     1      31.002  44.813  57.547  1.00  0.00     0.199 A 
HETATM   19  F   UNL     1      31.859  44.915  58.572  1.00  0.00    -0.199 F 
HETATM   20  C   UNL     1      29.923  45.672  57.453  1.00  0.00     0.199 A 
HETATM   21  F   UNL     1      29.727  46.606  58.395  1.00  0.00    -0.199 F 
HETATM   22  C   UNL     1      29.032  45.561  56.386  1.00  0.00     0.187 A 
HETATM   23  F   UNL     1      27.974  46.390  56.367  1.00  0.00    -0.200 F 
ENDBRANCH  10  13
ENDBRANCH   4   7
BRANCH   1  24
HETATM   24  N   UNL     1      22.511  43.414  48.124  1.00  0.00    -0.333 N 
HETATM   25  H   UNL     1      21.867  42.646  48.315  1.00  0.00     0.168 HD
BRANCH  24  26
HETATM   26  C   UNL     1      22.274  44.023  46.912  1.00  0.00     0.178 C 
HETATM   27  S   UNL     1      22.760  43.578  45.378  1.00  0.00    -0.040 SA
BRANCH  26  28
HETATM   28  N   UNL     1      21.569  45.215  47.000  1.00  0.00    -0.302 N 
HETATM   29  C   UNL     1      20.451  45.517  47.765  1.00  0.00     0.248 C 
HETATM   30  O   UNL     1      19.821  44.682  48.415  1.00  0.00    -0.271 OA
HETATM   31  H   UNL     1      22.012  45.992  46.520  1.00  0.00     0.171 HD
BRANCH  29  32
HETATM   32  C   UNL     1      20.042  46.983  47.709  1.00  0.00     0.278 C 
BRANCH  32  33
HETATM   33  O   UNL     1      20.331  47.692  48.908  1.00  0.00    -0.342 OA
BRANCH  33  34
HETATM   34  C   UNL     1      21.249  48.705  48.812  1.00  0.00     0.069 A 
HETATM   35  C   UNL     1      22.432  48.664  48.072  1.00  0.00     0.037 A 
HETATM   36  C   UNL     1      23.277  49.778  48.036  1.00  0.00     0.003 A 
HETATM   37  C   UNL     1      22.945  50.934  48.738  1.00  0.00     0.000 A 
HETATM   38  C   UNL     1      21.761  50.982  49.470  1.00  0.00     0.003 A 
HETATM   39  C   UNL     1      20.912  49.874  49.498  1.00  0.00     0.037 A 
ENDBRANCH  33  34
ENDBRANCH  32  33
ENDBRANCH  29  32
ENDBRANCH  26  28
ENDBRANCH  24  26
ENDBRANCH   1  24
TORSDOF 8
ENDMDL
MODEL 7
REMARK VINA RESULT:      -8.9      2.850      4.842
REMARK  8 active torsions:
REMARK  status: ('A' for Active; 'I' for Inactive)
REMARK    1  A    between atoms: C_4  and  O_5 
REMARK    2  A    between atoms: O_5  and  C_6 
REMARK    3  A    between atoms: C_6  and  C_7 
REMARK       I    between atoms: C_7  and  N_8 
REMARK    4  A    between atoms: N_8  and  C_9 
REMARK    5  A    between atoms: C_9  and  N_10 
REMARK    6  A    between atoms: N_10  and  C_11 
REMARK    7  A    between atoms: C_14  and  N_15 
REMARK    8  A    between atoms: N_18  and  C_19 
ROOT
HETATM    1  C   UNL     1      21.085  45.838  46.682  1.00  0.00     0.034 A 
HETATM    2  C   UNL     1      21.682  46.850  47.439  1.00  0.00     0.031 A 
HETATM    3  C   UNL     1      22.709  46.567  48.353  1.00  0.00     0.026 A 
HETATM    4  C   UNL     1      23.173  45.262  48.553  1.00  0.00     0.010 A 
HETATM    5  C   UNL     1      22.503  44.252  47.844  1.00  0.00     0.026 A 
HETATM    6  C   UNL     1      21.485  44.530  46.916  1.00  0.00     0.031 A 
ENDROOT
BRANCH   4   7
HETATM    7  N   UNL     1      24.222  44.933  49.432  1.00  0.00    -0.280 NA
HETATM    8  C   UNL     1      23.912  44.018  50.559  1.00  0.00     0.115 C 
HETATM    9  C   UNL     1      25.187  43.608  51.334  1.00  0.00     0.138 C 
HETATM   10  N   UNL     1      25.932  44.804  51.795  1.00  0.00    -0.374 N 
HETATM   11  C   UNL     1      26.275  45.697  50.657  1.00  0.00     0.138 C 
HETATM   12  C   UNL     1      25.006  46.119  49.882  1.00  0.00     0.115 C 
BRANCH  10  13
HETATM   13  C   UNL     1      26.950  44.655  52.756  1.00  0.00     0.115 A 
HETATM   14  C   UNL     1      26.964  45.310  54.006  1.00  0.00     0.187 A 
HETATM   15  F   UNL     1      25.946  46.102  54.376  1.00  0.00    -0.200 F 
HETATM   16  C   UNL     1      28.013  45.146  54.913  1.00  0.00     0.199 A 
HETATM   17  F   UNL     1      27.976  45.783  56.092  1.00  0.00    -0.199 F 
HETATM   18  C   UNL     1      29.087  44.331  54.604  1.00  0.00     0.199 A 
HETATM   19  F   UNL     1      30.090  44.177  55.479  1.00  0.00    -0.199 F 
HETATM   20  C   UNL     1      29.120  43.680  53.385  1.00  0.00     0.199 A 
HETATM   21  F   UNL     1      30.163  42.897  53.072  1.00  0.00    -0.199 F 
HETATM   22  C   UNL     1      28.075  43.844  52.477  1.00  0.00     0.187 A 
HETATM   23  F   UNL     1      28.178  43.226  51.287  1.00  0.00    -0.200 F 
ENDBRANCH  10  13
ENDBRANCH   4   7
BRANCH   1  24
HETATM   24  N   UNL     1      20.107  46.247  45.753  1.00  0.00    -0.333 N 
HETATM   25  H   UNL     1      20.479  46.436  44.822  1.00  0.00     0.168 HD
BRANCH  24  26
HETATM   26  C   UNL     1      18.734  46.330  45.809  1.00  0.00     0.178 C 
HETATM   27  S   UNL     1      17.582  45.720  44.767  1.00  0.00    -0.040 SA
BRANCH  26  28
HETATM   28  N   UNL     1      18.250  47.082  46.870  1.00  0.00    -0.302 N 
HETATM   29  C   UNL     1      17.666  46.654  48.054  1.00  0.00     0.248 C 
HETATM   30  O   UNL     1      17.368  45.482  48.284  1.00  0.00    -0.271 OA
HETATM   31  H   UNL     1      18.464  48.073  46.804  1.00  0.00     0.171 HD
BRANCH  29  32
HETATM   32  C   UNL     1      17.393  47.775  49.049  1.00  0.00     0.278 C 
BRANCH  32  33
HETATM   33  O   UNL     1      18.571  48.272  49.672  1.00  0.00    -0.342 OA
BRANCH  33  34
HETATM   34  C   UNL     1      18.952  49.543  49.330  1.00  0.00     0.069 A 
HETATM   35  C   UNL     1      20.269  49.993  49.212  1.00  0.00     0.037 A 
HETATM   36  C   UNL     1      20.527  51.315  48.833  1.00  0.00     0.003 A 
HETATM   37  C   UNL     1      19.475  52.189  48.570  1.00  0.00     0.000 A 
HETATM   38  C   UNL     1      18.161  51.740  48.678  1.00  0.00     0.003 A 
HETATM   39  C   UNL     1      17.902  50.419  49.048  1.00  0.00     0.037 A 
ENDBRANCH  33  34
ENDBRANCH  32  33
ENDBRANCH  29  32
ENDBRANCH  26  28
ENDBRANCH  24  26
ENDBRANCH   1  24
TORSDOF 8
ENDMDL
MODEL 8
REMARK VINA RESULT:      -8.8      6.825     12.017
REMARK  8 active torsions:
REMARK  status: ('A' for Active; 'I' for Inactive)
REMARK    1  A    between atoms: C_4  and  O_5 
REMARK    2  A    between atoms: O_5  and  C_6 
REMARK    3  A    between atoms: C_6  and  C_7 
REMARK       I    between atoms: C_7  and  N_8 
REMARK    4  A    between atoms: N_8  and  C_9 
REMARK    5  A    between atoms: C_9  and  N_10 
REMARK    6  A    between atoms: N_10  and  C_11 
REMARK    7  A    between atoms: C_14  and  N_15 
REMARK    8  A    between atoms: N_18  and  C_19 
ROOT
HETATM    1  C   UNL     1      25.442  46.045  49.873  1.00  0.00     0.034 A 
HETATM    2  C   UNL     1      24.472  45.099  49.528  1.00  0.00     0.031 A 
HETATM    3  C   UNL     1      23.191  45.490  49.109  1.00  0.00     0.026 A 
HETATM    4  C   UNL     1      22.825  46.838  49.029  1.00  0.00     0.010 A 
HETATM    5  C   UNL     1      23.786  47.767  49.461  1.00  0.00     0.026 A 
HETATM    6  C   UNL     1      25.076  47.383  49.866  1.00  0.00     0.031 A 
ENDROOT
BRANCH   4   7
HETATM    7  N   UNL     1      21.565  47.280  48.583  1.00  0.00    -0.280 NA
HETATM    8  C   UNL     1      21.220  47.043  47.158  1.00  0.00     0.115 C 
HETATM    9  C   UNL     1      19.750  47.420  46.854  1.00  0.00     0.138 C 
HETATM   10  N   UNL     1      19.469  48.819  47.256  1.00  0.00    -0.374 N 
HETATM   11  C   UNL     1      19.779  49.039  48.693  1.00  0.00     0.138 C 
HETATM   12  C   UNL     1      21.249  48.674  49.005  1.00  0.00     0.115 C 
BRANCH  10  13
HETATM   13  C   UNL     1      18.290  49.444  46.803  1.00  0.00     0.115 A 
HETATM   14  C   UNL     1      18.262  50.504  45.873  1.00  0.00     0.187 A 
HETATM   15  F   UNL     1      19.395  50.957  45.315  1.00  0.00    -0.200 F 
HETATM   16  C   UNL     1      17.066  51.106  45.478  1.00  0.00     0.199 A 
HETATM   17  F   UNL     1      17.089  52.105  44.583  1.00  0.00    -0.199 F 
HETATM   18  C   UNL     1      15.859  50.678  46.000  1.00  0.00     0.199 A 
HETATM   19  F   UNL     1      14.714  51.258  45.616  1.00  0.00    -0.199 F 
HETATM   20  C   UNL     1      15.842  49.649  46.924  1.00  0.00     0.199 A 
HETATM   21  F   UNL     1      14.678  49.236  47.445  1.00  0.00    -0.199 F 
HETATM   22  C   UNL     1      17.035  49.049  47.322  1.00  0.00     0.187 A 
HETATM   23  F   UNL     1      16.969  48.086  48.257  1.00  0.00    -0.200 F 
ENDBRANCH  10  13
ENDBRANCH   4   7
BRANCH   1  24
HETATM   24  N   UNL     1      26.711  45.539  50.220  1.00  0.00    -0.333 N 
HETATM   25  H   UNL     1      27.450  46.243  50.210  1.00  0.00     0.168 HD
BRANCH  24  26
HETATM   26  C   UNL     1      27.140  44.317  50.686  1.00  0.00     0.178 C 
HETATM   27  S   UNL     1      27.148  42.827  49.933  1.00  0.00    -0.040 SA
BRANCH  26  28
HETATM   28  N   UNL     1      27.583  44.330  52.002  1.00  0.00    -0.302 N 
HETATM   29  C   UNL     1      26.888  44.660  53.157  1.00  0.00     0.248 C 
HETATM   30  O   UNL     1      25.752  45.134  53.160  1.00  0.00    -0.271 OA
HETATM   31  H   UNL     1      28.509  43.932  52.129  1.00  0.00     0.171 HD
BRANCH  29  32
HETATM   32  C   UNL     1      27.671  44.412  54.440  1.00  0.00     0.278 C 
BRANCH  32  33
HETATM   33  O   UNL     1      29.055  44.716  54.319  1.00  0.00    -0.342 OA
BRANCH  33  34
HETATM   34  C   UNL     1      29.831  44.479  55.423  1.00  0.00     0.069 A 
HETATM   35  C   UNL     1      30.673  43.380  55.606  1.00  0.00     0.037 A 
HETATM   36  C   UNL     1      31.433  43.265  56.774  1.00  0.00     0.003 A 
HETATM   37  C   UNL     1      31.358  44.245  57.761  1.00  0.00     0.000 A 
HETATM   38  C   UNL     1      30.527  45.347  57.578  1.00  0.00     0.003 A 
HETATM   39  C   UNL     1      29.774  45.468  56.409  1.00  0.00     0.037 A 
ENDBRANCH  33  34
ENDBRANCH  32  33
ENDBRANCH  29  32
ENDBRANCH  26  28
ENDBRANCH  24  26
ENDBRANCH   1  24
TORSDOF 8
ENDMDL
MODEL 9
REMARK VINA RESULT:      -8.7      7.097     11.982
REMARK  8 active torsions:
REMARK  status: ('A' for Active; 'I' for Inactive)
REMARK    1  A    between atoms: C_4  and  O_5 
REMARK    2  A    between atoms: O_5  and  C_6 
REMARK    3  A    between atoms: C_6  and  C_7 
REMARK       I    between atoms: C_7  and  N_8 
REMARK    4  A    between atoms: N_8  and  C_9 
REMARK    5  A    between atoms: C_9  and  N_10 
REMARK    6  A    between atoms: N_10  and  C_11 
REMARK    7  A    between atoms: C_14  and  N_15 
REMARK    8  A    between atoms: N_18  and  C_19 
ROOT
HETATM    1  C   UNL     1      23.888  45.392  48.759  1.00  0.00     0.034 A 
HETATM    2  C   UNL     1      24.084  46.698  49.218  1.00  0.00     0.031 A 
HETATM    3  C   UNL     1      23.031  47.625  49.248  1.00  0.00     0.026 A 
HETATM    4  C   UNL     1      21.746  47.289  48.811  1.00  0.00     0.010 A 
HETATM    5  C   UNL     1      21.591  46.000  48.275  1.00  0.00     0.026 A 
HETATM    6  C   UNL     1      22.637  45.061  48.258  1.00  0.00     0.031 A 
ENDROOT
BRANCH   4   7
HETATM    7  N   UNL     1      20.650  48.173  48.852  1.00  0.00    -0.280 NA
HETATM    8  C   UNL     1      19.306  47.614  48.559  1.00  0.00     0.115 C 
HETATM    9  C   UNL     1      18.186  48.652  48.809  1.00  0.00     0.138 C 
HETATM   10  N   UNL     1      18.437  49.896  48.043  1.00  0.00    -0.374 N 
HETATM   11  C   UNL     1      19.768  50.472  48.370  1.00  0.00     0.138 C 
HETATM   12  C   UNL     1      20.894  49.445  48.114  1.00  0.00     0.115 C 
BRANCH  10  13
HETATM   13  C   UNL     1      17.402  50.841  47.903  1.00  0.00     0.115 A 
HETATM   14  C   UNL     1      16.789  51.512  48.982  1.00  0.00     0.187 A 
HETATM   15  F   UNL     1      17.208  51.312  50.241  1.00  0.00    -0.200 F 
HETATM   16  C   UNL     1      15.747  52.421  48.789  1.00  0.00     0.199 A 
HETATM   17  F   UNL     1      15.202  53.040  49.846  1.00  0.00    -0.199 F 
HETATM   18  C   UNL     1      15.275  52.687  47.516  1.00  0.00     0.199 A 
HETATM   19  F   UNL     1      14.275  53.562  47.337  1.00  0.00    -0.199 F 
HETATM   20  C   UNL     1      15.839  52.043  46.431  1.00  0.00     0.199 A 
HETATM   21  F   UNL     1      15.380  52.286  45.195  1.00  0.00    -0.199 F 
HETATM   22  C   UNL     1      16.878  51.133  46.622  1.00  0.00     0.187 A 
HETATM   23  F   UNL     1      17.360  50.498  45.539  1.00  0.00    -0.200 F 
ENDBRANCH  10  13
ENDBRANCH   4   7
BRANCH   1  24
HETATM   24  N   UNL     1      25.001  44.531  48.832  1.00  0.00    -0.333 N 
HETATM   25  H   UNL     1      25.716  44.724  48.130  1.00  0.00     0.168 HD
BRANCH  24  26
HETATM   26  C   UNL     1      25.380  43.559  49.731  1.00  0.00     0.178 C 
HETATM   27  S   UNL     1      25.060  41.920  49.732  1.00  0.00    -0.040 SA
BRANCH  26  28
HETATM   28  N   UNL     1      26.090  44.036  50.823  1.00  0.00    -0.302 N 
HETATM   29  C   UNL     1      25.621  44.442  52.064  1.00  0.00     0.248 C 
HETATM   30  O   UNL     1      24.427  44.560  52.339  1.00  0.00    -0.271 OA
HETATM   31  H   UNL     1      27.099  43.963  50.722  1.00  0.00     0.171 HD
BRANCH  29  32
HETATM   32  C   UNL     1      26.723  44.767  53.065  1.00  0.00     0.278 C 
BRANCH  32  33
HETATM   33  O   UNL     1      27.357  43.609  53.595  1.00  0.00    -0.342 OA
BRANCH  33  34
HETATM   34  C   UNL     1      28.471  43.821  54.364  1.00  0.00     0.069 A 
HETATM   35  C   UNL     1      29.557  42.951  54.481  1.00  0.00     0.037 A 
HETATM   36  C   UNL     1      30.649  43.295  55.284  1.00  0.00     0.003 A 
HETATM   37  C   UNL     1      30.661  44.507  55.972  1.00  0.00     0.000 A 
HETATM   38  C   UNL     1      29.584  45.381  55.849  1.00  0.00     0.003 A 
HETATM   39  C   UNL     1      28.498  45.043  55.041  1.00  0.00     0.037 A 
ENDBRANCH  33  34
ENDBRANCH  32  33
ENDBRANCH  29  32
ENDBRANCH  26  28
ENDBRANCH  24  26
ENDBRANCH   1  24
TORSDOF 8
ENDMDL
MODEL 10
REMARK VINA RESULT:      -8.5      2.670      4.219
REMARK  8 active torsions:
REMARK  status: ('A' for Active; 'I' for Inactive)
REMARK    1  A    between atoms: C_4  and  O_5 
REMARK    2  A    between atoms: O_5  and  C_6 
REMARK    3  A    between atoms: C_6  and  C_7 
REMARK       I    between atoms: C_7  and  N_8 
REMARK    4  A    between atoms: N_8  and  C_9 
REMARK    5  A    between atoms: C_9  and  N_10 
REMARK    6  A    between atoms: N_10  and  C_11 
REMARK    7  A    between atoms: C_14  and  N_15 
REMARK    8  A    between atoms: N_18  and  C_19 
ROOT
HETATM    1  C   UNL     1      21.294  45.242  47.077  1.00  0.00     0.034 A 
HETATM    2  C   UNL     1      21.798  46.470  47.514  1.00  0.00     0.031 A 
HETATM    3  C   UNL     1      22.742  46.543  48.550  1.00  0.00     0.026 A 
HETATM    4  C   UNL     1      23.211  45.393  49.196  1.00  0.00     0.010 A 
HETATM    5  C   UNL     1      22.630  44.179  48.798  1.00  0.00     0.026 A 
HETATM    6  C   UNL     1      21.696  44.098  47.750  1.00  0.00     0.031 A 
ENDROOT
BRANCH   4   7
HETATM    7  N   UNL     1      24.182  45.412  50.216  1.00  0.00    -0.280 NA
HETATM    8  C   UNL     1      25.539  45.899  49.862  1.00  0.00     0.115 C 
HETATM    9  C   UNL     1      26.446  46.028  51.110  1.00  0.00     0.138 C 
HETATM   10  N   UNL     1      26.504  44.747  51.855  1.00  0.00    -0.374 N 
HETATM   11  C   UNL     1      25.145  44.285  52.241  1.00  0.00     0.138 C 
HETATM   12  C   UNL     1      24.235  44.145  50.999  1.00  0.00     0.115 C 
BRANCH  10  13
HETATM   13  C   UNL     1      27.492  44.569  52.844  1.00  0.00     0.115 A 
HETATM   14  C   UNL     1      28.545  43.635  52.753  1.00  0.00     0.187 A 
HETATM   15  F   UNL     1      28.695  42.874  51.658  1.00  0.00    -0.200 F 
HETATM   16  C   UNL     1      29.484  43.480  53.775  1.00  0.00     0.199 A 
HETATM   17  F   UNL     1      30.473  42.585  53.638  1.00  0.00    -0.199 F 
HETATM   18  C   UNL     1      29.400  44.244  54.925  1.00  0.00     0.199 A 
HETATM   19  F   UNL     1      30.305  44.092  55.903  1.00  0.00    -0.199 F 
HETATM   20  C   UNL     1      28.376  45.163  55.061  1.00  0.00     0.199 A 
HETATM   21  F   UNL     1      28.281  45.899  56.178  1.00  0.00    -0.199 F 
HETATM   22  C   UNL     1      27.437  45.317  54.043  1.00  0.00     0.187 A 
HETATM   23  F   UNL     1      26.435  46.190  54.244  1.00  0.00    -0.200 F 
ENDBRANCH  10  13
ENDBRANCH   4   7
BRANCH   1  24
HETATM   24  N   UNL     1      20.398  45.287  45.990  1.00  0.00    -0.333 N 
HETATM   25  H   UNL     1      20.857  45.285  45.079  1.00  0.00     0.168 HD
BRANCH  24  26
HETATM   26  C   UNL     1      19.026  45.212  45.900  1.00  0.00     0.178 C 
HETATM   27  S   UNL     1      18.069  44.216  44.961  1.00  0.00    -0.040 SA
BRANCH  26  28
HETATM   28  N   UNL     1      18.350  46.146  46.671  1.00  0.00    -0.302 N 
HETATM   29  C   UNL     1      18.237  47.518  46.488  1.00  0.00     0.248 C 
HETATM   30  O   UNL     1      18.862  48.147  45.634  1.00  0.00    -0.271 OA
HETATM   31  H   UNL     1      17.771  45.738  47.399  1.00  0.00     0.171 HD
BRANCH  29  32
HETATM   32  C   UNL     1      17.285  48.195  47.465  1.00  0.00     0.278 C 
BRANCH  32  33
HETATM   33  O   UNL     1      17.898  48.528  48.705  1.00  0.00    -0.342 OA
BRANCH  33  34
HETATM   34  C   UNL     1      18.770  49.585  48.689  1.00  0.00     0.069 A 
HETATM   35  C   UNL     1      18.453  50.897  48.331  1.00  0.00     0.037 A 
HETATM   36  C   UNL     1      19.432  51.894  48.379  1.00  0.00     0.003 A 
HETATM   37  C   UNL     1      20.728  51.587  48.784  1.00  0.00     0.000 A 
HETATM   38  C   UNL     1      21.046  50.282  49.152  1.00  0.00     0.003 A 
HETATM   39  C   UNL     1      20.067  49.287  49.113  1.00  0.00     0.037 A 
ENDBRANCH  33  34
ENDBRANCH  32  33
ENDBRANCH  29  32
ENDBRANCH  26  28
ENDBRANCH  24  26
ENDBRANCH   1  24
TORSDOF 8
ENDMDL
