MODEL 1
REMARK VINA RESULT:      -8.3      0.000      0.000
REMARK  5 active torsions:
REMARK  status: ('A' for Active; 'I' for Inactive)
REMARK    1  A    between atoms: C_11  and  N_12 
REMARK       I    between atoms: N_12  and  C_13 
REMARK       I    between atoms: C_13  and  N_14 
REMARK    2  A    between atoms: N_14  and  C_15 
REMARK    3  A    between atoms: C_15  and  C_16 
REMARK    4  A    between atoms: C_16  and  N_17 
REMARK    5  A    between atoms: C_16  and  C_21 
ROOT
HETATM    1  N   UNL     1      26.712  44.666  49.673  1.00  0.00    -0.309 N 
HETATM    2  C   UNL     1      27.283  43.976  50.691  1.00  0.00     0.320 C 
HETATM    3  N   UNL     1      27.613  44.642  51.823  1.00  0.00    -0.341 N 
HETATM    4  O   UNL     1      27.508  42.772  50.571  1.00  0.00    -0.247 OA
HETATM    5  H   UNL     1      26.651  44.101  48.831  1.00  0.00     0.170 HD
HETATM    6  H   UNL     1      27.872  45.605  51.643  1.00  0.00     0.164 HD
ENDROOT
BRANCH   1   7
HETATM    7  C   UNL     1      26.183  45.968  49.559  1.00  0.00     0.038 A 
HETATM    8  C   UNL     1      26.928  47.143  49.579  1.00  0.00     0.032 A 
HETATM    9  C   UNL     1      26.292  48.379  49.414  1.00  0.00     0.036 A 
HETATM   10  C   UNL     1      24.917  48.476  49.264  1.00  0.00     0.086 A 
HETATM   11  N   UNL     1      24.346  49.681  49.094  1.00  0.00    -0.250 NA
HETATM   12  C   UNL     1      24.147  47.297  49.306  1.00  0.00     0.088 A 
HETATM   13  C   UNL     1      22.993  49.716  48.977  1.00  0.00     0.055 A 
HETATM   14  C   UNL     1      22.375  51.067  48.774  1.00  0.00     0.072 C 
HETATM   15  C   UNL     1      22.228  48.552  49.047  1.00  0.00     0.055 A 
HETATM   16  N   UNL     1      22.807  47.333  49.201  1.00  0.00    -0.250 NA
HETATM   17  C   UNL     1      20.733  48.575  48.955  1.00  0.00     0.072 C 
HETATM   18  C   UNL     1      24.789  46.072  49.451  1.00  0.00     0.063 A 
ENDBRANCH   1   7
BRANCH   3  19
HETATM   19  C   UNL     1      28.269  44.046  52.989  1.00  0.00     0.163 C 
BRANCH  19  20
HETATM   20  C   UNL     1      28.420  44.941  54.269  1.00  0.00     0.244 C 
BRANCH  20  21
HETATM   21  N   UNL     1      27.084  45.133  54.995  1.00  0.00    -0.068 N 
HETATM   22  H   UNL     1      27.368  45.198  55.995  1.00  0.00     0.279 HD
HETATM   23  C   UNL     1      26.319  46.382  54.702  1.00  0.00     0.270 C 
HETATM   24  C   UNL     1      26.202  43.920  54.934  1.00  0.00     0.270 C 
ENDBRANCH  20  21
BRANCH  20  25
HETATM   25  C   UNL     1      29.518  44.431  55.175  1.00  0.00     0.015 A 
HETATM   26  S   UNL     1      30.094  45.441  56.444  1.00  0.00    -0.104 SA
HETATM   27  C   UNL     1      31.219  44.271  56.964  1.00  0.00     0.050 A 
HETATM   28  C   UNL     1      31.178  43.135  56.188  1.00  0.00     0.008 A 
HETATM   29  C   UNL     1      30.201  43.227  55.154  1.00  0.00     0.017 A 
ENDBRANCH  20  25
ENDBRANCH  19  20
ENDBRANCH   3  19
TORSDOF 5
ENDMDL
MODEL 2
REMARK VINA RESULT:      -8.1      2.864      8.936
REMARK  5 active torsions:
REMARK  status: ('A' for Active; 'I' for Inactive)
REMARK    1  A    between atoms: C_11  and  N_12 
REMARK       I    between atoms: N_12  and  C_13 
REMARK       I    between atoms: C_13  and  N_14 
REMARK    2  A    between atoms: N_14  and  C_15 
REMARK    3  A    between atoms: C_15  and  C_16 
REMARK    4  A    between atoms: C_16  and  N_17 
REMARK    5  A    between atoms: C_16  and  C_21 
ROOT
HETATM    1  N   UNL     1      25.950  44.551  51.666  1.00  0.00    -0.309 N 
HETATM    2  C   UNL     1      25.249  45.113  50.651  1.00  0.00     0.320 C 
HETATM    3  N   UNL     1      24.853  46.402  50.770  1.00  0.00    -0.341 N 
HETATM    4  O   UNL     1      24.968  44.448  49.653  1.00  0.00    -0.247 OA
HETATM    5  H   UNL     1      26.057  43.549  51.533  1.00  0.00     0.170 HD
HETATM    6  H   UNL     1      24.667  46.661  51.731  1.00  0.00     0.164 HD
ENDROOT
BRANCH   1   7
HETATM    7  C   UNL     1      26.560  45.067  52.828  1.00  0.00     0.038 A 
HETATM    8  C   UNL     1      26.127  46.186  53.533  1.00  0.00     0.032 A 
HETATM    9  C   UNL     1      26.794  46.580  54.700  1.00  0.00     0.036 A 
HETATM   10  C   UNL     1      27.910  45.902  55.164  1.00  0.00     0.086 A 
HETATM   11  N   UNL     1      28.513  46.303  56.297  1.00  0.00    -0.250 NA
HETATM   12  C   UNL     1      28.394  44.805  54.423  1.00  0.00     0.088 A 
HETATM   13  C   UNL     1      29.616  45.615  56.691  1.00  0.00     0.055 A 
HETATM   14  C   UNL     1      30.267  46.068  57.963  1.00  0.00     0.072 C 
HETATM   15  C   UNL     1      30.112  44.548  55.942  1.00  0.00     0.055 A 
HETATM   16  N   UNL     1      29.493  44.133  54.806  1.00  0.00    -0.250 NA
HETATM   17  C   UNL     1      31.348  43.801  56.341  1.00  0.00     0.072 C 
HETATM   18  C   UNL     1      27.714  44.410  53.276  1.00  0.00     0.063 A 
ENDBRANCH   1   7
BRANCH   3  19
HETATM   19  C   UNL     1      24.058  47.133  49.779  1.00  0.00     0.163 C 
BRANCH  19  20
HETATM   20  C   UNL     1      24.393  48.650  49.563  1.00  0.00     0.244 C 
BRANCH  20  21
HETATM   21  N   UNL     1      25.644  48.844  48.699  1.00  0.00    -0.068 N 
HETATM   22  H   UNL     1      25.595  48.046  48.032  1.00  0.00     0.279 HD
HETATM   23  C   UNL     1      25.713  50.079  47.861  1.00  0.00     0.270 C 
HETATM   24  C   UNL     1      26.920  48.620  49.456  1.00  0.00     0.270 C 
ENDBRANCH  20  21
BRANCH  20  25
HETATM   25  C   UNL     1      23.193  49.414  49.048  1.00  0.00     0.015 A 
HETATM   26  S   UNL     1      22.122  48.645  47.941  1.00  0.00    -0.104 SA
HETATM   27  C   UNL     1      21.123  50.023  47.838  1.00  0.00     0.050 A 
HETATM   28  C   UNL     1      21.591  51.058  48.615  1.00  0.00     0.008 A 
HETATM   29  C   UNL     1      22.787  50.710  49.310  1.00  0.00     0.017 A 
ENDBRANCH  20  25
ENDBRANCH  19  20
ENDBRANCH   3  19
TORSDOF 5
ENDMDL
MODEL 3
REMARK VINA RESULT:      -8.0      3.505      8.184
REMARK  5 active torsions:
REMARK  status: ('A' for Active; 'I' for Inactive)
REMARK    1  A    between atoms: C_11  and  N_12 
REMARK       I    between atoms: N_12  and  C_13 
REMARK       I    between atoms: C_13  and  N_14 
REMARK    2  A    between atoms: N_14  and  C_15 
REMARK    3  A    between atoms: C_15  and  C_16 
REMARK    4  A    between atoms: C_16  and  N_17 
REMARK    5  A    between atoms: C_16  and  C_21 
ROOT
HETATM    1  N   UNL     1      28.707  41.535  51.500  1.00  0.00    -0.309 N 
HETATM    2  C   UNL     1      27.853  41.299  50.474  1.00  0.00     0.320 C 
HETATM    3  N   UNL     1      26.709  42.019  50.402  1.00  0.00    -0.341 N 
HETATM    4  O   UNL     1      28.115  40.431  49.640  1.00  0.00    -0.247 OA
HETATM    5  H   UNL     1      29.446  40.838  51.536  1.00  0.00     0.170 HD
HETATM    6  H   UNL     1      26.358  42.279  51.316  1.00  0.00     0.164 HD
ENDROOT
BRANCH   1   7
HETATM    7  C   UNL     1      28.785  42.538  52.488  1.00  0.00     0.038 A 
HETATM    8  C   UNL     1      28.004  43.689  52.527  1.00  0.00     0.032 A 
HETATM    9  C   UNL     1      28.145  44.596  53.586  1.00  0.00     0.036 A 
HETATM   10  C   UNL     1      29.076  44.398  54.594  1.00  0.00     0.086 A 
HETATM   11  N   UNL     1      29.169  45.283  55.601  1.00  0.00    -0.250 NA
HETATM   12  C   UNL     1      29.914  43.267  54.530  1.00  0.00     0.088 A 
HETATM   13  C   UNL     1      30.115  45.050  56.548  1.00  0.00     0.055 A 
HETATM   14  C   UNL     1      30.195  46.041  57.670  1.00  0.00     0.072 C 
HETATM   15  C   UNL     1      30.964  43.947  56.469  1.00  0.00     0.055 A 
HETATM   16  N   UNL     1      30.858  43.043  55.461  1.00  0.00    -0.250 NA
HETATM   17  C   UNL     1      32.037  43.693  57.484  1.00  0.00     0.072 C 
HETATM   18  C   UNL     1      29.754  42.363  53.485  1.00  0.00     0.063 A 
ENDBRANCH   1   7
BRANCH   3  19
HETATM   19  C   UNL     1      25.673  41.853  49.379  1.00  0.00     0.163 C 
BRANCH  19  20
HETATM   20  C   UNL     1      24.920  43.142  48.898  1.00  0.00     0.244 C 
BRANCH  20  21
HETATM   21  N   UNL     1      23.409  42.910  48.772  1.00  0.00    -0.068 N 
HETATM   22  H   UNL     1      23.067  43.061  49.744  1.00  0.00     0.279 HD
HETATM   23  C   UNL     1      22.641  43.859  47.911  1.00  0.00     0.270 C 
HETATM   24  C   UNL     1      23.057  41.483  48.469  1.00  0.00     0.270 C 
ENDBRANCH  20  21
BRANCH  20  25
HETATM   25  C   UNL     1      25.266  44.338  49.756  1.00  0.00     0.015 A 
HETATM   26  S   UNL     1      24.364  44.628  51.193  1.00  0.00    -0.104 SA
HETATM   27  C   UNL     1      25.267  46.026  51.565  1.00  0.00     0.050 A 
HETATM   28  C   UNL     1      26.230  46.285  50.616  1.00  0.00     0.008 A 
HETATM   29  C   UNL     1      26.228  45.316  49.570  1.00  0.00     0.017 A 
ENDBRANCH  20  25
ENDBRANCH  19  20
ENDBRANCH   3  19
TORSDOF 5
ENDMDL
MODEL 4
REMARK VINA RESULT:      -8.0      3.961      8.247
REMARK  5 active torsions:
REMARK  status: ('A' for Active; 'I' for Inactive)
REMARK    1  A    between atoms: C_11  and  N_12 
REMARK       I    between atoms: N_12  and  C_13 
REMARK       I    between atoms: C_13  and  N_14 
REMARK    2  A    between atoms: N_14  and  C_15 
REMARK    3  A    between atoms: C_15  and  C_16 
REMARK    4  A    between atoms: C_16  and  N_17 
REMARK    5  A    between atoms: C_16  and  C_21 
ROOT
HETATM    1  N   UNL     1      26.388  45.366  52.120  1.00  0.00    -0.309 N 
HETATM    2  C   UNL     1      25.287  44.887  51.492  1.00  0.00     0.320 C 
HETATM    3  N   UNL     1      25.156  43.549  51.338  1.00  0.00    -0.341 N 
HETATM    4  O   UNL     1      24.436  45.665  51.058  1.00  0.00    -0.247 OA
HETATM    5  H   UNL     1      26.450  46.378  52.041  1.00  0.00     0.170 HD
HETATM    6  H   UNL     1      26.051  43.083  51.239  1.00  0.00     0.164 HD
ENDROOT
BRANCH   1   7
HETATM    7  C   UNL     1      27.426  44.761  52.858  1.00  0.00     0.038 A 
HETATM    8  C   UNL     1      28.081  43.585  52.506  1.00  0.00     0.032 A 
HETATM    9  C   UNL     1      29.128  43.101  53.301  1.00  0.00     0.036 A 
HETATM   10  C   UNL     1      29.517  43.748  54.465  1.00  0.00     0.086 A 
HETATM   11  N   UNL     1      30.536  43.260  55.192  1.00  0.00    -0.250 NA
HETATM   12  C   UNL     1      28.818  44.905  54.862  1.00  0.00     0.088 A 
HETATM   13  C   UNL     1      30.857  43.921  56.334  1.00  0.00     0.055 A 
HETATM   14  C   UNL     1      32.005  43.371  57.125  1.00  0.00     0.072 C 
HETATM   15  C   UNL     1      30.147  45.050  56.743  1.00  0.00     0.055 A 
HETATM   16  N   UNL     1      29.128  45.552  55.999  1.00  0.00    -0.250 NA
HETATM   17  C   UNL     1      30.463  45.771  58.018  1.00  0.00     0.072 C 
HETATM   18  C   UNL     1      27.792  45.388  54.057  1.00  0.00     0.063 A 
ENDBRANCH   1   7
BRANCH   3  19
HETATM   19  C   UNL     1      24.047  42.884  50.649  1.00  0.00     0.163 C 
BRANCH  19  20
HETATM   20  C   UNL     1      24.410  41.818  49.558  1.00  0.00     0.244 C 
BRANCH  20  21
HETATM   21  N   UNL     1      24.180  42.348  48.138  1.00  0.00    -0.068 N 
HETATM   22  H   UNL     1      25.139  42.358  47.733  1.00  0.00     0.279 HD
HETATM   23  C   UNL     1      23.353  41.510  47.219  1.00  0.00     0.270 C 
HETATM   24  C   UNL     1      23.748  43.785  48.111  1.00  0.00     0.270 C 
ENDBRANCH  20  21
BRANCH  20  25
HETATM   25  C   UNL     1      25.802  41.264  49.764  1.00  0.00     0.015 A 
HETATM   26  S   UNL     1      27.046  41.688  48.652  1.00  0.00    -0.104 SA
HETATM   27  C   UNL     1      28.207  40.756  49.484  1.00  0.00     0.050 A 
HETATM   28  C   UNL     1      27.669  40.120  50.579  1.00  0.00     0.008 A 
HETATM   29  C   UNL     1      26.282  40.409  50.741  1.00  0.00     0.017 A 
ENDBRANCH  20  25
ENDBRANCH  19  20
ENDBRANCH   3  19
TORSDOF 5
ENDMDL
MODEL 5
REMARK VINA RESULT:      -8.0      4.273      9.694
REMARK  5 active torsions:
REMARK  status: ('A' for Active; 'I' for Inactive)
REMARK    1  A    between atoms: C_11  and  N_12 
REMARK       I    between atoms: N_12  and  C_13 
REMARK       I    between atoms: C_13  and  N_14 
REMARK    2  A    between atoms: N_14  and  C_15 
REMARK    3  A    between atoms: C_15  and  C_16 
REMARK    4  A    between atoms: C_16  and  N_17 
REMARK    5  A    between atoms: C_16  and  C_21 
ROOT
HETATM    1  N   UNL     1      24.602  48.325  49.115  1.00  0.00    -0.309 N 
HETATM    2  C   UNL     1      23.672  49.298  48.955  1.00  0.00     0.320 C 
HETATM    3  N   UNL     1      22.522  49.221  49.665  1.00  0.00    -0.341 N 
HETATM    4  O   UNL     1      23.872  50.218  48.162  1.00  0.00    -0.247 OA
HETATM    5  H   UNL     1      25.345  48.404  48.426  1.00  0.00     0.170 HD
HETATM    6  H   UNL     1      22.242  48.264  49.845  1.00  0.00     0.164 HD
ENDROOT
BRANCH   1   7
HETATM    7  C   UNL     1      24.752  47.266  50.034  1.00  0.00     0.038 A 
HETATM    8  C   UNL     1      24.139  46.021  49.931  1.00  0.00     0.032 A 
HETATM    9  C   UNL     1      24.397  45.031  50.888  1.00  0.00     0.036 A 
HETATM   10  C   UNL     1      25.230  45.267  51.972  1.00  0.00     0.086 A 
HETATM   11  N   UNL     1      25.465  44.286  52.860  1.00  0.00    -0.250 NA
HETATM   12  C   UNL     1      25.806  46.545  52.118  1.00  0.00     0.088 A 
HETATM   13  C   UNL     1      26.269  44.582  53.914  1.00  0.00     0.055 A 
HETATM   14  C   UNL     1      26.530  43.472  54.887  1.00  0.00     0.072 C 
HETATM   15  C   UNL     1      26.816  45.855  54.075  1.00  0.00     0.055 A 
HETATM   16  N   UNL     1      26.592  46.840  53.168  1.00  0.00    -0.250 NA
HETATM   17  C   UNL     1      27.675  46.210  55.250  1.00  0.00     0.072 C 
HETATM   18  C   UNL     1      25.558  47.515  51.153  1.00  0.00     0.063 A 
ENDBRANCH   1   7
BRANCH   3  19
HETATM   19  C   UNL     1      21.410  50.170  49.572  1.00  0.00     0.163 C 
BRANCH  19  20
HETATM   20  C   UNL     1      20.010  49.603  49.147  1.00  0.00     0.244 C 
BRANCH  20  21
HETATM   21  N   UNL     1      19.612  48.376  49.975  1.00  0.00    -0.068 N 
HETATM   22  H   UNL     1      20.512  48.086  50.412  1.00  0.00     0.279 HD
HETATM   23  C   UNL     1      18.657  48.592  51.103  1.00  0.00     0.270 C 
HETATM   24  C   UNL     1      19.212  47.203  49.131  1.00  0.00     0.270 C 
ENDBRANCH  20  21
BRANCH  20  25
HETATM   25  C   UNL     1      18.952  50.684  49.144  1.00  0.00     0.015 A 
HETATM   26  S   UNL     1      17.579  50.510  48.121  1.00  0.00    -0.104 SA
HETATM   27  C   UNL     1      16.916  51.994  48.635  1.00  0.00     0.050 A 
HETATM   28  C   UNL     1      17.720  52.626  49.557  1.00  0.00     0.008 A 
HETATM   29  C   UNL     1      18.896  51.874  49.848  1.00  0.00     0.017 A 
ENDBRANCH  20  25
ENDBRANCH  19  20
ENDBRANCH   3  19
TORSDOF 5
ENDMDL
MODEL 6
REMARK VINA RESULT:      -7.9      1.137      2.550
REMARK  5 active torsions:
REMARK  status: ('A' for Active; 'I' for Inactive)
REMARK    1  A    between atoms: C_11  and  N_12 
REMARK       I    between atoms: N_12  and  C_13 
REMARK       I    between atoms: C_13  and  N_14 
REMARK    2  A    between atoms: N_14  and  C_15 
REMARK    3  A    between atoms: C_15  and  C_16 
REMARK    4  A    between atoms: C_16  and  N_17 
REMARK    5  A    between atoms: C_16  and  C_21 
ROOT
HETATM    1  N   UNL     1      26.357  44.156  49.802  1.00  0.00    -0.309 N 
HETATM    2  C   UNL     1      26.674  43.338  50.836  1.00  0.00     0.320 C 
HETATM    3  N   UNL     1      26.824  43.877  52.069  1.00  0.00    -0.341 N 
HETATM    4  O   UNL     1      26.837  42.133  50.642  1.00  0.00    -0.247 OA
HETATM    5  H   UNL     1      26.422  43.670  48.912  1.00  0.00     0.170 HD
HETATM    6  H   UNL     1      27.176  44.827  52.035  1.00  0.00     0.164 HD
ENDROOT
BRANCH   1   7
HETATM    7  C   UNL     1      25.947  45.502  49.719  1.00  0.00     0.038 A 
HETATM    8  C   UNL     1      26.783  46.606  49.858  1.00  0.00     0.032 A 
HETATM    9  C   UNL     1      26.266  47.900  49.715  1.00  0.00     0.036 A 
HETATM   10  C   UNL     1      24.919  48.122  49.468  1.00  0.00     0.086 A 
HETATM   11  N   UNL     1      24.464  49.378  49.321  1.00  0.00    -0.250 NA
HETATM   12  C   UNL     1      24.054  47.012  49.388  1.00  0.00     0.088 A 
HETATM   13  C   UNL     1      23.133  49.535  49.106  1.00  0.00     0.055 A 
HETATM   14  C   UNL     1      22.646  50.942  48.931  1.00  0.00     0.072 C 
HETATM   15  C   UNL     1      22.271  48.440  49.055  1.00  0.00     0.055 A 
HETATM   16  N   UNL     1      22.734  47.169  49.186  1.00  0.00    -0.250 NA
HETATM   17  C   UNL     1      20.795  48.596  48.854  1.00  0.00     0.072 C 
HETATM   18  C   UNL     1      24.580  45.731  49.514  1.00  0.00     0.063 A 
ENDBRANCH   1   7
BRANCH   3  19
HETATM   19  C   UNL     1      27.202  43.133  53.273  1.00  0.00     0.163 C 
BRANCH  19  20
HETATM   20  C   UNL     1      28.015  43.903  54.372  1.00  0.00     0.244 C 
BRANCH  20  21
HETATM   21  N   UNL     1      29.528  43.788  54.153  1.00  0.00    -0.068 N 
HETATM   22  H   UNL     1      29.814  44.773  53.975  1.00  0.00     0.279 HD
HETATM   23  C   UNL     1      30.353  43.320  55.306  1.00  0.00     0.270 C 
HETATM   24  C   UNL     1      29.884  43.061  52.889  1.00  0.00     0.270 C 
ENDBRANCH  20  21
BRANCH  20  25
HETATM   25  C   UNL     1      27.543  45.333  54.510  1.00  0.00     0.015 A 
HETATM   26  S   UNL     1      28.618  46.511  55.158  1.00  0.00    -0.104 SA
HETATM   27  C   UNL     1      27.461  47.755  55.009  1.00  0.00     0.050 A 
HETATM   28  C   UNL     1      26.273  47.294  54.490  1.00  0.00     0.008 A 
HETATM   29  C   UNL     1      26.317  45.897  54.206  1.00  0.00     0.017 A 
ENDBRANCH  20  25
ENDBRANCH  19  20
ENDBRANCH   3  19
TORSDOF 5
ENDMDL
MODEL 7
REMARK VINA RESULT:      -7.7     11.966     14.402
REMARK  5 active torsions:
REMARK  status: ('A' for Active; 'I' for Inactive)
REMARK    1  A    between atoms: C_11  and  N_12 
REMARK       I    between atoms: N_12  and  C_13 
REMARK       I    between atoms: C_13  and  N_14 
REMARK    2  A    between atoms: N_14  and  C_15 
REMARK    3  A    between atoms: C_15  and  C_16 
REMARK    4  A    between atoms: C_16  and  N_17 
REMARK    5  A    between atoms: C_16  and  C_21 
ROOT
HETATM    1  N   UNL     1      30.813  47.672  40.891  1.00  0.00    -0.309 N 
HETATM    2  C   UNL     1      29.821  47.649  39.967  1.00  0.00     0.320 C 
HETATM    3  N   UNL     1      29.207  48.811  39.643  1.00  0.00    -0.341 N 
HETATM    4  O   UNL     1      29.482  46.583  39.452  1.00  0.00    -0.247 OA
HETATM    5  H   UNL     1      31.090  46.732  41.161  1.00  0.00     0.170 HD
HETATM    6  H   UNL     1      29.173  49.459  40.421  1.00  0.00     0.164 HD
ENDROOT
BRANCH   1   7
HETATM    7  C   UNL     1      31.531  48.709  41.519  1.00  0.00     0.038 A 
HETATM    8  C   UNL     1      30.991  49.643  42.398  1.00  0.00     0.032 A 
HETATM    9  C   UNL     1      31.816  50.606  42.993  1.00  0.00     0.036 A 
HETATM   10  C   UNL     1      33.170  50.682  42.704  1.00  0.00     0.086 A 
HETATM   11  N   UNL     1      33.931  51.611  43.307  1.00  0.00    -0.250 NA
HETATM   12  C   UNL     1      33.714  49.781  41.768  1.00  0.00     0.088 A 
HETATM   13  C   UNL     1      35.245  51.654  42.968  1.00  0.00     0.055 A 
HETATM   14  C   UNL     1      36.081  52.688  43.661  1.00  0.00     0.072 C 
HETATM   15  C   UNL     1      35.779  50.782  42.019  1.00  0.00     0.055 A 
HETATM   16  N   UNL     1      35.013  49.832  41.422  1.00  0.00    -0.250 NA
HETATM   17  C   UNL     1      37.217  50.838  41.605  1.00  0.00     0.072 C 
HETATM   18  C   UNL     1      32.891  48.817  41.196  1.00  0.00     0.063 A 
ENDBRANCH   1   7
BRANCH   3  19
HETATM   19  C   UNL     1      28.097  48.942  38.696  1.00  0.00     0.163 C 
BRANCH  19  20
HETATM   20  C   UNL     1      27.088  50.120  38.925  1.00  0.00     0.244 C 
BRANCH  20  21
HETATM   21  N   UNL     1      25.764  49.633  39.526  1.00  0.00    -0.068 N 
HETATM   22  H   UNL     1      25.598  50.306  40.305  1.00  0.00     0.279 HD
HETATM   23  C   UNL     1      24.551  49.701  38.657  1.00  0.00     0.270 C 
HETATM   24  C   UNL     1      25.882  48.300  40.203  1.00  0.00     0.270 C 
ENDBRANCH  20  21
BRANCH  20  25
HETATM   25  C   UNL     1      27.718  51.245  39.716  1.00  0.00     0.015 A 
HETATM   26  S   UNL     1      28.722  52.381  38.901  1.00  0.00    -0.104 SA
HETATM   27  C   UNL     1      29.027  53.251  40.336  1.00  0.00     0.050 A 
HETATM   28  C   UNL     1      28.395  52.690  41.422  1.00  0.00     0.008 A 
HETATM   29  C   UNL     1      27.643  51.531  41.068  1.00  0.00     0.017 A 
ENDBRANCH  20  25
ENDBRANCH  19  20
ENDBRANCH   3  19
TORSDOF 5
ENDMDL
MODEL 8
REMARK VINA RESULT:      -7.7      1.723      3.472
REMARK  5 active torsions:
REMARK  status: ('A' for Active; 'I' for Inactive)
REMARK    1  A    between atoms: C_11  and  N_12 
REMARK       I    between atoms: N_12  and  C_13 
REMARK       I    between atoms: C_13  and  N_14 
REMARK    2  A    between atoms: N_14  and  C_15 
REMARK    3  A    between atoms: C_15  and  C_16 
REMARK    4  A    between atoms: C_16  and  N_17 
REMARK    5  A    between atoms: C_16  and  C_21 
ROOT
HETATM    1  N   UNL     1      26.525  42.838  50.523  1.00  0.00    -0.309 N 
HETATM    2  C   UNL     1      27.027  42.329  51.675  1.00  0.00     0.320 C 
HETATM    3  N   UNL     1      27.078  43.122  52.770  1.00  0.00    -0.341 N 
HETATM    4  O   UNL     1      27.443  41.170  51.707  1.00  0.00    -0.247 OA
HETATM    5  H   UNL     1      26.679  42.209  49.741  1.00  0.00     0.170 HD
HETATM    6  H   UNL     1      27.216  44.098  52.534  1.00  0.00     0.164 HD
ENDROOT
BRANCH   1   7
HETATM    7  C   UNL     1      25.835  44.026  50.207  1.00  0.00     0.038 A 
HETATM    8  C   UNL     1      24.452  44.153  50.123  1.00  0.00     0.032 A 
HETATM    9  C   UNL     1      23.878  45.399  49.840  1.00  0.00     0.036 A 
HETATM   10  C   UNL     1      24.657  46.522  49.603  1.00  0.00     0.086 A 
HETATM   11  N   UNL     1      24.068  47.703  49.349  1.00  0.00    -0.250 NA
HETATM   12  C   UNL     1      26.060  46.389  49.624  1.00  0.00     0.088 A 
HETATM   13  C   UNL     1      24.881  48.762  49.101  1.00  0.00     0.055 A 
HETATM   14  C   UNL     1      24.207  50.074  48.834  1.00  0.00     0.072 C 
HETATM   15  C   UNL     1      26.270  48.625  49.093  1.00  0.00     0.055 A 
HETATM   16  N   UNL     1      26.864  47.435  49.366  1.00  0.00    -0.250 NA
HETATM   17  C   UNL     1      27.182  49.774  48.785  1.00  0.00     0.072 C 
HETATM   18  C   UNL     1      26.620  45.152  49.924  1.00  0.00     0.063 A 
ENDBRANCH   1   7
BRANCH   3  19
HETATM   19  C   UNL     1      27.626  42.729  54.071  1.00  0.00     0.163 C 
BRANCH  19  20
HETATM   20  C   UNL     1      28.461  43.800  54.856  1.00  0.00     0.244 C 
BRANCH  20  21
HETATM   21  N   UNL     1      29.956  43.716  54.529  1.00  0.00    -0.068 N 
HETATM   22  H   UNL     1      30.159  44.649  54.113  1.00  0.00     0.279 HD
HETATM   23  C   UNL     1      30.900  43.561  55.676  1.00  0.00     0.270 C 
HETATM   24  C   UNL     1      30.262  42.742  53.429  1.00  0.00     0.270 C 
ENDBRANCH  20  21
BRANCH  20  25
HETATM   25  C   UNL     1      27.893  45.190  54.671  1.00  0.00     0.015 A 
HETATM   26  S   UNL     1      28.353  46.436  55.766  1.00  0.00    -0.104 SA
HETATM   27  C   UNL     1      27.383  47.592  54.973  1.00  0.00     0.050 A 
HETATM   28  C   UNL     1      26.707  47.051  53.903  1.00  0.00     0.008 A 
HETATM   29  C   UNL     1      26.996  45.665  53.730  1.00  0.00     0.017 A 
ENDBRANCH  20  25
ENDBRANCH  19  20
ENDBRANCH   3  19
TORSDOF 5
ENDMDL
MODEL 9
REMARK VINA RESULT:      -7.6      5.374      8.975
REMARK  5 active torsions:
REMARK  status: ('A' for Active; 'I' for Inactive)
REMARK    1  A    between atoms: C_11  and  N_12 
REMARK       I    between atoms: N_12  and  C_13 
REMARK       I    between atoms: C_13  and  N_14 
REMARK    2  A    between atoms: N_14  and  C_15 
REMARK    3  A    between atoms: C_15  and  C_16 
REMARK    4  A    between atoms: C_16  and  N_17 
REMARK    5  A    between atoms: C_16  and  C_21 
ROOT
HETATM    1  N   UNL     1      27.645  43.360  51.318  1.00  0.00    -0.309 N 
HETATM    2  C   UNL     1      27.183  42.355  50.534  1.00  0.00     0.320 C 
HETATM    3  N   UNL     1      27.714  41.118  50.682  1.00  0.00    -0.341 N 
HETATM    4  O   UNL     1      26.310  42.579  49.694  1.00  0.00    -0.247 OA
HETATM    5  H   UNL     1      27.288  44.261  51.014  1.00  0.00     0.170 HD
HETATM    6  H   UNL     1      28.686  41.147  50.965  1.00  0.00     0.164 HD
ENDROOT
BRANCH   1   7
HETATM    7  C   UNL     1      28.484  43.401  52.450  1.00  0.00     0.038 A 
HETATM    8  C   UNL     1      29.622  42.621  52.636  1.00  0.00     0.032 A 
HETATM    9  C   UNL     1      30.400  42.781  53.789  1.00  0.00     0.036 A 
HETATM   10  C   UNL     1      30.050  43.681  54.785  1.00  0.00     0.086 A 
HETATM   11  N   UNL     1      30.832  43.815  55.869  1.00  0.00    -0.250 NA
HETATM   12  C   UNL     1      28.866  44.429  54.635  1.00  0.00     0.088 A 
HETATM   13  C   UNL     1      30.426  44.694  56.822  1.00  0.00     0.055 A 
HETATM   14  C   UNL     1      31.318  44.841  58.019  1.00  0.00     0.072 C 
HETATM   15  C   UNL     1      29.239  45.413  56.689  1.00  0.00     0.055 A 
HETATM   16  N   UNL     1      28.458  45.289  55.584  1.00  0.00    -0.250 NA
HETATM   17  C   UNL     1      28.757  46.360  57.745  1.00  0.00     0.072 C 
HETATM   18  C   UNL     1      28.109  44.277  53.478  1.00  0.00     0.063 A 
ENDBRANCH   1   7
BRANCH   3  19
HETATM   19  C   UNL     1      27.348  39.944  49.885  1.00  0.00     0.163 C 
BRANCH  19  20
HETATM   20  C   UNL     1      28.489  39.239  49.072  1.00  0.00     0.244 C 
BRANCH  20  21
HETATM   21  N   UNL     1      28.734  37.804  49.553  1.00  0.00    -0.068 N 
HETATM   22  H   UNL     1      29.139  37.341  48.712  1.00  0.00     0.279 HD
HETATM   23  C   UNL     1      29.727  37.610  50.651  1.00  0.00     0.270 C 
HETATM   24  C   UNL     1      27.464  37.050  49.819  1.00  0.00     0.270 C 
ENDBRANCH  20  21
BRANCH  20  25
HETATM   25  C   UNL     1      28.246  39.331  47.582  1.00  0.00     0.015 A 
HETATM   26  S   UNL     1      27.937  40.871  46.877  1.00  0.00    -0.104 SA
HETATM   27  C   UNL     1      27.778  40.205  45.315  1.00  0.00     0.050 A 
HETATM   28  C   UNL     1      27.941  38.838  45.319  1.00  0.00     0.008 A 
HETATM   29  C   UNL     1      28.207  38.332  46.625  1.00  0.00     0.017 A 
ENDBRANCH  20  25
ENDBRANCH  19  20
ENDBRANCH   3  19
TORSDOF 5
ENDMDL
MODEL 10
REMARK VINA RESULT:      -7.3      4.452      7.981
REMARK  5 active torsions:
REMARK  status: ('A' for Active; 'I' for Inactive)
REMARK    1  A    between atoms: C_11  and  N_12 
REMARK       I    between atoms: N_12  and  C_13 
REMARK       I    between atoms: C_13  and  N_14 
REMARK    2  A    between atoms: N_14  and  C_15 
REMARK    3  A    between atoms: C_15  and  C_16 
REMARK    4  A    between atoms: C_16  and  N_17 
REMARK    5  A    between atoms: C_16  and  C_21 
ROOT
HETATM    1  N   UNL     1      24.972  44.692  52.208  1.00  0.00    -0.309 N 
HETATM    2  C   UNL     1      24.911  43.545  51.488  1.00  0.00     0.320 C 
HETATM    3  N   UNL     1      25.983  42.718  51.491  1.00  0.00    -0.341 N 
HETATM    4  O   UNL     1      23.903  43.280  50.833  1.00  0.00    -0.247 OA
HETATM    5  H   UNL     1      24.180  45.298  52.008  1.00  0.00     0.170 HD
HETATM    6  H   UNL     1      26.858  43.220  51.590  1.00  0.00     0.164 HD
ENDROOT
BRANCH   1   7
HETATM    7  C   UNL     1      25.878  45.191  53.167  1.00  0.00     0.038 A 
HETATM    8  C   UNL     1      25.790  46.434  53.785  1.00  0.00     0.032 A 
HETATM    9  C   UNL     1      26.731  46.802  54.755  1.00  0.00     0.036 A 
HETATM   10  C   UNL     1      27.785  45.969  55.100  1.00  0.00     0.086 A 
HETATM   11  N   UNL     1      28.658  46.353  56.046  1.00  0.00    -0.250 NA
HETATM   12  C   UNL     1      27.918  44.735  54.434  1.00  0.00     0.088 A 
HETATM   13  C   UNL     1      29.683  45.507  56.325  1.00  0.00     0.055 A 
HETATM   14  C   UNL     1      30.640  45.946  57.393  1.00  0.00     0.072 C 
HETATM   15  C   UNL     1      29.832  44.298  55.646  1.00  0.00     0.055 A 
HETATM   16  N   UNL     1      28.939  43.903  54.702  1.00  0.00    -0.250 NA
HETATM   17  C   UNL     1      30.976  43.369  55.914  1.00  0.00     0.072 C 
HETATM   18  C   UNL     1      26.968  44.370  53.486  1.00  0.00     0.063 A 
ENDBRANCH   1   7
BRANCH   3  19
HETATM   19  C   UNL     1      26.084  41.468  50.735  1.00  0.00     0.163 C 
BRANCH  19  20
HETATM   20  C   UNL     1      27.507  41.039  50.234  1.00  0.00     0.244 C 
BRANCH  20  21
HETATM   21  N   UNL     1      28.189  40.069  51.205  1.00  0.00    -0.068 N 
HETATM   22  H   UNL     1      27.389  39.535  51.604  1.00  0.00     0.279 HD
HETATM   23  C   UNL     1      29.114  39.053  50.621  1.00  0.00     0.270 C 
HETATM   24  C   UNL     1      28.804  40.758  52.388  1.00  0.00     0.270 C 
ENDBRANCH  20  21
BRANCH  20  25
HETATM   25  C   UNL     1      27.462  40.521  48.814  1.00  0.00     0.015 A 
HETATM   26  S   UNL     1      26.256  39.373  48.378  1.00  0.00    -0.104 SA
HETATM   27  C   UNL     1      26.815  39.287  46.770  1.00  0.00     0.050 A 
HETATM   28  C   UNL     1      27.904  40.101  46.558  1.00  0.00     0.008 A 
HETATM   29  C   UNL     1      28.282  40.810  47.737  1.00  0.00     0.017 A 
ENDBRANCH  20  25
ENDBRANCH  19  20
ENDBRANCH   3  19
TORSDOF 5
ENDMDL
