MODEL 1
REMARK VINA RESULT:      -8.3      0.000      0.000
REMARK  7 active torsions:
REMARK  status: ('A' for Active; 'I' for Inactive)
REMARK    1  A    between atoms: C_2  and  O_3 
REMARK    2  A    between atoms: O_3  and  C_4 
REMARK    3  A    between atoms: C_4  and  C_5 
REMARK    4  A    between atoms: C_10  and  N_11 
REMARK       I    between atoms: N_11  and  C_12 
REMARK       I    between atoms: C_12  and  N_13 
REMARK    5  A    between atoms: N_13  and  N_14 
REMARK       I    between atoms: N_14  and  C_15 
REMARK    6  A    between atoms: C_15  and  C_16 
REMARK    7  A    between atoms: C_19  and  O_20 
ROOT
HETATM    1  N   UNL     1      24.376  46.459  49.847  1.00  0.00    -0.293 N 
HETATM    2  C   UNL     1      25.074  46.541  51.035  1.00  0.00     0.340 C 
HETATM    3  N   UNL     1      25.797  45.386  51.281  1.00  0.00    -0.249 N 
HETATM    4  O   UNL     1      25.050  47.486  51.825  1.00  0.00    -0.245 OA
HETATM    5  H   UNL     1      24.419  45.595  49.327  1.00  0.00     0.172 HD
HETATM    6  H   UNL     1      26.149  44.842  50.496  1.00  0.00     0.192 HD
ENDROOT
BRANCH   1   7
HETATM    7  C   UNL     1      23.523  47.446  49.397  1.00  0.00     0.116 A 
HETATM    8  N   UNL     1      23.834  48.777  49.462  1.00  0.00    -0.345 N 
HETATM    9  C   UNL     1      22.795  49.532  48.982  1.00  0.00     0.024 A 
HETATM   10  H   UNL     1      24.708  49.128  49.839  1.00  0.00     0.167 HD
HETATM   11  C   UNL     1      21.774  48.666  48.595  1.00  0.00     0.071 A 
HETATM   12  C   UNL     1      22.878  51.016  48.961  1.00  0.00     0.069 C 
HETATM   13  C   UNL     1      22.263  47.324  48.837  1.00  0.00     0.000 A 
HETATM   14  C   UNL     1      21.535  46.053  48.556  1.00  0.00     0.053 C 
BRANCH  11  15
HETATM   15  C   UNL     1      20.476  49.102  48.062  1.00  0.00     0.295 C 
HETATM   16  O   UNL     1      20.347  49.722  47.012  1.00  0.00    -0.259 OA
BRANCH  15  17
HETATM   17  O   UNL     1      19.431  48.756  48.870  1.00  0.00    -0.318 OA
BRANCH  17  18
HETATM   18  C   UNL     1      19.326  49.472  50.107  1.00  0.00     0.174 C 
HETATM   19  C   UNL     1      18.624  48.623  51.150  1.00  0.00     0.034 C 
ENDBRANCH  17  18
ENDBRANCH  15  17
ENDBRANCH  11  15
ENDBRANCH   1   7
BRANCH   3  20
HETATM   20  N   UNL     1      26.638  45.365  52.406  1.00  0.00    -0.262 N 
HETATM   21  C   UNL     1      27.498  44.290  52.527  1.00  0.00     0.270 C 
HETATM   22  O   UNL     1      27.503  43.370  51.712  1.00  0.00    -0.266 OA
HETATM   23  H   UNL     1      26.763  46.253  52.890  1.00  0.00     0.190 HD
BRANCH  21  24
HETATM   24  C   UNL     1      28.441  44.294  53.679  1.00  0.00     0.033 A 
HETATM   25  C   UNL     1      29.432  43.322  53.849  1.00  0.00     0.020 A 
HETATM   26  C   UNL     1      30.310  43.405  54.936  1.00  0.00     0.038 A 
HETATM   27  C   UNL     1      30.220  44.455  55.854  1.00  0.00     0.068 A 
HETATM   28  C   UNL     1      29.233  45.426  55.684  1.00  0.00     0.038 A 
HETATM   29  C   UNL     1      28.351  45.346  54.600  1.00  0.00     0.020 A 
BRANCH  27  30
HETATM   30  O   UNL     1      31.147  44.419  56.858  1.00  0.00    -0.356 OA
HETATM   31  C   UNL     1      31.772  43.166  57.110  1.00  0.00     0.210 C 
ENDBRANCH  27  30
ENDBRANCH  21  24
ENDBRANCH   3  20
TORSDOF 7
ENDMDL
MODEL 2
REMARK VINA RESULT:      -7.9      6.067     10.388
REMARK  7 active torsions:
REMARK  status: ('A' for Active; 'I' for Inactive)
REMARK    1  A    between atoms: C_2  and  O_3 
REMARK    2  A    between atoms: O_3  and  C_4 
REMARK    3  A    between atoms: C_4  and  C_5 
REMARK    4  A    between atoms: C_10  and  N_11 
REMARK       I    between atoms: N_11  and  C_12 
REMARK       I    between atoms: C_12  and  N_13 
REMARK    5  A    between atoms: N_13  and  N_14 
REMARK       I    between atoms: N_14  and  C_15 
REMARK    6  A    between atoms: C_15  and  C_16 
REMARK    7  A    between atoms: C_19  and  O_20 
ROOT
HETATM    1  N   UNL     1      28.757  41.529  53.229  1.00  0.00    -0.293 N 
HETATM    2  C   UNL     1      28.196  41.099  52.043  1.00  0.00     0.340 C 
HETATM    3  N   UNL     1      28.735  39.890  51.635  1.00  0.00    -0.249 N 
HETATM    4  O   UNL     1      27.355  41.704  51.379  1.00  0.00    -0.245 OA
HETATM    5  H   UNL     1      29.496  40.976  53.636  1.00  0.00     0.172 HD
HETATM    6  H   UNL     1      29.064  39.230  52.337  1.00  0.00     0.192 HD
ENDROOT
BRANCH   1   7
HETATM    7  C   UNL     1      28.448  42.736  53.822  1.00  0.00     0.116 A 
HETATM    8  N   UNL     1      27.210  43.311  53.727  1.00  0.00    -0.345 N 
HETATM    9  C   UNL     1      27.195  44.518  54.375  1.00  0.00     0.024 A 
HETATM   10  H   UNL     1      26.437  42.890  53.221  1.00  0.00     0.167 HD
HETATM   11  C   UNL     1      28.463  44.739  54.907  1.00  0.00     0.071 A 
HETATM   12  C   UNL     1      25.964  45.353  54.404  1.00  0.00     0.069 C 
HETATM   13  C   UNL     1      29.256  43.574  54.572  1.00  0.00     0.000 A 
HETATM   14  C   UNL     1      30.679  43.334  54.947  1.00  0.00     0.053 C 
BRANCH  11  15
HETATM   15  C   UNL     1      28.853  45.949  55.645  1.00  0.00     0.295 C 
HETATM   16  O   UNL     1      29.028  47.040  55.115  1.00  0.00    -0.259 OA
BRANCH  15  17
HETATM   17  O   UNL     1      29.016  45.722  56.982  1.00  0.00    -0.318 OA
BRANCH  17  18
HETATM   18  C   UNL     1      30.296  46.065  57.529  1.00  0.00     0.174 C 
HETATM   19  C   UNL     1      30.889  44.879  58.265  1.00  0.00     0.034 C 
ENDBRANCH  17  18
ENDBRANCH  15  17
ENDBRANCH  11  15
ENDBRANCH   1   7
BRANCH   3  20
HETATM   20  N   UNL     1      28.188  39.279  50.495  1.00  0.00    -0.262 N 
HETATM   21  C   UNL     1      28.908  38.244  49.931  1.00  0.00     0.270 C 
HETATM   22  O   UNL     1      30.000  37.896  50.377  1.00  0.00    -0.266 OA
HETATM   23  H   UNL     1      27.194  39.437  50.335  1.00  0.00     0.190 HD
BRANCH  21  24
HETATM   24  C   UNL     1      28.303  37.545  48.763  1.00  0.00     0.033 A 
HETATM   25  C   UNL     1      27.091  36.851  48.842  1.00  0.00     0.020 A 
HETATM   26  C   UNL     1      26.560  36.246  47.697  1.00  0.00     0.038 A 
HETATM   27  C   UNL     1      27.217  36.335  46.467  1.00  0.00     0.068 A 
HETATM   28  C   UNL     1      28.425  37.028  46.387  1.00  0.00     0.038 A 
HETATM   29  C   UNL     1      28.962  37.633  47.530  1.00  0.00     0.020 A 
BRANCH  27  30
HETATM   30  O   UNL     1      26.580  35.710  45.431  1.00  0.00    -0.356 OA
HETATM   31  C   UNL     1      27.305  35.584  44.213  1.00  0.00     0.210 C 
ENDBRANCH  27  30
ENDBRANCH  21  24
ENDBRANCH   3  20
TORSDOF 7
ENDMDL
MODEL 3
REMARK VINA RESULT:      -7.8      1.652     10.477
REMARK  7 active torsions:
REMARK  status: ('A' for Active; 'I' for Inactive)
REMARK    1  A    between atoms: C_2  and  O_3 
REMARK    2  A    between atoms: O_3  and  C_4 
REMARK    3  A    between atoms: C_4  and  C_5 
REMARK    4  A    between atoms: C_10  and  N_11 
REMARK       I    between atoms: N_11  and  C_12 
REMARK       I    between atoms: C_12  and  N_13 
REMARK    5  A    between atoms: N_13  and  N_14 
REMARK       I    between atoms: N_14  and  C_15 
REMARK    6  A    between atoms: C_15  and  C_16 
REMARK    7  A    between atoms: C_19  and  O_20 
ROOT
HETATM    1  N   UNL     1      25.734  45.254  51.527  1.00  0.00    -0.293 N 
HETATM    2  C   UNL     1      25.184  46.508  51.348  1.00  0.00     0.340 C 
HETATM    3  N   UNL     1      24.266  46.517  50.312  1.00  0.00    -0.249 N 
HETATM    4  O   UNL     1      25.477  47.524  51.979  1.00  0.00    -0.245 OA
HETATM    5  H   UNL     1      25.464  44.519  50.891  1.00  0.00     0.172 HD
HETATM    6  H   UNL     1      23.737  45.671  50.109  1.00  0.00     0.192 HD
ENDROOT
BRANCH   1   7
HETATM    7  C   UNL     1      26.725  44.984  52.450  1.00  0.00     0.116 A 
HETATM    8  N   UNL     1      26.918  45.744  53.571  1.00  0.00    -0.345 N 
HETATM    9  C   UNL     1      27.989  45.274  54.285  1.00  0.00     0.024 A 
HETATM   10  H   UNL     1      26.348  46.551  53.802  1.00  0.00     0.167 HD
HETATM   11  C   UNL     1      28.512  44.175  53.607  1.00  0.00     0.071 A 
HETATM   12  C   UNL     1      28.418  45.941  55.543  1.00  0.00     0.069 C 
HETATM   13  C   UNL     1      27.674  43.976  52.443  1.00  0.00     0.000 A 
HETATM   14  C   UNL     1      27.821  42.902  51.419  1.00  0.00     0.053 C 
BRANCH  11  15
HETATM   15  C   UNL     1      29.694  43.418  54.043  1.00  0.00     0.295 C 
HETATM   16  O   UNL     1      30.501  42.915  53.271  1.00  0.00    -0.259 OA
BRANCH  15  17
HETATM   17  O   UNL     1      29.786  43.320  55.403  1.00  0.00    -0.318 OA
BRANCH  17  18
HETATM   18  C   UNL     1      31.113  43.257  55.942  1.00  0.00     0.174 C 
HETATM   19  C   UNL     1      31.190  44.034  57.243  1.00  0.00     0.034 C 
ENDBRANCH  17  18
ENDBRANCH  15  17
ENDBRANCH  11  15
ENDBRANCH   1   7
BRANCH   3  20
HETATM   20  N   UNL     1      23.550  47.702  50.079  1.00  0.00    -0.262 N 
HETATM   21  C   UNL     1      22.584  47.669  49.091  1.00  0.00     0.270 C 
HETATM   22  O   UNL     1      22.385  46.662  48.415  1.00  0.00    -0.266 OA
HETATM   23  H   UNL     1      23.583  48.400  50.821  1.00  0.00     0.190 HD
BRANCH  21  24
HETATM   24  C   UNL     1      21.773  48.900  48.885  1.00  0.00     0.033 A 
HETATM   25  C   UNL     1      20.377  48.912  48.977  1.00  0.00     0.020 A 
HETATM   26  C   UNL     1      19.678  50.111  48.808  1.00  0.00     0.038 A 
HETATM   27  C   UNL     1      20.355  51.308  48.557  1.00  0.00     0.068 A 
HETATM   28  C   UNL     1      21.746  51.298  48.466  1.00  0.00     0.038 A 
HETATM   29  C   UNL     1      22.451  50.100  48.632  1.00  0.00     0.020 A 
BRANCH  27  30
HETATM   30  O   UNL     1      19.549  52.405  48.425  1.00  0.00    -0.356 OA
HETATM   31  C   UNL     1      18.356  52.422  49.201  1.00  0.00     0.210 C 
ENDBRANCH  27  30
ENDBRANCH  21  24
ENDBRANCH   3  20
TORSDOF 7
ENDMDL
MODEL 4
REMARK VINA RESULT:      -7.8      2.365     10.732
REMARK  7 active torsions:
REMARK  status: ('A' for Active; 'I' for Inactive)
REMARK    1  A    between atoms: C_2  and  O_3 
REMARK    2  A    between atoms: O_3  and  C_4 
REMARK    3  A    between atoms: C_4  and  C_5 
REMARK    4  A    between atoms: C_10  and  N_11 
REMARK       I    between atoms: N_11  and  C_12 
REMARK       I    between atoms: C_12  and  N_13 
REMARK    5  A    between atoms: N_13  and  N_14 
REMARK       I    between atoms: N_14  and  C_15 
REMARK    6  A    between atoms: C_15  and  C_16 
REMARK    7  A    between atoms: C_19  and  O_20 
ROOT
HETATM    1  N   UNL     1      25.542  47.771  49.960  1.00  0.00    -0.293 N 
HETATM    2  C   UNL     1      24.271  47.958  49.454  1.00  0.00     0.340 C 
HETATM    3  N   UNL     1      24.074  49.267  49.048  1.00  0.00    -0.249 N 
HETATM    4  O   UNL     1      23.384  47.107  49.394  1.00  0.00    -0.245 OA
HETATM    5  H   UNL     1      26.153  48.571  50.025  1.00  0.00     0.172 HD
HETATM    6  H   UNL     1      24.866  49.807  48.706  1.00  0.00     0.192 HD
ENDROOT
BRANCH   1   7
HETATM    7  C   UNL     1      25.978  46.576  50.497  1.00  0.00     0.116 A 
HETATM    8  N   UNL     1      26.215  45.466  49.733  1.00  0.00    -0.345 N 
HETATM    9  C   UNL     1      26.600  44.416  50.525  1.00  0.00     0.024 A 
HETATM   10  H   UNL     1      26.091  45.445  48.726  1.00  0.00     0.167 HD
HETATM   11  C   UNL     1      26.612  44.855  51.848  1.00  0.00     0.071 A 
HETATM   12  C   UNL     1      26.901  43.085  49.935  1.00  0.00     0.069 C 
HETATM   13  C   UNL     1      26.240  46.255  51.818  1.00  0.00     0.000 A 
HETATM   14  C   UNL     1      26.137  47.169  52.991  1.00  0.00     0.053 C 
BRANCH  11  15
HETATM   15  C   UNL     1      26.940  44.004  53.000  1.00  0.00     0.295 C 
HETATM   16  O   UNL     1      26.105  43.582  53.792  1.00  0.00    -0.259 OA
BRANCH  15  17
HETATM   17  O   UNL     1      28.278  43.748  53.104  1.00  0.00    -0.318 OA
BRANCH  17  18
HETATM   18  C   UNL     1      28.934  44.282  54.261  1.00  0.00     0.174 C 
HETATM   19  C   UNL     1      30.057  43.361  54.702  1.00  0.00     0.034 C 
ENDBRANCH  17  18
ENDBRANCH  15  17
ENDBRANCH  11  15
ENDBRANCH   1   7
BRANCH   3  20
HETATM   20  N   UNL     1      22.859  49.582  48.417  1.00  0.00    -0.262 N 
HETATM   21  C   UNL     1      22.018  50.457  49.077  1.00  0.00     0.270 C 
HETATM   22  O   UNL     1      22.295  50.911  50.185  1.00  0.00    -0.266 OA
HETATM   23  H   UNL     1      22.807  49.383  47.419  1.00  0.00     0.190 HD
BRANCH  21  24
HETATM   24  C   UNL     1      20.760  50.851  48.384  1.00  0.00     0.033 A 
HETATM   25  C   UNL     1      20.233  50.133  47.305  1.00  0.00     0.020 A 
HETATM   26  C   UNL     1      19.027  50.537  46.723  1.00  0.00     0.038 A 
HETATM   27  C   UNL     1      18.329  51.646  47.211  1.00  0.00     0.068 A 
HETATM   28  C   UNL     1      18.853  52.362  48.287  1.00  0.00     0.038 A 
HETATM   29  C   UNL     1      20.061  51.964  48.872  1.00  0.00     0.020 A 
BRANCH  27  30
HETATM   30  O   UNL     1      17.160  51.920  46.557  1.00  0.00    -0.356 OA
HETATM   31  C   UNL     1      15.981  51.985  47.350  1.00  0.00     0.210 C 
ENDBRANCH  27  30
ENDBRANCH  21  24
ENDBRANCH   3  20
TORSDOF 7
ENDMDL
MODEL 5
REMARK VINA RESULT:      -7.7     13.273     14.057
REMARK  7 active torsions:
REMARK  status: ('A' for Active; 'I' for Inactive)
REMARK    1  A    between atoms: C_2  and  O_3 
REMARK    2  A    between atoms: O_3  and  C_4 
REMARK    3  A    between atoms: C_4  and  C_5 
REMARK    4  A    between atoms: C_10  and  N_11 
REMARK       I    between atoms: N_11  and  C_12 
REMARK       I    between atoms: C_12  and  N_13 
REMARK    5  A    between atoms: N_13  and  N_14 
REMARK       I    between atoms: N_14  and  C_15 
REMARK    6  A    between atoms: C_15  and  C_16 
REMARK    7  A    between atoms: C_19  and  O_20 
ROOT
HETATM    1  N   UNL     1      33.339  51.697  41.696  1.00  0.00    -0.293 N 
HETATM    2  C   UNL     1      34.025  51.760  42.893  1.00  0.00     0.340 C 
HETATM    3  N   UNL     1      35.387  51.899  42.691  1.00  0.00    -0.249 N 
HETATM    4  O   UNL     1      33.530  51.665  44.016  1.00  0.00    -0.245 OA
HETATM    5  H   UNL     1      33.872  51.710  40.839  1.00  0.00     0.172 HD
HETATM    6  H   UNL     1      35.720  52.388  41.862  1.00  0.00     0.192 HD
ENDROOT
BRANCH   1   7
HETATM    7  C   UNL     1      31.977  51.492  41.611  1.00  0.00     0.116 A 
HETATM    8  N   UNL     1      31.381  50.319  41.987  1.00  0.00    -0.345 N 
HETATM    9  C   UNL     1      30.031  50.377  41.761  1.00  0.00     0.024 A 
HETATM   10  H   UNL     1      31.895  49.526  42.356  1.00  0.00     0.167 HD
HETATM   11  C   UNL     1      29.737  51.626  41.217  1.00  0.00     0.071 A 
HETATM   12  C   UNL     1      29.155  49.217  42.072  1.00  0.00     0.069 C 
HETATM   13  C   UNL     1      30.991  52.348  41.151  1.00  0.00     0.000 A 
HETATM   14  C   UNL     1      31.184  53.743  40.662  1.00  0.00     0.053 C 
BRANCH  11  15
HETATM   15  C   UNL     1      28.394  52.055  40.804  1.00  0.00     0.295 C 
HETATM   16  O   UNL     1      27.637  52.700  41.519  1.00  0.00    -0.259 OA
BRANCH  15  17
HETATM   17  O   UNL     1      28.073  51.642  39.541  1.00  0.00    -0.318 OA
BRANCH  17  18
HETATM   18  C   UNL     1      28.432  52.531  38.476  1.00  0.00     0.174 C 
HETATM   19  C   UNL     1      29.641  51.999  37.730  1.00  0.00     0.034 C 
ENDBRANCH  17  18
ENDBRANCH  15  17
ENDBRANCH  11  15
ENDBRANCH   1   7
BRANCH   3  20
HETATM   20  N   UNL     1      36.203  52.079  43.821  1.00  0.00    -0.262 N 
HETATM   21  C   UNL     1      36.960  53.234  43.870  1.00  0.00     0.270 C 
HETATM   22  O   UNL     1      36.956  54.052  42.952  1.00  0.00    -0.266 OA
HETATM   23  H   UNL     1      35.974  51.511  44.634  1.00  0.00     0.190 HD
BRANCH  21  24
HETATM   24  C   UNL     1      37.775  53.466  45.095  1.00  0.00     0.033 A 
HETATM   25  C   UNL     1      37.598  54.580  45.923  1.00  0.00     0.020 A 
HETATM   26  C   UNL     1      38.373  54.719  47.079  1.00  0.00     0.038 A 
HETATM   27  C   UNL     1      39.320  53.752  47.429  1.00  0.00     0.068 A 
HETATM   28  C   UNL     1      39.496  52.641  46.606  1.00  0.00     0.038 A 
HETATM   29  C   UNL     1      38.725  52.498  45.446  1.00  0.00     0.020 A 
BRANCH  27  30
HETATM   30  O   UNL     1      39.996  54.008  48.590  1.00  0.00    -0.356 OA
HETATM   31  C   UNL     1      41.400  54.212  48.483  1.00  0.00     0.210 C 
ENDBRANCH  27  30
ENDBRANCH  21  24
ENDBRANCH   3  20
TORSDOF 7
ENDMDL
MODEL 6
REMARK VINA RESULT:      -7.5      2.382     10.569
REMARK  7 active torsions:
REMARK  status: ('A' for Active; 'I' for Inactive)
REMARK    1  A    between atoms: C_2  and  O_3 
REMARK    2  A    between atoms: O_3  and  C_4 
REMARK    3  A    between atoms: C_4  and  C_5 
REMARK    4  A    between atoms: C_10  and  N_11 
REMARK       I    between atoms: N_11  and  C_12 
REMARK       I    between atoms: C_12  and  N_13 
REMARK    5  A    between atoms: N_13  and  N_14 
REMARK       I    between atoms: N_14  and  C_15 
REMARK    6  A    between atoms: C_15  and  C_16 
REMARK    7  A    between atoms: C_19  and  O_20 
ROOT
HETATM    1  N   UNL     1      25.547  46.404  50.173  1.00  0.00    -0.293 N 
HETATM    2  C   UNL     1      24.213  46.613  49.890  1.00  0.00     0.340 C 
HETATM    3  N   UNL     1      23.888  47.958  49.940  1.00  0.00    -0.249 N 
HETATM    4  O   UNL     1      23.376  45.741  49.659  1.00  0.00    -0.245 OA
HETATM    5  H   UNL     1      26.114  47.201  50.421  1.00  0.00     0.172 HD
HETATM    6  H   UNL     1      24.596  48.651  49.703  1.00  0.00     0.192 HD
ENDROOT
BRANCH   1   7
HETATM    7  C   UNL     1      26.119  45.150  50.256  1.00  0.00     0.116 A 
HETATM    8  N   UNL     1      26.143  44.278  49.202  1.00  0.00    -0.345 N 
HETATM    9  C   UNL     1      26.735  43.099  49.574  1.00  0.00     0.024 A 
HETATM   10  H   UNL     1      25.749  44.492  48.291  1.00  0.00     0.167 HD
HETATM   11  C   UNL     1      27.106  43.205  50.913  1.00  0.00     0.071 A 
HETATM   12  C   UNL     1      26.869  41.976  48.608  1.00  0.00     0.069 C 
HETATM   13  C   UNL     1      26.733  44.539  51.336  1.00  0.00     0.000 A 
HETATM   14  C   UNL     1      26.950  45.132  52.686  1.00  0.00     0.053 C 
BRANCH  11  15
HETATM   15  C   UNL     1      27.739  42.127  51.685  1.00  0.00     0.295 C 
HETATM   16  O   UNL     1      27.232  41.024  51.853  1.00  0.00    -0.259 OA
BRANCH  15  17
HETATM   17  O   UNL     1      28.947  42.492  52.208  1.00  0.00    -0.318 OA
BRANCH  17  18
HETATM   18  C   UNL     1      29.171  42.143  53.580  1.00  0.00     0.174 C 
HETATM   19  C   UNL     1      30.267  43.010  54.172  1.00  0.00     0.034 C 
ENDBRANCH  17  18
ENDBRANCH  15  17
ENDBRANCH  11  15
ENDBRANCH   1   7
BRANCH   3  20
HETATM   20  N   UNL     1      22.584  48.333  49.574  1.00  0.00    -0.262 N 
HETATM   21  C   UNL     1      22.297  49.685  49.573  1.00  0.00     0.270 C 
HETATM   22  O   UNL     1      23.127  50.524  49.916  1.00  0.00    -0.266 OA
HETATM   23  H   UNL     1      22.041  47.634  49.070  1.00  0.00     0.190 HD
BRANCH  21  24
HETATM   24  C   UNL     1      20.939  50.096  49.119  1.00  0.00     0.033 A 
HETATM   25  C   UNL     1      19.873  49.196  49.011  1.00  0.00     0.020 A 
HETATM   26  C   UNL     1      18.613  49.655  48.614  1.00  0.00     0.038 A 
HETATM   27  C   UNL     1      18.397  51.007  48.332  1.00  0.00     0.068 A 
HETATM   28  C   UNL     1      19.458  51.905  48.441  1.00  0.00     0.038 A 
HETATM   29  C   UNL     1      20.722  51.451  48.836  1.00  0.00     0.020 A 
BRANCH  27  30
HETATM   30  O   UNL     1      17.116  51.319  47.968  1.00  0.00    -0.356 OA
HETATM   31  C   UNL     1      16.276  51.865  48.978  1.00  0.00     0.210 C 
ENDBRANCH  27  30
ENDBRANCH  21  24
ENDBRANCH   3  20
TORSDOF 7
ENDMDL
MODEL 7
REMARK VINA RESULT:      -7.3      6.719      9.156
REMARK  7 active torsions:
REMARK  status: ('A' for Active; 'I' for Inactive)
REMARK    1  A    between atoms: C_2  and  O_3 
REMARK    2  A    between atoms: O_3  and  C_4 
REMARK    3  A    between atoms: C_4  and  C_5 
REMARK    4  A    between atoms: C_10  and  N_11 
REMARK       I    between atoms: N_11  and  C_12 
REMARK       I    between atoms: C_12  and  N_13 
REMARK    5  A    between atoms: N_13  and  N_14 
REMARK       I    between atoms: N_14  and  C_15 
REMARK    6  A    between atoms: C_15  and  C_16 
REMARK    7  A    between atoms: C_19  and  O_20 
ROOT
HETATM    1  N   UNL     1      26.363  40.139  49.944  1.00  0.00    -0.293 N 
HETATM    2  C   UNL     1      27.245  40.542  50.926  1.00  0.00     0.340 C 
HETATM    3  N   UNL     1      26.696  41.526  51.730  1.00  0.00    -0.249 N 
HETATM    4  O   UNL     1      28.397  40.135  51.075  1.00  0.00    -0.245 OA
HETATM    5  H   UNL     1      25.471  40.608  49.881  1.00  0.00     0.172 HD
HETATM    6  H   UNL     1      25.690  41.540  51.883  1.00  0.00     0.192 HD
ENDROOT
BRANCH   1   7
HETATM    7  C   UNL     1      26.682  39.218  48.967  1.00  0.00     0.116 A 
HETATM    8  N   UNL     1      26.182  37.945  48.961  1.00  0.00    -0.345 N 
HETATM    9  C   UNL     1      26.692  37.238  47.903  1.00  0.00     0.024 A 
HETATM   10  H   UNL     1      25.543  37.593  49.667  1.00  0.00     0.167 HD
HETATM   11  C   UNL     1      27.554  38.077  47.198  1.00  0.00     0.071 A 
HETATM   12  C   UNL     1      26.315  35.817  47.682  1.00  0.00     0.069 C 
HETATM   13  C   UNL     1      27.518  39.358  47.873  1.00  0.00     0.000 A 
HETATM   14  C   UNL     1      28.260  40.589  47.474  1.00  0.00     0.053 C 
BRANCH  11  15
HETATM   15  C   UNL     1      28.324  37.669  46.016  1.00  0.00     0.295 C 
HETATM   16  O   UNL     1      29.395  37.076  46.074  1.00  0.00    -0.259 OA
BRANCH  15  17
HETATM   17  O   UNL     1      27.726  38.036  44.843  1.00  0.00    -0.318 OA
BRANCH  17  18
HETATM   18  C   UNL     1      28.322  39.141  44.151  1.00  0.00     0.174 C 
HETATM   19  C   UNL     1      29.140  38.646  42.973  1.00  0.00     0.034 C 
ENDBRANCH  17  18
ENDBRANCH  15  17
ENDBRANCH  11  15
ENDBRANCH   1   7
BRANCH   3  20
HETATM   20  N   UNL     1      27.443  41.962  52.837  1.00  0.00    -0.262 N 
HETATM   21  C   UNL     1      28.105  43.169  52.712  1.00  0.00     0.270 C 
HETATM   22  O   UNL     1      28.080  43.816  51.667  1.00  0.00    -0.266 OA
HETATM   23  H   UNL     1      27.221  41.523  53.729  1.00  0.00     0.190 HD
BRANCH  21  24
HETATM   24  C   UNL     1      28.843  43.672  53.904  1.00  0.00     0.033 A 
HETATM   25  C   UNL     1      30.001  43.059  54.391  1.00  0.00     0.020 A 
HETATM   26  C   UNL     1      30.666  43.604  55.494  1.00  0.00     0.038 A 
HETATM   27  C   UNL     1      30.196  44.765  56.115  1.00  0.00     0.068 A 
HETATM   28  C   UNL     1      29.042  45.378  55.629  1.00  0.00     0.038 A 
HETATM   29  C   UNL     1      28.371  44.835  54.527  1.00  0.00     0.020 A 
BRANCH  27  30
HETATM   30  O   UNL     1      30.949  45.195  57.172  1.00  0.00    -0.356 OA
HETATM   31  C   UNL     1      30.309  46.050  58.112  1.00  0.00     0.210 C 
ENDBRANCH  27  30
ENDBRANCH  21  24
ENDBRANCH   3  20
TORSDOF 7
ENDMDL
MODEL 8
REMARK VINA RESULT:      -7.2      6.946      9.517
REMARK  7 active torsions:
REMARK  status: ('A' for Active; 'I' for Inactive)
REMARK    1  A    between atoms: C_2  and  O_3 
REMARK    2  A    between atoms: O_3  and  C_4 
REMARK    3  A    between atoms: C_4  and  C_5 
REMARK    4  A    between atoms: C_10  and  N_11 
REMARK       I    between atoms: N_11  and  C_12 
REMARK       I    between atoms: C_12  and  N_13 
REMARK    5  A    between atoms: N_13  and  N_14 
REMARK       I    between atoms: N_14  and  C_15 
REMARK    6  A    between atoms: C_15  and  C_16 
REMARK    7  A    between atoms: C_19  and  O_20 
ROOT
HETATM    1  N   UNL     1      26.583  39.103  50.004  1.00  0.00    -0.293 N 
HETATM    2  C   UNL     1      26.958  40.324  50.528  1.00  0.00     0.340 C 
HETATM    3  N   UNL     1      26.569  40.450  51.851  1.00  0.00    -0.249 N 
HETATM    4  O   UNL     1      27.527  41.229  49.919  1.00  0.00    -0.245 OA
HETATM    5  H   UNL     1      26.051  38.475  50.588  1.00  0.00     0.172 HD
HETATM    6  H   UNL     1      26.511  39.618  52.434  1.00  0.00     0.192 HD
ENDROOT
BRANCH   1   7
HETATM    7  C   UNL     1      26.789  38.746  48.687  1.00  0.00     0.116 A 
HETATM    8  N   UNL     1      25.800  38.802  47.743  1.00  0.00    -0.345 N 
HETATM    9  C   UNL     1      26.270  38.356  46.535  1.00  0.00     0.024 A 
HETATM   10  H   UNL     1      24.854  39.111  47.944  1.00  0.00     0.167 HD
HETATM   11  C   UNL     1      27.606  37.996  46.697  1.00  0.00     0.071 A 
HETATM   12  C   UNL     1      25.380  38.302  45.344  1.00  0.00     0.069 C 
HETATM   13  C   UNL     1      27.941  38.278  48.078  1.00  0.00     0.000 A 
HETATM   14  C   UNL     1      29.270  38.081  48.724  1.00  0.00     0.053 C 
BRANCH  11  15
HETATM   15  C   UNL     1      28.448  37.436  45.631  1.00  0.00     0.295 C 
HETATM   16  O   UNL     1      28.814  38.072  44.650  1.00  0.00    -0.259 OA
BRANCH  15  17
HETATM   17  O   UNL     1      28.765  36.124  45.844  1.00  0.00    -0.318 OA
BRANCH  17  18
HETATM   18  C   UNL     1      27.672  35.197  45.811  1.00  0.00     0.174 C 
HETATM   19  C   UNL     1      27.469  34.670  44.403  1.00  0.00     0.034 C 
ENDBRANCH  17  18
ENDBRANCH  15  17
ENDBRANCH  11  15
ENDBRANCH   1   7
BRANCH   3  20
HETATM   20  N   UNL     1      26.972  41.602  52.547  1.00  0.00    -0.262 N 
HETATM   21  C   UNL     1      28.089  41.490  53.352  1.00  0.00     0.270 C 
HETATM   22  O   UNL     1      28.684  40.423  53.490  1.00  0.00    -0.266 OA
HETATM   23  H   UNL     1      26.604  42.487  52.201  1.00  0.00     0.190 HD
BRANCH  21  24
HETATM   24  C   UNL     1      28.564  42.723  54.039  1.00  0.00     0.033 A 
HETATM   25  C   UNL     1      27.789  43.884  54.133  1.00  0.00     0.020 A 
HETATM   26  C   UNL     1      28.281  44.995  54.825  1.00  0.00     0.038 A 
HETATM   27  C   UNL     1      29.537  44.963  55.437  1.00  0.00     0.068 A 
HETATM   28  C   UNL     1      30.311  43.806  55.345  1.00  0.00     0.038 A 
HETATM   29  C   UNL     1      29.824  42.691  54.652  1.00  0.00     0.020 A 
BRANCH  27  30
HETATM   30  O   UNL     1      29.887  46.113  56.088  1.00  0.00    -0.356 OA
HETATM   31  C   UNL     1      30.259  45.988  57.456  1.00  0.00     0.210 C 
ENDBRANCH  27  30
ENDBRANCH  21  24
ENDBRANCH   3  20
TORSDOF 7
ENDMDL
MODEL 9
REMARK VINA RESULT:      -7.1     13.871     14.755
REMARK  7 active torsions:
REMARK  status: ('A' for Active; 'I' for Inactive)
REMARK    1  A    between atoms: C_2  and  O_3 
REMARK    2  A    between atoms: O_3  and  C_4 
REMARK    3  A    between atoms: C_4  and  C_5 
REMARK    4  A    between atoms: C_10  and  N_11 
REMARK       I    between atoms: N_11  and  C_12 
REMARK       I    between atoms: C_12  and  N_13 
REMARK    5  A    between atoms: N_13  and  N_14 
REMARK       I    between atoms: N_14  and  C_15 
REMARK    6  A    between atoms: C_15  and  C_16 
REMARK    7  A    between atoms: C_19  and  O_20 
ROOT
HETATM    1  N   UNL     1      33.533  50.047  41.960  1.00  0.00    -0.293 N 
HETATM    2  C   UNL     1      33.961  51.083  42.767  1.00  0.00     0.340 C 
HETATM    3  N   UNL     1      35.284  50.923  43.141  1.00  0.00    -0.249 N 
HETATM    4  O   UNL     1      33.273  52.023  43.163  1.00  0.00    -0.245 OA
HETATM    5  H   UNL     1      34.176  49.293  41.770  1.00  0.00     0.172 HD
HETATM    6  H   UNL     1      35.924  50.441  42.512  1.00  0.00     0.192 HD
ENDROOT
BRANCH   1   7
HETATM    7  C   UNL     1      32.237  49.926  41.501  1.00  0.00     0.116 A 
HETATM    8  N   UNL     1      31.265  49.264  42.201  1.00  0.00    -0.345 N 
HETATM    9  C   UNL     1      30.089  49.266  41.498  1.00  0.00     0.024 A 
HETATM   10  H   UNL     1      31.427  48.823  43.100  1.00  0.00     0.167 HD
HETATM   11  C   UNL     1      30.301  49.949  40.301  1.00  0.00     0.071 A 
HETATM   12  C   UNL     1      28.877  48.594  42.037  1.00  0.00     0.069 C 
HETATM   13  C   UNL     1      31.678  50.396  40.325  1.00  0.00     0.000 A 
HETATM   14  C   UNL     1      32.368  51.193  39.271  1.00  0.00     0.053 C 
BRANCH  11  15
HETATM   15  C   UNL     1      29.281  50.131  39.259  1.00  0.00     0.295 C 
HETATM   16  O   UNL     1      29.219  49.447  38.244  1.00  0.00    -0.259 OA
BRANCH  15  17
HETATM   17  O   UNL     1      28.421  51.155  39.536  1.00  0.00    -0.318 OA
BRANCH  17  18
HETATM   18  C   UNL     1      28.727  52.418  38.929  1.00  0.00     0.174 C 
HETATM   19  C   UNL     1      29.262  53.386  39.967  1.00  0.00     0.034 C 
ENDBRANCH  17  18
ENDBRANCH  15  17
ENDBRANCH  11  15
ENDBRANCH   1   7
BRANCH   3  20
HETATM   20  N   UNL     1      35.887  51.953  43.881  1.00  0.00    -0.262 N 
HETATM   21  C   UNL     1      36.785  52.763  43.213  1.00  0.00     0.270 C 
HETATM   22  O   UNL     1      37.079  52.571  42.035  1.00  0.00    -0.266 OA
HETATM   23  H   UNL     1      35.423  52.211  44.751  1.00  0.00     0.190 HD
BRANCH  21  24
HETATM   24  C   UNL     1      37.376  53.901  43.972  1.00  0.00     0.033 A 
HETATM   25  C   UNL     1      37.495  53.901  45.366  1.00  0.00     0.020 A 
HETATM   26  C   UNL     1      38.094  54.986  46.013  1.00  0.00     0.038 A 
HETATM   27  C   UNL     1      38.588  56.073  45.286  1.00  0.00     0.068 A 
HETATM   28  C   UNL     1      38.470  56.074  43.897  1.00  0.00     0.038 A 
HETATM   29  C   UNL     1      37.870  54.991  43.244  1.00  0.00     0.020 A 
BRANCH  27  30
HETATM   30  O   UNL     1      39.158  57.057  46.045  1.00  0.00    -0.356 OA
HETATM   31  C   UNL     1      40.092  57.911  45.393  1.00  0.00     0.210 C 
ENDBRANCH  27  30
ENDBRANCH  21  24
ENDBRANCH   3  20
TORSDOF 7
ENDMDL
MODEL 10
REMARK VINA RESULT:      -7.0      2.961      5.128
REMARK  7 active torsions:
REMARK  status: ('A' for Active; 'I' for Inactive)
REMARK    1  A    between atoms: C_2  and  O_3 
REMARK    2  A    between atoms: O_3  and  C_4 
REMARK    3  A    between atoms: C_4  and  C_5 
REMARK    4  A    between atoms: C_10  and  N_11 
REMARK       I    between atoms: N_11  and  C_12 
REMARK       I    between atoms: C_12  and  N_13 
REMARK    5  A    between atoms: N_13  and  N_14 
REMARK       I    between atoms: N_14  and  C_15 
REMARK    6  A    between atoms: C_15  and  C_16 
REMARK    7  A    between atoms: C_19  and  O_20 
ROOT
HETATM    1  N   UNL     1      21.228  49.972  48.326  1.00  0.00    -0.293 N 
HETATM    2  C   UNL     1      21.691  48.764  48.810  1.00  0.00     0.340 C 
HETATM    3  N   UNL     1      22.943  48.894  49.386  1.00  0.00    -0.249 N 
HETATM    4  O   UNL     1      21.114  47.680  48.721  1.00  0.00    -0.245 OA
HETATM    5  H   UNL     1      21.833  50.777  48.394  1.00  0.00     0.172 HD
HETATM    6  H   UNL     1      23.199  49.775  49.827  1.00  0.00     0.192 HD
ENDROOT
BRANCH   1   7
HETATM    7  C   UNL     1      20.036  50.111  47.645  1.00  0.00     0.116 A 
HETATM    8  N   UNL     1      19.594  49.191  46.734  1.00  0.00    -0.345 N 
HETATM    9  C   UNL     1      18.406  49.599  46.185  1.00  0.00     0.024 A 
HETATM   10  H   UNL     1      20.106  48.347  46.500  1.00  0.00     0.167 HD
HETATM   11  C   UNL     1      18.064  50.824  46.754  1.00  0.00     0.071 A 
HETATM   12  C   UNL     1      17.723  48.777  45.149  1.00  0.00     0.069 C 
HETATM   13  C   UNL     1      19.103  51.132  47.714  1.00  0.00     0.000 A 
HETATM   14  C   UNL     1      19.166  52.333  48.596  1.00  0.00     0.053 C 
BRANCH  11  15
HETATM   15  C   UNL     1      16.871  51.601  46.392  1.00  0.00     0.295 C 
HETATM   16  O   UNL     1      16.819  52.358  45.430  1.00  0.00    -0.259 OA
BRANCH  15  17
HETATM   17  O   UNL     1      15.830  51.401  47.254  1.00  0.00    -0.318 OA
BRANCH  17  18
HETATM   18  C   UNL     1      15.454  52.524  48.062  1.00  0.00     0.174 C 
HETATM   19  C   UNL     1      15.504  52.155  49.533  1.00  0.00     0.034 C 
ENDBRANCH  17  18
ENDBRANCH  15  17
ENDBRANCH  11  15
ENDBRANCH   1   7
BRANCH   3  20
HETATM   20  N   UNL     1      23.497  47.765  50.013  1.00  0.00    -0.262 N 
HETATM   21  C   UNL     1      24.874  47.723  50.126  1.00  0.00     0.270 C 
HETATM   22  O   UNL     1      25.589  48.610  49.664  1.00  0.00    -0.266 OA
HETATM   23  H   UNL     1      22.861  47.210  50.582  1.00  0.00     0.190 HD
BRANCH  21  24
HETATM   24  C   UNL     1      25.466  46.564  50.850  1.00  0.00     0.033 A 
HETATM   25  C   UNL     1      26.031  45.468  50.190  1.00  0.00     0.020 A 
HETATM   26  C   UNL     1      26.603  44.428  50.930  1.00  0.00     0.038 A 
HETATM   27  C   UNL     1      26.630  44.472  52.327  1.00  0.00     0.068 A 
HETATM   28  C   UNL     1      26.069  45.565  52.987  1.00  0.00     0.038 A 
HETATM   29  C   UNL     1      25.492  46.607  52.250  1.00  0.00     0.020 A 
BRANCH  27  30
HETATM   30  O   UNL     1      27.231  43.397  52.922  1.00  0.00    -0.356 OA
HETATM   31  C   UNL     1      27.256  43.381  54.345  1.00  0.00     0.210 C 
ENDBRANCH  27  30
ENDBRANCH  21  24
ENDBRANCH   3  20
TORSDOF 7
ENDMDL
