MODEL 1
REMARK VINA RESULT:      -8.4      0.000      0.000
REMARK  7 active torsions:
REMARK  status: ('A' for Active; 'I' for Inactive)
REMARK       I    between atoms: N_2  and  C_3 
REMARK    1  A    between atoms: N_2  and  C_17 
REMARK       I    between atoms: C_3  and  N_4 
REMARK    2  A    between atoms: N_4  and  C_5 
REMARK    3  A    between atoms: N_6  and  C_7 
REMARK    4  A    between atoms: C_17  and  C_18 
REMARK    5  A    between atoms: C_18  and  C_19 
REMARK    6  A    between atoms: C_19  and  O_20 
REMARK    7  A    between atoms: C_19  and  C_21 
ROOT
HETATM    1  C   UNL     1      27.634  43.219  51.554  1.00  0.00     0.154 C 
HETATM    2  N   UNL     1      26.529  43.907  52.206  1.00  0.00    -0.343 N 
HETATM    3  C   UNL     1      25.369  44.300  51.541  1.00  0.00     0.301 C 
HETATM    4  N   UNL     1      25.586  44.583  50.200  1.00  0.00    -0.194 NA
HETATM    5  O   UNL     1      24.299  44.461  52.123  1.00  0.00    -0.254 OA
HETATM    6  H   UNL     1      26.443  45.110  50.090  1.00  0.00     0.140 HD
ENDROOT
BRANCH   2   7
HETATM    7  C   UNL     1      26.615  44.093  53.653  1.00  0.00     0.129 C 
BRANCH   7   8
HETATM    8  C   UNL     1      27.975  43.724  54.242  1.00  0.00     0.056 C 
BRANCH   8   9
HETATM    9  C   UNL     1      28.762  44.969  54.679  1.00  0.00     0.152 C 
BRANCH   9  10
HETATM   10  O   UNL     1      27.830  45.981  55.066  1.00  0.00    -0.391 OA
HETATM   11  H   UNL     1      27.113  45.537  55.549  1.00  0.00     0.210 HD
ENDBRANCH   9  10
BRANCH   9  12
HETATM   12  C   UNL     1      29.739  44.818  55.829  1.00  0.00    -0.030 A 
HETATM   13  C   UNL     1      30.685  43.785  55.913  1.00  0.00     0.010 A 
HETATM   14  C   UNL     1      31.533  43.676  57.020  1.00  0.00     0.001 A 
HETATM   15  C   UNL     1      31.443  44.589  58.067  1.00  0.00     0.000 A 
HETATM   16  C   UNL     1      30.503  45.614  58.010  1.00  0.00     0.001 A 
HETATM   17  C   UNL     1      29.659  45.726  56.901  1.00  0.00     0.010 A 
ENDBRANCH   9  12
ENDBRANCH   8   9
ENDBRANCH   7   8
ENDBRANCH   2   7
BRANCH   4  18
HETATM   18  C   UNL     1      24.528  45.022  49.418  1.00  0.00     0.109 A 
HETATM   19  N   UNL     1      24.071  46.325  49.319  1.00  0.00    -0.254 N 
HETATM   20  N   UNL     1      23.043  46.435  48.442  1.00  0.00    -0.183 NA
HETATM   21  C   UNL     1      22.810  45.185  48.049  1.00  0.00     0.142 A 
HETATM   22  C   UNL     1      23.667  44.259  48.662  1.00  0.00     0.065 A 
BRANCH  19  23
HETATM   23  C   UNL     1      24.431  47.466  50.170  1.00  0.00     0.111 C 
HETATM   24  C   UNL     1      25.949  47.657  50.398  1.00  0.00     0.027 C 
HETATM   25  C   UNL     1      26.692  48.282  49.209  1.00  0.00     0.002 C 
HETATM   26  C   UNL     1      26.013  49.541  48.687  1.00  0.00     0.000 C 
HETATM   27  C   UNL     1      24.529  49.320  48.419  1.00  0.00     0.002 C 
HETATM   28  C   UNL     1      23.819  48.786  49.660  1.00  0.00     0.027 C 
ENDBRANCH  19  23
ENDBRANCH   4  18
TORSDOF 7
ENDMDL
MODEL 2
REMARK VINA RESULT:      -8.4      1.986      3.080
REMARK  7 active torsions:
REMARK  status: ('A' for Active; 'I' for Inactive)
REMARK       I    between atoms: N_2  and  C_3 
REMARK    1  A    between atoms: N_2  and  C_17 
REMARK       I    between atoms: C_3  and  N_4 
REMARK    2  A    between atoms: N_4  and  C_5 
REMARK    3  A    between atoms: N_6  and  C_7 
REMARK    4  A    between atoms: C_17  and  C_18 
REMARK    5  A    between atoms: C_18  and  C_19 
REMARK    6  A    between atoms: C_19  and  O_20 
REMARK    7  A    between atoms: C_19  and  C_21 
ROOT
HETATM    1  C   UNL     1      28.444  40.445  49.505  1.00  0.00     0.154 C 
HETATM    2  N   UNL     1      27.751  41.025  50.646  1.00  0.00    -0.343 N 
HETATM    3  C   UNL     1      26.568  41.754  50.539  1.00  0.00     0.301 C 
HETATM    4  N   UNL     1      26.454  42.419  49.327  1.00  0.00    -0.194 NA
HETATM    5  O   UNL     1      25.771  41.856  51.468  1.00  0.00    -0.254 OA
HETATM    6  H   UNL     1      27.339  42.840  49.076  1.00  0.00     0.140 HD
ENDROOT
BRANCH   2   7
HETATM    7  C   UNL     1      28.283  40.727  51.975  1.00  0.00     0.129 C 
BRANCH   7   8
HETATM    8  C   UNL     1      29.154  41.840  52.554  1.00  0.00     0.056 C 
BRANCH   8   9
HETATM    9  C   UNL     1      28.326  42.843  53.372  1.00  0.00     0.152 C 
BRANCH   9  10
HETATM   10  O   UNL     1      27.295  42.128  54.055  1.00  0.00    -0.391 OA
HETATM   11  H   UNL     1      26.710  41.751  53.376  1.00  0.00     0.210 HD
ENDBRANCH   9  10
BRANCH   9  12
HETATM   12  C   UNL     1      29.049  43.667  54.420  1.00  0.00    -0.030 A 
HETATM   13  C   UNL     1      28.638  44.947  54.820  1.00  0.00     0.010 A 
HETATM   14  C   UNL     1      29.371  45.674  55.763  1.00  0.00     0.001 A 
HETATM   15  C   UNL     1      30.532  45.140  56.314  1.00  0.00     0.000 A 
HETATM   16  C   UNL     1      30.964  43.878  55.922  1.00  0.00     0.001 A 
HETATM   17  C   UNL     1      30.230  43.148  54.983  1.00  0.00     0.010 A 
ENDBRANCH   9  12
ENDBRANCH   8   9
ENDBRANCH   7   8
ENDBRANCH   2   7
BRANCH   4  18
HETATM   18  C   UNL     1      25.343  43.216  49.091  1.00  0.00     0.109 A 
HETATM   19  N   UNL     1      25.303  44.599  49.146  1.00  0.00    -0.254 N 
HETATM   20  N   UNL     1      24.077  45.082  48.828  1.00  0.00    -0.183 NA
HETATM   21  C   UNL     1      23.331  43.995  48.647  1.00  0.00     0.142 A 
HETATM   22  C   UNL     1      24.051  42.808  48.848  1.00  0.00     0.065 A 
BRANCH  19  23
HETATM   23  C   UNL     1      26.329  45.502  49.682  1.00  0.00     0.111 C 
HETATM   24  C   UNL     1      25.932  46.997  49.711  1.00  0.00     0.027 C 
HETATM   25  C   UNL     1      24.976  47.375  50.850  1.00  0.00     0.002 C 
HETATM   26  C   UNL     1      25.445  46.863  52.206  1.00  0.00     0.000 C 
HETATM   27  C   UNL     1      25.781  45.378  52.171  1.00  0.00     0.002 C 
HETATM   28  C   UNL     1      26.807  45.070  51.082  1.00  0.00     0.027 C 
ENDBRANCH  19  23
ENDBRANCH   4  18
TORSDOF 7
ENDMDL
MODEL 3
REMARK VINA RESULT:      -8.4      2.230      3.609
REMARK  7 active torsions:
REMARK  status: ('A' for Active; 'I' for Inactive)
REMARK       I    between atoms: N_2  and  C_3 
REMARK    1  A    between atoms: N_2  and  C_17 
REMARK       I    between atoms: C_3  and  N_4 
REMARK    2  A    between atoms: N_4  and  C_5 
REMARK    3  A    between atoms: N_6  and  C_7 
REMARK    4  A    between atoms: C_17  and  C_18 
REMARK    5  A    between atoms: C_18  and  C_19 
REMARK    6  A    between atoms: C_19  and  O_20 
REMARK    7  A    between atoms: C_19  and  C_21 
ROOT
HETATM    1  C   UNL     1      25.780  46.460  52.902  1.00  0.00     0.154 C 
HETATM    2  N   UNL     1      26.028  45.892  51.585  1.00  0.00    -0.343 N 
HETATM    3  C   UNL     1      26.199  46.662  50.435  1.00  0.00     0.301 C 
HETATM    4  N   UNL     1      25.509  47.864  50.485  1.00  0.00    -0.194 NA
HETATM    5  O   UNL     1      26.824  46.257  49.458  1.00  0.00    -0.254 OA
HETATM    6  H   UNL     1      24.585  47.720  50.871  1.00  0.00     0.140 HD
ENDROOT
BRANCH   2   7
HETATM    7  C   UNL     1      26.207  44.444  51.502  1.00  0.00     0.129 C 
BRANCH   7   8
HETATM    8  C   UNL     1      27.548  43.957  52.047  1.00  0.00     0.056 C 
BRANCH   8   9
HETATM    9  C   UNL     1      27.442  43.527  53.519  1.00  0.00     0.152 C 
BRANCH   9  10
HETATM   10  O   UNL     1      27.329  42.104  53.567  1.00  0.00    -0.391 OA
HETATM   11  H   UNL     1      26.776  41.836  52.814  1.00  0.00     0.210 HD
ENDBRANCH   9  10
BRANCH   9  12
HETATM   12  C   UNL     1      28.580  43.903  54.448  1.00  0.00    -0.030 A 
HETATM   13  C   UNL     1      28.644  45.118  55.145  1.00  0.00     0.010 A 
HETATM   14  C   UNL     1      29.741  45.424  55.957  1.00  0.00     0.001 A 
HETATM   15  C   UNL     1      30.798  44.527  56.076  1.00  0.00     0.000 A 
HETATM   16  C   UNL     1      30.762  43.321  55.383  1.00  0.00     0.001 A 
HETATM   17  C   UNL     1      29.663  43.013  54.576  1.00  0.00     0.010 A 
ENDBRANCH   9  12
ENDBRANCH   8   9
ENDBRANCH   7   8
ENDBRANCH   2   7
BRANCH   4  18
HETATM   18  C   UNL     1      25.556  48.721  49.394  1.00  0.00     0.109 A 
HETATM   19  N   UNL     1      24.467  49.237  48.713  1.00  0.00    -0.254 N 
HETATM   20  N   UNL     1      24.845  50.073  47.716  1.00  0.00    -0.183 NA
HETATM   21  C   UNL     1      26.175  50.021  47.727  1.00  0.00     0.142 A 
HETATM   22  C   UNL     1      26.670  49.156  48.714  1.00  0.00     0.065 A 
BRANCH  19  23
HETATM   23  C   UNL     1      23.062  48.826  48.830  1.00  0.00     0.111 C 
HETATM   24  C   UNL     1      22.310  49.410  50.049  1.00  0.00     0.027 C 
HETATM   25  C   UNL     1      21.888  50.877  49.886  1.00  0.00     0.002 C 
HETATM   26  C   UNL     1      21.169  51.140  48.569  1.00  0.00     0.000 C 
HETATM   27  C   UNL     1      21.950  50.604  47.376  1.00  0.00     0.002 C 
HETATM   28  C   UNL     1      22.264  49.119  47.545  1.00  0.00     0.027 C 
ENDBRANCH  19  23
ENDBRANCH   4  18
TORSDOF 7
ENDMDL
MODEL 4
REMARK VINA RESULT:      -8.4      1.646      2.299
REMARK  7 active torsions:
REMARK  status: ('A' for Active; 'I' for Inactive)
REMARK       I    between atoms: N_2  and  C_3 
REMARK    1  A    between atoms: N_2  and  C_17 
REMARK       I    between atoms: C_3  and  N_4 
REMARK    2  A    between atoms: N_4  and  C_5 
REMARK    3  A    between atoms: N_6  and  C_7 
REMARK    4  A    between atoms: C_17  and  C_18 
REMARK    5  A    between atoms: C_18  and  C_19 
REMARK    6  A    between atoms: C_19  and  O_20 
REMARK    7  A    between atoms: C_19  and  C_21 
ROOT
HETATM    1  C   UNL     1      25.094  44.532  52.666  1.00  0.00     0.154 C 
HETATM    2  N   UNL     1      25.599  44.201  51.341  1.00  0.00    -0.343 N 
HETATM    3  C   UNL     1      25.125  44.788  50.169  1.00  0.00     0.301 C 
HETATM    4  N   UNL     1      23.795  45.174  50.260  1.00  0.00    -0.194 NA
HETATM    5  O   UNL     1      25.803  44.859  49.147  1.00  0.00    -0.254 OA
HETATM    6  H   UNL     1      23.256  44.458  50.728  1.00  0.00     0.140 HD
ENDROOT
BRANCH   2   7
HETATM    7  C   UNL     1      26.732  43.281  51.266  1.00  0.00     0.129 C 
BRANCH   7   8
HETATM    8  C   UNL     1      28.033  43.860  51.819  1.00  0.00     0.056 C 
BRANCH   8   9
HETATM    9  C   UNL     1      28.608  42.991  52.948  1.00  0.00     0.152 C 
BRANCH   9  10
HETATM   10  O   UNL     1      29.657  42.185  52.409  1.00  0.00    -0.391 OA
HETATM   11  H   UNL     1      29.803  41.453  53.031  1.00  0.00     0.210 HD
ENDBRANCH   9  10
BRANCH   9  12
HETATM   12  C   UNL     1      29.185  43.699  54.159  1.00  0.00    -0.030 A 
HETATM   13  C   UNL     1      28.664  44.892  54.682  1.00  0.00     0.010 A 
HETATM   14  C   UNL     1      29.266  45.519  55.777  1.00  0.00     0.001 A 
HETATM   15  C   UNL     1      30.405  44.972  56.362  1.00  0.00     0.000 A 
HETATM   16  C   UNL     1      30.946  43.797  55.851  1.00  0.00     0.001 A 
HETATM   17  C   UNL     1      30.341  43.167  54.759  1.00  0.00     0.010 A 
ENDBRANCH   9  12
ENDBRANCH   8   9
ENDBRANCH   7   8
ENDBRANCH   2   7
BRANCH   4  18
HETATM   18  C   UNL     1      23.175  45.742  49.155  1.00  0.00     0.109 A 
HETATM   19  N   UNL     1      23.185  47.083  48.812  1.00  0.00    -0.254 N 
HETATM   20  N   UNL     1      22.517  47.312  47.656  1.00  0.00    -0.183 NA
HETATM   21  C   UNL     1      22.026  46.123  47.315  1.00  0.00     0.142 A 
HETATM   22  C   UNL     1      22.359  45.120  48.238  1.00  0.00     0.065 A 
BRANCH  19  23
HETATM   23  C   UNL     1      23.635  48.213  49.634  1.00  0.00     0.111 C 
HETATM   24  C   UNL     1      25.170  48.380  49.730  1.00  0.00     0.027 C 
HETATM   25  C   UNL     1      25.816  49.002  48.485  1.00  0.00     0.002 C 
HETATM   26  C   UNL     1      25.112  50.275  48.030  1.00  0.00     0.000 C 
HETATM   27  C   UNL     1      23.608  50.076  47.891  1.00  0.00     0.002 C 
HETATM   28  C   UNL     1      23.000  49.544  49.186  1.00  0.00     0.027 C 
ENDBRANCH  19  23
ENDBRANCH   4  18
TORSDOF 7
ENDMDL
MODEL 5
REMARK VINA RESULT:      -8.3      2.768      4.652
REMARK  7 active torsions:
REMARK  status: ('A' for Active; 'I' for Inactive)
REMARK       I    between atoms: N_2  and  C_3 
REMARK    1  A    between atoms: N_2  and  C_17 
REMARK       I    between atoms: C_3  and  N_4 
REMARK    2  A    between atoms: N_4  and  C_5 
REMARK    3  A    between atoms: N_6  and  C_7 
REMARK    4  A    between atoms: C_17  and  C_18 
REMARK    5  A    between atoms: C_18  and  C_19 
REMARK    6  A    between atoms: C_19  and  O_20 
REMARK    7  A    between atoms: C_19  and  C_21 
ROOT
HETATM    1  C   UNL     1      23.516  44.905  49.905  1.00  0.00     0.154 C 
HETATM    2  N   UNL     1      24.587  45.795  50.329  1.00  0.00    -0.343 N 
HETATM    3  C   UNL     1      24.537  47.180  50.186  1.00  0.00     0.301 C 
HETATM    4  N   UNL     1      23.776  47.582  49.099  1.00  0.00    -0.194 NA
HETATM    5  O   UNL     1      25.183  47.940  50.904  1.00  0.00    -0.254 OA
HETATM    6  H   UNL     1      23.970  46.992  48.300  1.00  0.00     0.140 HD
ENDROOT
BRANCH   2   7
HETATM    7  C   UNL     1      25.718  45.194  51.034  1.00  0.00     0.129 C 
BRANCH   7   8
HETATM    8  C   UNL     1      25.309  44.203  52.121  1.00  0.00     0.056 C 
BRANCH   8   9
HETATM    9  C   UNL     1      25.134  44.893  53.483  1.00  0.00     0.152 C 
BRANCH   9  10
HETATM   10  O   UNL     1      24.694  43.918  54.431  1.00  0.00    -0.391 OA
HETATM   11  H   UNL     1      25.485  43.449  54.746  1.00  0.00     0.210 HD
ENDBRANCH   9  10
BRANCH   9  12
HETATM   12  C   UNL     1      26.346  45.572  54.092  1.00  0.00    -0.030 A 
HETATM   13  C   UNL     1      26.453  46.960  54.262  1.00  0.00     0.010 A 
HETATM   14  C   UNL     1      27.614  47.531  54.793  1.00  0.00     0.001 A 
HETATM   15  C   UNL     1      28.692  46.727  55.152  1.00  0.00     0.000 A 
HETATM   16  C   UNL     1      28.611  45.349  54.979  1.00  0.00     0.001 A 
HETATM   17  C   UNL     1      27.449  44.777  54.453  1.00  0.00     0.010 A 
ENDBRANCH   9  12
ENDBRANCH   8   9
ENDBRANCH   7   8
ENDBRANCH   2   7
BRANCH   4  18
HETATM   18  C   UNL     1      23.665  48.935  48.809  1.00  0.00     0.109 A 
HETATM   19  N   UNL     1      22.569  49.740  49.071  1.00  0.00    -0.254 N 
HETATM   20  N   UNL     1      22.787  51.025  48.701  1.00  0.00    -0.183 NA
HETATM   21  C   UNL     1      23.993  51.008  48.139  1.00  0.00     0.142 A 
HETATM   22  C   UNL     1      24.564  49.726  48.131  1.00  0.00     0.065 A 
BRANCH  19  23
HETATM   23  C   UNL     1      21.226  49.314  49.483  1.00  0.00     0.111 C 
HETATM   24  C   UNL     1      20.330  50.439  50.052  1.00  0.00     0.027 C 
HETATM   25  C   UNL     1      19.731  51.369  48.988  1.00  0.00     0.002 C 
HETATM   26  C   UNL     1      19.067  50.607  47.848  1.00  0.00     0.000 C 
HETATM   27  C   UNL     1      19.983  49.538  47.266  1.00  0.00     0.002 C 
HETATM   28  C   UNL     1      20.476  48.584  48.351  1.00  0.00     0.027 C 
ENDBRANCH  19  23
ENDBRANCH   4  18
TORSDOF 7
ENDMDL
MODEL 6
REMARK VINA RESULT:      -8.2      2.113      3.853
REMARK  7 active torsions:
REMARK  status: ('A' for Active; 'I' for Inactive)
REMARK       I    between atoms: N_2  and  C_3 
REMARK    1  A    between atoms: N_2  and  C_17 
REMARK       I    between atoms: C_3  and  N_4 
REMARK    2  A    between atoms: N_4  and  C_5 
REMARK    3  A    between atoms: N_6  and  C_7 
REMARK    4  A    between atoms: C_17  and  C_18 
REMARK    5  A    between atoms: C_18  and  C_19 
REMARK    6  A    between atoms: C_19  and  O_20 
REMARK    7  A    between atoms: C_19  and  C_21 
ROOT
HETATM    1  C   UNL     1      25.579  46.890  52.993  1.00  0.00     0.154 C 
HETATM    2  N   UNL     1      25.406  46.138  51.759  1.00  0.00    -0.343 N 
HETATM    3  C   UNL     1      25.144  46.733  50.526  1.00  0.00     0.301 C 
HETATM    4  N   UNL     1      24.445  47.926  50.641  1.00  0.00    -0.194 NA
HETATM    5  O   UNL     1      25.430  46.193  49.460  1.00  0.00    -0.254 OA
HETATM    6  H   UNL     1      23.711  47.833  51.331  1.00  0.00     0.140 HD
ENDROOT
BRANCH   2   7
HETATM    7  C   UNL     1      25.627  44.694  51.817  1.00  0.00     0.129 C 
BRANCH   7   8
HETATM    8  C   UNL     1      27.062  44.304  52.162  1.00  0.00     0.056 C 
BRANCH   8   9
HETATM    9  C   UNL     1      27.152  43.624  53.537  1.00  0.00     0.152 C 
BRANCH   9  10
HETATM   10  O   UNL     1      27.179  42.208  53.340  1.00  0.00    -0.391 OA
HETATM   11  H   UNL     1      26.346  41.966  52.903  1.00  0.00     0.210 HD
ENDBRANCH   9  10
BRANCH   9  12
HETATM   12  C   UNL     1      28.342  43.961  54.415  1.00  0.00    -0.030 A 
HETATM   13  C   UNL     1      28.464  45.164  55.127  1.00  0.00     0.010 A 
HETATM   14  C   UNL     1      29.605  45.435  55.889  1.00  0.00     0.001 A 
HETATM   15  C   UNL     1      30.648  44.515  55.943  1.00  0.00     0.000 A 
HETATM   16  C   UNL     1      30.553  43.321  55.235  1.00  0.00     0.001 A 
HETATM   17  C   UNL     1      29.411  43.048  54.477  1.00  0.00     0.010 A 
ENDBRANCH   9  12
ENDBRANCH   8   9
ENDBRANCH   7   8
ENDBRANCH   2   7
BRANCH   4  18
HETATM   18  C   UNL     1      24.081  48.614  49.492  1.00  0.00     0.109 A 
HETATM   19  N   UNL     1      22.871  48.511  48.827  1.00  0.00    -0.254 N 
HETATM   20  N   UNL     1      22.810  49.342  47.758  1.00  0.00    -0.183 NA
HETATM   21  C   UNL     1      24.013  49.911  47.713  1.00  0.00     0.142 A 
HETATM   22  C   UNL     1      24.860  49.458  48.735  1.00  0.00     0.065 A 
BRANCH  19  23
HETATM   23  C   UNL     1      21.819  47.508  49.035  1.00  0.00     0.111 C 
HETATM   24  C   UNL     1      20.397  47.958  48.626  1.00  0.00     0.027 C 
HETATM   25  C   UNL     1      20.141  47.944  47.113  1.00  0.00     0.002 C 
HETATM   26  C   UNL     1      20.553  46.631  46.459  1.00  0.00     0.000 C 
HETATM   27  C   UNL     1      21.975  46.230  46.832  1.00  0.00     0.002 C 
HETATM   28  C   UNL     1      22.151  46.169  48.347  1.00  0.00     0.027 C 
ENDBRANCH  19  23
ENDBRANCH   4  18
TORSDOF 7
ENDMDL
MODEL 7
REMARK VINA RESULT:      -8.0     12.593     15.194
REMARK  7 active torsions:
REMARK  status: ('A' for Active; 'I' for Inactive)
REMARK       I    between atoms: N_2  and  C_3 
REMARK    1  A    between atoms: N_2  and  C_17 
REMARK       I    between atoms: C_3  and  N_4 
REMARK    2  A    between atoms: N_4  and  C_5 
REMARK    3  A    between atoms: N_6  and  C_7 
REMARK    4  A    between atoms: C_17  and  C_18 
REMARK    5  A    between atoms: C_18  and  C_19 
REMARK    6  A    between atoms: C_19  and  O_20 
REMARK    7  A    between atoms: C_19  and  C_21 
ROOT
HETATM    1  C   UNL     1      29.709  48.056  41.031  1.00  0.00     0.154 C 
HETATM    2  N   UNL     1      29.741  48.720  39.736  1.00  0.00    -0.343 N 
HETATM    3  C   UNL     1      30.764  49.579  39.337  1.00  0.00     0.301 C 
HETATM    4  N   UNL     1      31.355  50.243  40.402  1.00  0.00    -0.194 NA
HETATM    5  O   UNL     1      31.033  49.779  38.155  1.00  0.00    -0.254 OA
HETATM    6  H   UNL     1      30.647  50.558  41.052  1.00  0.00     0.140 HD
ENDROOT
BRANCH   2   7
HETATM    7  C   UNL     1      28.692  48.373  38.779  1.00  0.00     0.129 C 
BRANCH   7   8
HETATM    8  C   UNL     1      27.277  48.564  39.321  1.00  0.00     0.056 C 
BRANCH   8   9
HETATM    9  C   UNL     1      26.714  49.949  38.966  1.00  0.00     0.152 C 
BRANCH   9  10
HETATM   10  O   UNL     1      25.422  50.078  39.563  1.00  0.00    -0.391 OA
HETATM   11  H   UNL     1      24.769  49.852  38.881  1.00  0.00     0.210 HD
ENDBRANCH   9  10
BRANCH   9  12
HETATM   12  C   UNL     1      27.512  51.166  39.393  1.00  0.00    -0.030 A 
HETATM   13  C   UNL     1      28.172  52.016  38.492  1.00  0.00     0.010 A 
HETATM   14  C   UNL     1      28.926  53.101  38.950  1.00  0.00     0.001 A 
HETATM   15  C   UNL     1      29.044  53.348  40.315  1.00  0.00     0.000 A 
HETATM   16  C   UNL     1      28.408  52.511  41.226  1.00  0.00     0.001 A 
HETATM   17  C   UNL     1      27.650  51.429  40.768  1.00  0.00     0.010 A 
ENDBRANCH   9  12
ENDBRANCH   8   9
ENDBRANCH   7   8
ENDBRANCH   2   7
BRANCH   4  18
HETATM   18  C   UNL     1      32.367  51.161  40.154  1.00  0.00     0.109 A 
HETATM   19  N   UNL     1      33.614  51.184  40.755  1.00  0.00    -0.254 N 
HETATM   20  N   UNL     1      34.389  52.185  40.270  1.00  0.00    -0.183 NA
HETATM   21  C   UNL     1      33.598  52.833  39.418  1.00  0.00     0.142 A 
HETATM   22  C   UNL     1      32.314  52.272  39.345  1.00  0.00     0.065 A 
BRANCH  19  23
HETATM   23  C   UNL     1      34.056  50.418  41.926  1.00  0.00     0.111 C 
HETATM   24  C   UNL     1      35.467  50.778  42.447  1.00  0.00     0.027 C 
HETATM   25  C   UNL     1      35.529  52.082  43.252  1.00  0.00     0.002 C 
HETATM   26  C   UNL     1      34.464  52.154  44.340  1.00  0.00     0.000 C 
HETATM   27  C   UNL     1      33.074  51.847  43.797  1.00  0.00     0.002 C 
HETATM   28  C   UNL     1      33.044  50.497  43.086  1.00  0.00     0.027 C 
ENDBRANCH  19  23
ENDBRANCH   4  18
TORSDOF 7
ENDMDL
MODEL 8
REMARK VINA RESULT:      -7.9      2.769      4.612
REMARK  7 active torsions:
REMARK  status: ('A' for Active; 'I' for Inactive)
REMARK       I    between atoms: N_2  and  C_3 
REMARK    1  A    between atoms: N_2  and  C_17 
REMARK       I    between atoms: C_3  and  N_4 
REMARK    2  A    between atoms: N_4  and  C_5 
REMARK    3  A    between atoms: N_6  and  C_7 
REMARK    4  A    between atoms: C_17  and  C_18 
REMARK    5  A    between atoms: C_18  and  C_19 
REMARK    6  A    between atoms: C_19  and  O_20 
REMARK    7  A    between atoms: C_19  and  C_21 
ROOT
HETATM    1  C   UNL     1      23.171  44.987  49.519  1.00  0.00     0.154 C 
HETATM    2  N   UNL     1      24.248  45.820  50.034  1.00  0.00    -0.343 N 
HETATM    3  C   UNL     1      24.244  47.212  49.966  1.00  0.00     0.301 C 
HETATM    4  N   UNL     1      23.539  47.695  48.873  1.00  0.00    -0.194 NA
HETATM    5  O   UNL     1      24.880  47.912  50.750  1.00  0.00    -0.254 OA
HETATM    6  H   UNL     1      23.750  47.143  48.052  1.00  0.00     0.140 HD
ENDROOT
BRANCH   2   7
HETATM    7  C   UNL     1      25.332  45.148  50.749  1.00  0.00     0.129 C 
BRANCH   7   8
HETATM    8  C   UNL     1      25.033  44.900  52.226  1.00  0.00     0.056 C 
BRANCH   8   9
HETATM    9  C   UNL     1      25.946  43.813  52.816  1.00  0.00     0.152 C 
BRANCH   9  10
HETATM   10  O   UNL     1      26.480  43.038  51.740  1.00  0.00    -0.391 OA
HETATM   11  H   UNL     1      26.797  43.664  51.068  1.00  0.00     0.210 HD
ENDBRANCH   9  10
BRANCH   9  12
HETATM   12  C   UNL     1      27.128  44.262  53.653  1.00  0.00    -0.030 A 
HETATM   13  C   UNL     1      28.240  43.450  53.925  1.00  0.00     0.010 A 
HETATM   14  C   UNL     1      29.281  43.906  54.738  1.00  0.00     0.001 A 
HETATM   15  C   UNL     1      29.225  45.177  55.305  1.00  0.00     0.000 A 
HETATM   16  C   UNL     1      28.126  45.994  55.059  1.00  0.00     0.001 A 
HETATM   17  C   UNL     1      27.087  45.539  54.242  1.00  0.00     0.010 A 
ENDBRANCH   9  12
ENDBRANCH   8   9
ENDBRANCH   7   8
ENDBRANCH   2   7
BRANCH   4  18
HETATM   18  C   UNL     1      23.479  49.065  48.654  1.00  0.00     0.109 A 
HETATM   19  N   UNL     1      22.401  49.889  48.929  1.00  0.00    -0.254 N 
HETATM   20  N   UNL     1      22.669  51.185  48.636  1.00  0.00    -0.183 NA
HETATM   21  C   UNL     1      23.890  51.158  48.107  1.00  0.00     0.142 A 
HETATM   22  C   UNL     1      24.421  49.861  48.046  1.00  0.00     0.065 A 
BRANCH  19  23
HETATM   23  C   UNL     1      21.034  49.486  49.280  1.00  0.00     0.111 C 
HETATM   24  C   UNL     1      20.214  50.552  50.045  1.00  0.00     0.027 C 
HETATM   25  C   UNL     1      19.676  51.686  49.164  1.00  0.00     0.002 C 
HETATM   26  C   UNL     1      18.960  51.175  47.919  1.00  0.00     0.000 C 
HETATM   27  C   UNL     1      19.803  50.166  47.150  1.00  0.00     0.002 C 
HETATM   28  C   UNL     1      20.236  49.011  48.050  1.00  0.00     0.027 C 
ENDBRANCH  19  23
ENDBRANCH   4  18
TORSDOF 7
ENDMDL
MODEL 9
REMARK VINA RESULT:      -7.8      2.227      4.645
REMARK  7 active torsions:
REMARK  status: ('A' for Active; 'I' for Inactive)
REMARK       I    between atoms: N_2  and  C_3 
REMARK    1  A    between atoms: N_2  and  C_17 
REMARK       I    between atoms: C_3  and  N_4 
REMARK    2  A    between atoms: N_4  and  C_5 
REMARK    3  A    between atoms: N_6  and  C_7 
REMARK    4  A    between atoms: C_17  and  C_18 
REMARK    5  A    between atoms: C_18  and  C_19 
REMARK    6  A    between atoms: C_19  and  O_20 
REMARK    7  A    between atoms: C_19  and  C_21 
ROOT
HETATM    1  C   UNL     1      26.297  47.333  50.554  1.00  0.00     0.154 C 
HETATM    2  N   UNL     1      25.532  46.565  51.525  1.00  0.00    -0.343 N 
HETATM    3  C   UNL     1      25.044  45.283  51.279  1.00  0.00     0.301 C 
HETATM    4  N   UNL     1      24.766  45.060  49.938  1.00  0.00    -0.194 NA
HETATM    5  O   UNL     1      24.806  44.484  52.182  1.00  0.00    -0.254 OA
HETATM    6  H   UNL     1      24.306  45.868  49.539  1.00  0.00     0.140 HD
ENDROOT
BRANCH   2   7
HETATM    7  C   UNL     1      25.367  47.144  52.857  1.00  0.00     0.129 C 
BRANCH   7   8
HETATM    8  C   UNL     1      26.668  47.246  53.649  1.00  0.00     0.056 C 
BRANCH   8   9
HETATM    9  C   UNL     1      26.724  46.214  54.787  1.00  0.00     0.152 C 
BRANCH   9  10
HETATM   10  O   UNL     1      25.509  45.461  54.774  1.00  0.00    -0.391 OA
HETATM   11  H   UNL     1      25.309  45.228  55.696  1.00  0.00     0.210 HD
ENDBRANCH   9  10
BRANCH   9  12
HETATM   12  C   UNL     1      27.857  45.207  54.772  1.00  0.00    -0.030 A 
HETATM   13  C   UNL     1      29.017  45.332  55.552  1.00  0.00     0.010 A 
HETATM   14  C   UNL     1      30.046  44.390  55.464  1.00  0.00     0.001 A 
HETATM   15  C   UNL     1      29.941  43.314  54.588  1.00  0.00     0.000 A 
HETATM   16  C   UNL     1      28.806  43.178  53.795  1.00  0.00     0.001 A 
HETATM   17  C   UNL     1      27.774  44.116  53.886  1.00  0.00     0.010 A 
ENDBRANCH   9  12
ENDBRANCH   8   9
ENDBRANCH   7   8
ENDBRANCH   2   7
BRANCH   4  18
HETATM   18  C   UNL     1      24.239  43.838  49.547  1.00  0.00     0.109 A 
HETATM   19  N   UNL     1      24.957  42.681  49.295  1.00  0.00    -0.254 N 
HETATM   20  N   UNL     1      24.146  41.646  48.967  1.00  0.00    -0.183 NA
HETATM   21  C   UNL     1      22.926  42.176  48.941  1.00  0.00     0.142 A 
HETATM   22  C   UNL     1      22.929  43.546  49.242  1.00  0.00     0.065 A 
BRANCH  19  23
HETATM   23  C   UNL     1      26.411  42.544  49.156  1.00  0.00     0.111 C 
HETATM   24  C   UNL     1      27.186  42.415  50.489  1.00  0.00     0.027 C 
HETATM   25  C   UNL     1      27.097  41.028  51.138  1.00  0.00     0.002 C 
HETATM   26  C   UNL     1      27.411  39.900  50.163  1.00  0.00     0.000 C 
HETATM   27  C   UNL     1      26.601  40.015  48.878  1.00  0.00     0.002 C 
HETATM   28  C   UNL     1      26.798  41.380  48.223  1.00  0.00     0.027 C 
ENDBRANCH  19  23
ENDBRANCH   4  18
TORSDOF 7
ENDMDL
MODEL 10
REMARK VINA RESULT:      -7.7      2.675      4.236
REMARK  7 active torsions:
REMARK  status: ('A' for Active; 'I' for Inactive)
REMARK       I    between atoms: N_2  and  C_3 
REMARK    1  A    between atoms: N_2  and  C_17 
REMARK       I    between atoms: C_3  and  N_4 
REMARK    2  A    between atoms: N_4  and  C_5 
REMARK    3  A    between atoms: N_6  and  C_7 
REMARK    4  A    between atoms: C_17  and  C_18 
REMARK    5  A    between atoms: C_18  and  C_19 
REMARK    6  A    between atoms: C_19  and  O_20 
REMARK    7  A    between atoms: C_19  and  C_21 
ROOT
HETATM    1  C   UNL     1      25.690  47.465  50.398  1.00  0.00     0.154 C 
HETATM    2  N   UNL     1      24.721  46.383  50.490  1.00  0.00    -0.343 N 
HETATM    3  C   UNL     1      23.671  46.212  49.589  1.00  0.00     0.301 C 
HETATM    4  N   UNL     1      23.231  47.409  49.042  1.00  0.00    -0.194 NA
HETATM    5  O   UNL     1      23.147  45.119  49.388  1.00  0.00    -0.254 OA
HETATM    6  H   UNL     1      23.180  48.121  49.758  1.00  0.00     0.140 HD
ENDROOT
BRANCH   2   7
HETATM    7  C   UNL     1      24.939  45.374  51.525  1.00  0.00     0.129 C 
BRANCH   7   8
HETATM    8  C   UNL     1      25.649  45.910  52.767  1.00  0.00     0.056 C 
BRANCH   8   9
HETATM    9  C   UNL     1      25.775  44.835  53.858  1.00  0.00     0.152 C 
BRANCH   9  10
HETATM   10  O   UNL     1      24.941  43.730  53.503  1.00  0.00    -0.391 OA
HETATM   11  H   UNL     1      25.467  43.147  52.931  1.00  0.00     0.210 HD
ENDBRANCH   9  10
BRANCH   9  12
HETATM   12  C   UNL     1      27.154  44.265  54.131  1.00  0.00    -0.030 A 
HETATM   13  C   UNL     1      28.175  44.979  54.776  1.00  0.00     0.010 A 
HETATM   14  C   UNL     1      29.439  44.413  54.964  1.00  0.00     0.001 A 
HETATM   15  C   UNL     1      29.710  43.129  54.500  1.00  0.00     0.000 A 
HETATM   16  C   UNL     1      28.716  42.408  53.846  1.00  0.00     0.001 A 
HETATM   17  C   UNL     1      27.450  42.972  53.663  1.00  0.00     0.010 A 
ENDBRANCH   9  12
ENDBRANCH   8   9
ENDBRANCH   7   8
ENDBRANCH   2   7
BRANCH   4  18
HETATM   18  C   UNL     1      22.165  47.399  48.154  1.00  0.00     0.109 A 
HETATM   19  N   UNL     1      21.033  48.193  48.227  1.00  0.00    -0.254 N 
HETATM   20  N   UNL     1      20.192  47.970  47.188  1.00  0.00    -0.183 NA
HETATM   21  C   UNL     1      20.765  46.982  46.505  1.00  0.00     0.142 A 
HETATM   22  C   UNL     1      21.966  46.552  47.088  1.00  0.00     0.065 A 
BRANCH  19  23
HETATM   23  C   UNL     1      20.601  49.032  49.352  1.00  0.00     0.111 C 
HETATM   24  C   UNL     1      21.422  50.327  49.554  1.00  0.00     0.027 C 
HETATM   25  C   UNL     1      21.085  51.449  48.562  1.00  0.00     0.002 C 
HETATM   26  C   UNL     1      19.588  51.710  48.456  1.00  0.00     0.000 C 
HETATM   27  C   UNL     1      18.801  50.430  48.205  1.00  0.00     0.002 C 
HETATM   28  C   UNL     1      19.102  49.381  49.272  1.00  0.00     0.027 C 
ENDBRANCH  19  23
ENDBRANCH   4  18
TORSDOF 7
ENDMDL
