MODEL 1
REMARK VINA RESULT:      -9.6      0.000      0.000
REMARK  8 active torsions:
REMARK  status: ('A' for Active; 'I' for Inactive)
REMARK    1  A    between atoms: O_2  and  C_3 
REMARK    2  A    between atoms: C_5  and  N_6 
REMARK       I    between atoms: N_6  and  C_7 
REMARK    3  A    between atoms: C_7  and  C_8 
REMARK    4  A    between atoms: C_8  and  N_9 
REMARK    5  A    between atoms: C_8  and  C_25 
REMARK    6  A    between atoms: N_9  and  C_12 
REMARK    7  A    between atoms: C_12  and  C_13 
REMARK    8  A    between atoms: C_16  and  N_17 
ROOT
HETATM    1  C   UNL     1      25.385  47.062  50.807  1.00  0.00     0.310 C 
ENDROOT
BRANCH   1   2
HETATM    2  C   UNL     1      25.858  47.816  49.548  1.00  0.00     0.257 C 
HETATM    3  N   UNL     1      25.114  48.704  48.844  1.00  0.00    -0.325 N 
HETATM    4  H   UNL     1      25.668  49.136  48.107  1.00  0.00     0.169 HD
HETATM    5  O   UNL     1      27.040  47.648  49.200  1.00  0.00    -0.270 OA
BRANCH   3   6
HETATM    6  C   UNL     1      23.780  49.146  48.907  1.00  0.00     0.037 A 
HETATM    7  C   UNL     1      22.655  48.336  49.031  1.00  0.00     0.066 A 
HETATM    8  C   UNL     1      21.362  48.881  49.074  1.00  0.00     0.070 A 
HETATM    9  C   UNL     1      21.189  50.259  48.999  1.00  0.00     0.037 A 
HETATM   10  C   UNL     1      22.303  51.084  48.862  1.00  0.00     0.005 A 
HETATM   11  C   UNL     1      23.584  50.532  48.811  1.00  0.00     0.029 A 
BRANCH   8  12
HETATM   12  O   UNL     1      20.365  47.951  49.196  1.00  0.00    -0.356 OA
HETATM   13  C   UNL     1      19.156  48.384  49.810  1.00  0.00     0.210 C 
ENDBRANCH   8  12
ENDBRANCH   3   6
ENDBRANCH   1   2
BRANCH   1  14
HETATM   14  N   UNL     1      26.303  47.432  51.960  1.00  0.00    -0.054 N 
HETATM   15  H   UNL     1      27.166  46.878  51.915  1.00  0.00     0.278 HD
HETATM   16  H   UNL     1      26.590  48.408  51.783  1.00  0.00     0.278 HD
BRANCH  14  17
HETATM   17  C   UNL     1      25.733  47.377  53.327  1.00  0.00     0.272 C 
BRANCH  17  18
HETATM   18  C   UNL     1      26.721  46.693  54.228  1.00  0.00    -0.033 A 
HETATM   19  C   UNL     1      27.713  47.433  54.878  1.00  0.00     0.011 A 
HETATM   20  C   UNL     1      28.745  46.783  55.566  1.00  0.00     0.030 A 
HETATM   21  C   UNL     1      28.826  45.386  55.618  1.00  0.00     0.037 A 
HETATM   22  C   UNL     1      27.796  44.657  55.008  1.00  0.00     0.030 A 
HETATM   23  C   UNL     1      26.759  45.298  54.317  1.00  0.00     0.011 A 
BRANCH  21  24
HETATM   24  N   UNL     1      29.920  44.721  56.237  1.00  0.00    -0.318 N 
HETATM   25  C   UNL     1      30.532  45.089  57.448  1.00  0.00     0.224 C 
HETATM   26  O   UNL     1      30.228  45.983  58.223  1.00  0.00    -0.273 OA
HETATM   27  C   UNL     1      31.759  44.227  57.630  1.00  0.00     0.105 C 
HETATM   28  C   UNL     1      31.519  43.072  56.679  1.00  0.00     0.029 C 
HETATM   29  C   UNL     1      30.688  43.690  55.575  1.00  0.00     0.133 C 
ENDBRANCH  21  24
ENDBRANCH  17  18
ENDBRANCH  14  17
ENDBRANCH   1  14
BRANCH   1  30
HETATM   30  C   UNL     1      25.441  45.549  50.684  1.00  0.00    -0.019 A 
HETATM   31  C   UNL     1      24.242  44.811  50.718  1.00  0.00     0.010 A 
HETATM   32  C   UNL     1      24.264  43.416  50.699  1.00  0.00     0.001 A 
HETATM   33  C   UNL     1      25.479  42.739  50.663  1.00  0.00     0.000 A 
HETATM   34  C   UNL     1      26.674  43.453  50.645  1.00  0.00     0.001 A 
HETATM   35  C   UNL     1      26.659  44.849  50.662  1.00  0.00     0.010 A 
ENDBRANCH   1  30
TORSDOF 8
ENDMDL
MODEL 2
REMARK VINA RESULT:      -9.3      1.585      4.093
REMARK  8 active torsions:
REMARK  status: ('A' for Active; 'I' for Inactive)
REMARK    1  A    between atoms: O_2  and  C_3 
REMARK    2  A    between atoms: C_5  and  N_6 
REMARK       I    between atoms: N_6  and  C_7 
REMARK    3  A    between atoms: C_7  and  C_8 
REMARK    4  A    between atoms: C_8  and  N_9 
REMARK    5  A    between atoms: C_8  and  C_25 
REMARK    6  A    between atoms: N_9  and  C_12 
REMARK    7  A    between atoms: C_12  and  C_13 
REMARK    8  A    between atoms: C_16  and  N_17 
ROOT
HETATM    1  C   UNL     1      26.266  47.252  50.474  1.00  0.00     0.310 C 
ENDROOT
BRANCH   1   2
HETATM    2  C   UNL     1      26.970  46.197  49.597  1.00  0.00     0.257 C 
HETATM    3  N   UNL     1      26.428  45.016  49.210  1.00  0.00    -0.325 N 
HETATM    4  H   UNL     1      27.048  44.529  48.565  1.00  0.00     0.169 HD
HETATM    5  O   UNL     1      28.093  46.492  49.151  1.00  0.00    -0.270 OA
BRANCH   3   6
HETATM    6  C   UNL     1      25.231  44.336  49.497  1.00  0.00     0.037 A 
HETATM    7  C   UNL     1      23.993  44.573  48.905  1.00  0.00     0.066 A 
HETATM    8  C   UNL     1      22.854  43.841  49.273  1.00  0.00     0.070 A 
HETATM    9  C   UNL     1      22.952  42.851  50.245  1.00  0.00     0.037 A 
HETATM   10  C   UNL     1      24.179  42.609  50.857  1.00  0.00     0.005 A 
HETATM   11  C   UNL     1      25.306  43.349  50.491  1.00  0.00     0.029 A 
BRANCH   8  12
HETATM   12  O   UNL     1      21.717  44.197  48.599  1.00  0.00    -0.356 OA
HETATM   13  C   UNL     1      21.857  45.182  47.581  1.00  0.00     0.210 C 
ENDBRANCH   8  12
ENDBRANCH   3   6
ENDBRANCH   1   2
BRANCH   1  14
HETATM   14  N   UNL     1      25.449  46.529  51.531  1.00  0.00    -0.054 N 
HETATM   15  H   UNL     1      24.475  46.438  51.221  1.00  0.00     0.278 HD
HETATM   16  H   UNL     1      25.822  45.567  51.560  1.00  0.00     0.278 HD
BRANCH  14  17
HETATM   17  C   UNL     1      25.497  47.065  52.912  1.00  0.00     0.272 C 
BRANCH  17  18
HETATM   18  C   UNL     1      26.724  46.526  53.591  1.00  0.00    -0.033 A 
HETATM   19  C   UNL     1      27.038  45.167  53.504  1.00  0.00     0.011 A 
HETATM   20  C   UNL     1      28.069  44.628  54.283  1.00  0.00     0.030 A 
HETATM   21  C   UNL     1      28.806  45.417  55.173  1.00  0.00     0.037 A 
HETATM   22  C   UNL     1      28.517  46.789  55.211  1.00  0.00     0.030 A 
HETATM   23  C   UNL     1      27.487  47.338  54.436  1.00  0.00     0.011 A 
BRANCH  21  24
HETATM   24  N   UNL     1      29.792  44.858  56.032  1.00  0.00    -0.318 N 
HETATM   25  C   UNL     1      30.066  45.265  57.350  1.00  0.00     0.224 C 
HETATM   26  O   UNL     1      29.498  46.106  58.029  1.00  0.00    -0.273 OA
HETATM   27  C   UNL     1      31.303  44.533  57.814  1.00  0.00     0.105 C 
HETATM   28  C   UNL     1      31.413  43.377  56.840  1.00  0.00     0.029 C 
HETATM   29  C   UNL     1      30.797  43.927  55.571  1.00  0.00     0.133 C 
ENDBRANCH  21  24
ENDBRANCH  17  18
ENDBRANCH  14  17
ENDBRANCH   1  14
BRANCH   1  30
HETATM   30  C   UNL     1      25.295  48.142  49.717  1.00  0.00    -0.019 A 
HETATM   31  C   UNL     1      23.918  47.855  49.765  1.00  0.00     0.010 A 
HETATM   32  C   UNL     1      23.009  48.596  49.009  1.00  0.00     0.001 A 
HETATM   33  C   UNL     1      23.462  49.621  48.183  1.00  0.00     0.000 A 
HETATM   34  C   UNL     1      24.823  49.907  48.112  1.00  0.00     0.001 A 
HETATM   35  C   UNL     1      25.737  49.171  48.867  1.00  0.00     0.010 A 
ENDBRANCH   1  30
TORSDOF 8
ENDMDL
MODEL 3
REMARK VINA RESULT:      -9.2      2.463      5.984
REMARK  8 active torsions:
REMARK  status: ('A' for Active; 'I' for Inactive)
REMARK    1  A    between atoms: O_2  and  C_3 
REMARK    2  A    between atoms: C_5  and  N_6 
REMARK       I    between atoms: N_6  and  C_7 
REMARK    3  A    between atoms: C_7  and  C_8 
REMARK    4  A    between atoms: C_8  and  N_9 
REMARK    5  A    between atoms: C_8  and  C_25 
REMARK    6  A    between atoms: N_9  and  C_12 
REMARK    7  A    between atoms: C_12  and  C_13 
REMARK    8  A    between atoms: C_16  and  N_17 
ROOT
HETATM    1  C   UNL     1      26.108  46.187  50.690  1.00  0.00     0.310 C 
ENDROOT
BRANCH   1   2
HETATM    2  C   UNL     1      25.735  44.984  49.801  1.00  0.00     0.257 C 
HETATM    3  N   UNL     1      26.242  43.732  49.928  1.00  0.00    -0.325 N 
HETATM    4  H   UNL     1      25.781  43.090  49.286  1.00  0.00     0.169 HD
HETATM    5  O   UNL     1      24.844  45.163  48.952  1.00  0.00    -0.270 OA
BRANCH   3   6
HETATM    6  C   UNL     1      27.238  43.144  50.729  1.00  0.00     0.037 A 
HETATM    7  C   UNL     1      27.581  41.796  50.748  1.00  0.00     0.066 A 
HETATM    8  C   UNL     1      28.587  41.309  51.597  1.00  0.00     0.070 A 
HETATM    9  C   UNL     1      29.266  42.184  52.438  1.00  0.00     0.037 A 
HETATM   10  C   UNL     1      28.927  43.535  52.441  1.00  0.00     0.005 A 
HETATM   11  C   UNL     1      27.918  44.009  51.599  1.00  0.00     0.029 A 
BRANCH   8  12
HETATM   12  O   UNL     1      28.802  39.961  51.497  1.00  0.00    -0.356 OA
HETATM   13  C   UNL     1      28.463  39.349  50.257  1.00  0.00     0.210 C 
ENDBRANCH   8  12
ENDBRANCH   3   6
ENDBRANCH   1   2
BRANCH   1  14
HETATM   14  N   UNL     1      25.080  46.296  51.803  1.00  0.00    -0.054 N 
HETATM   15  H   UNL     1      24.150  46.477  51.408  1.00  0.00     0.278 HD
HETATM   16  H   UNL     1      25.024  45.354  52.223  1.00  0.00     0.278 HD
BRANCH  14  17
HETATM   17  C   UNL     1      25.363  47.255  52.898  1.00  0.00     0.272 C 
BRANCH  17  18
HETATM   18  C   UNL     1      26.517  46.730  53.705  1.00  0.00    -0.033 A 
HETATM   19  C   UNL     1      26.435  45.479  54.323  1.00  0.00     0.011 A 
HETATM   20  C   UNL     1      27.425  45.068  55.223  1.00  0.00     0.030 A 
HETATM   21  C   UNL     1      28.514  45.888  55.541  1.00  0.00     0.037 A 
HETATM   22  C   UNL     1      28.612  47.118  54.874  1.00  0.00     0.030 A 
HETATM   23  C   UNL     1      27.627  47.538  53.972  1.00  0.00     0.011 A 
BRANCH  21  24
HETATM   24  N   UNL     1      29.473  45.514  56.522  1.00  0.00    -0.318 N 
HETATM   25  C   UNL     1      30.507  44.577  56.350  1.00  0.00     0.224 C 
HETATM   26  O   UNL     1      30.824  43.957  55.347  1.00  0.00    -0.273 OA
HETATM   27  C   UNL     1      31.161  44.355  57.693  1.00  0.00     0.105 C 
HETATM   28  C   UNL     1      30.720  45.560  58.501  1.00  0.00     0.029 C 
HETATM   29  C   UNL     1      29.369  45.904  57.910  1.00  0.00     0.133 C 
ENDBRANCH  21  24
ENDBRANCH  17  18
ENDBRANCH  14  17
ENDBRANCH   1  14
BRANCH   1  30
HETATM   30  C   UNL     1      26.099  47.522  49.966  1.00  0.00    -0.019 A 
HETATM   31  C   UNL     1      24.870  48.076  49.558  1.00  0.00     0.010 A 
HETATM   32  C   UNL     1      24.832  49.254  48.812  1.00  0.00     0.001 A 
HETATM   33  C   UNL     1      26.017  49.885  48.447  1.00  0.00     0.000 A 
HETATM   34  C   UNL     1      27.241  49.343  48.829  1.00  0.00     0.001 A 
HETATM   35  C   UNL     1      27.286  48.166  49.577  1.00  0.00     0.010 A 
ENDBRANCH   1  30
TORSDOF 8
ENDMDL
MODEL 4
REMARK VINA RESULT:      -9.0      3.866      9.583
REMARK  8 active torsions:
REMARK  status: ('A' for Active; 'I' for Inactive)
REMARK    1  A    between atoms: O_2  and  C_3 
REMARK    2  A    between atoms: C_5  and  N_6 
REMARK       I    between atoms: N_6  and  C_7 
REMARK    3  A    between atoms: C_7  and  C_8 
REMARK    4  A    between atoms: C_8  and  N_9 
REMARK    5  A    between atoms: C_8  and  C_25 
REMARK    6  A    between atoms: N_9  and  C_12 
REMARK    7  A    between atoms: C_12  and  C_13 
REMARK    8  A    between atoms: C_16  and  N_17 
ROOT
HETATM    1  C   UNL     1      26.912  42.228  51.646  1.00  0.00     0.310 C 
ENDROOT
BRANCH   1   2
HETATM    2  C   UNL     1      27.351  42.342  50.172  1.00  0.00     0.257 C 
HETATM    3  N   UNL     1      27.657  41.296  49.365  1.00  0.00    -0.325 N 
HETATM    4  H   UNL     1      27.833  41.613  48.414  1.00  0.00     0.169 HD
HETATM    5  O   UNL     1      27.349  43.479  49.669  1.00  0.00    -0.270 OA
BRANCH   3   6
HETATM    6  C   UNL     1      27.781  39.907  49.551  1.00  0.00     0.037 A 
HETATM    7  C   UNL     1      28.873  39.252  50.115  1.00  0.00     0.066 A 
HETATM    8  C   UNL     1      28.900  37.855  50.245  1.00  0.00     0.070 A 
HETATM    9  C   UNL     1      27.817  37.098  49.810  1.00  0.00     0.037 A 
HETATM   10  C   UNL     1      26.722  37.736  49.232  1.00  0.00     0.005 A 
HETATM   11  C   UNL     1      26.708  39.126  49.099  1.00  0.00     0.029 A 
BRANCH   8  12
HETATM   12  O   UNL     1      30.044  37.367  50.816  1.00  0.00    -0.356 OA
HETATM   13  C   UNL     1      29.903  36.237  51.670  1.00  0.00     0.210 C 
ENDBRANCH   8  12
ENDBRANCH   3   6
ENDBRANCH   1   2
BRANCH   1  14
HETATM   14  N   UNL     1      25.763  43.195  51.880  1.00  0.00    -0.054 N 
HETATM   15  H   UNL     1      25.463  43.153  52.861  1.00  0.00     0.278 HD
HETATM   16  H   UNL     1      26.164  44.138  51.753  1.00  0.00     0.278 HD
BRANCH  14  17
HETATM   17  C   UNL     1      24.589  43.086  50.982  1.00  0.00     0.272 C 
BRANCH  17  18
HETATM   18  C   UNL     1      24.198  44.468  50.541  1.00  0.00    -0.033 A 
HETATM   19  C   UNL     1      23.362  44.645  49.435  1.00  0.00     0.011 A 
HETATM   20  C   UNL     1      23.145  45.924  48.908  1.00  0.00     0.030 A 
HETATM   21  C   UNL     1      23.760  47.056  49.456  1.00  0.00     0.037 A 
HETATM   22  C   UNL     1      24.553  46.872  50.598  1.00  0.00     0.030 A 
HETATM   23  C   UNL     1      24.775  45.596  51.132  1.00  0.00     0.011 A 
BRANCH  21  24
HETATM   24  N   UNL     1      23.616  48.344  48.871  1.00  0.00    -0.318 N 
HETATM   25  C   UNL     1      24.657  49.254  48.611  1.00  0.00     0.224 C 
HETATM   26  O   UNL     1      25.859  49.112  48.770  1.00  0.00    -0.273 OA
HETATM   27  C   UNL     1      24.035  50.556  48.164  1.00  0.00     0.105 C 
HETATM   28  C   UNL     1      22.630  50.153  47.763  1.00  0.00     0.029 C 
HETATM   29  C   UNL     1      22.331  48.973  48.663  1.00  0.00     0.133 C 
ENDBRANCH  21  24
ENDBRANCH  17  18
ENDBRANCH  14  17
ENDBRANCH   1  14
BRANCH   1  30
HETATM   30  C   UNL     1      27.993  42.597  52.647  1.00  0.00    -0.019 A 
HETATM   31  C   UNL     1      27.700  43.522  53.668  1.00  0.00     0.010 A 
HETATM   32  C   UNL     1      28.694  43.951  54.547  1.00  0.00     0.001 A 
HETATM   33  C   UNL     1      29.996  43.479  54.411  1.00  0.00     0.000 A 
HETATM   34  C   UNL     1      30.306  42.577  53.397  1.00  0.00     0.001 A 
HETATM   35  C   UNL     1      29.316  42.141  52.515  1.00  0.00     0.010 A 
ENDBRANCH   1  30
TORSDOF 8
ENDMDL
MODEL 5
REMARK VINA RESULT:      -9.0      2.218      9.301
REMARK  8 active torsions:
REMARK  status: ('A' for Active; 'I' for Inactive)
REMARK    1  A    between atoms: O_2  and  C_3 
REMARK    2  A    between atoms: C_5  and  N_6 
REMARK       I    between atoms: N_6  and  C_7 
REMARK    3  A    between atoms: C_7  and  C_8 
REMARK    4  A    between atoms: C_8  and  N_9 
REMARK    5  A    between atoms: C_8  and  C_25 
REMARK    6  A    between atoms: N_9  and  C_12 
REMARK    7  A    between atoms: C_12  and  C_13 
REMARK    8  A    between atoms: C_16  and  N_17 
ROOT
HETATM    1  C   UNL     1      26.648  43.985  51.741  1.00  0.00     0.310 C 
ENDROOT
BRANCH   1   2
HETATM    2  C   UNL     1      25.931  44.084  53.103  1.00  0.00     0.257 C 
HETATM    3  N   UNL     1      26.550  44.187  54.305  1.00  0.00    -0.325 N 
HETATM    4  H   UNL     1      25.870  44.327  55.050  1.00  0.00     0.169 HD
HETATM    5  O   UNL     1      24.690  44.152  53.084  1.00  0.00    -0.270 OA
BRANCH   3   6
HETATM    6  C   UNL     1      27.889  44.143  54.736  1.00  0.00     0.037 A 
HETATM    7  C   UNL     1      28.551  45.138  55.449  1.00  0.00     0.066 A 
HETATM    8  C   UNL     1      29.897  44.998  55.822  1.00  0.00     0.070 A 
HETATM    9  C   UNL     1      30.592  43.841  55.484  1.00  0.00     0.037 A 
HETATM   10  C   UNL     1      29.948  42.841  54.760  1.00  0.00     0.005 A 
HETATM   11  C   UNL     1      28.612  42.993  54.385  1.00  0.00     0.029 A 
BRANCH   8  12
HETATM   12  O   UNL     1      30.401  46.065  56.516  1.00  0.00    -0.356 OA
HETATM   13  C   UNL     1      30.348  45.988  57.937  1.00  0.00     0.210 C 
ENDBRANCH   8  12
ENDBRANCH   3   6
ENDBRANCH   1   2
BRANCH   1  14
HETATM   14  N   UNL     1      25.860  44.792  50.724  1.00  0.00    -0.054 N 
HETATM   15  H   UNL     1      25.562  44.188  49.950  1.00  0.00     0.278 HD
HETATM   16  H   UNL     1      24.991  45.073  51.206  1.00  0.00     0.278 HD
BRANCH  14  17
HETATM   17  C   UNL     1      26.493  46.024  50.195  1.00  0.00     0.272 C 
BRANCH  17  18
HETATM   18  C   UNL     1      25.414  46.923  49.663  1.00  0.00    -0.033 A 
HETATM   19  C   UNL     1      25.681  48.271  49.410  1.00  0.00     0.011 A 
HETATM   20  C   UNL     1      24.639  49.152  49.094  1.00  0.00     0.030 A 
HETATM   21  C   UNL     1      23.308  48.722  49.032  1.00  0.00     0.037 A 
HETATM   22  C   UNL     1      23.061  47.357  49.235  1.00  0.00     0.030 A 
HETATM   23  C   UNL     1      24.096  46.468  49.552  1.00  0.00     0.011 A 
BRANCH  21  24
HETATM   24  N   UNL     1      22.238  49.629  48.801  1.00  0.00    -0.318 N 
HETATM   25  C   UNL     1      21.861  50.693  49.640  1.00  0.00     0.224 C 
HETATM   26  O   UNL     1      22.389  51.085  50.669  1.00  0.00    -0.273 OA
HETATM   27  C   UNL     1      20.570  51.269  49.108  1.00  0.00     0.105 C 
HETATM   28  C   UNL     1      20.515  50.751  47.684  1.00  0.00     0.029 C 
HETATM   29  C   UNL     1      21.253  49.432  47.761  1.00  0.00     0.133 C 
ENDBRANCH  21  24
ENDBRANCH  17  18
ENDBRANCH  14  17
ENDBRANCH   1  14
BRANCH   1  30
HETATM   30  C   UNL     1      26.740  42.572  51.189  1.00  0.00    -0.019 A 
HETATM   31  C   UNL     1      27.974  41.896  51.229  1.00  0.00     0.010 A 
HETATM   32  C   UNL     1      28.115  40.635  50.649  1.00  0.00     0.001 A 
HETATM   33  C   UNL     1      27.034  40.040  50.006  1.00  0.00     0.000 A 
HETATM   34  C   UNL     1      25.811  40.702  49.943  1.00  0.00     0.001 A 
HETATM   35  C   UNL     1      25.662  41.962  50.524  1.00  0.00     0.010 A 
ENDBRANCH   1  30
TORSDOF 8
ENDMDL
MODEL 6
REMARK VINA RESULT:      -9.0      2.295      5.732
REMARK  8 active torsions:
REMARK  status: ('A' for Active; 'I' for Inactive)
REMARK    1  A    between atoms: O_2  and  C_3 
REMARK    2  A    between atoms: C_5  and  N_6 
REMARK       I    between atoms: N_6  and  C_7 
REMARK    3  A    between atoms: C_7  and  C_8 
REMARK    4  A    between atoms: C_8  and  N_9 
REMARK    5  A    between atoms: C_8  and  C_25 
REMARK    6  A    between atoms: N_9  and  C_12 
REMARK    7  A    between atoms: C_12  and  C_13 
REMARK    8  A    between atoms: C_16  and  N_17 
ROOT
HETATM    1  C   UNL     1      25.952  45.895  50.411  1.00  0.00     0.310 C 
ENDROOT
BRANCH   1   2
HETATM    2  C   UNL     1      25.079  44.946  49.565  1.00  0.00     0.257 C 
HETATM    3  N   UNL     1      25.270  43.609  49.443  1.00  0.00    -0.325 N 
HETATM    4  H   UNL     1      24.518  43.185  48.904  1.00  0.00     0.169 HD
HETATM    5  O   UNL     1      24.079  45.440  49.015  1.00  0.00    -0.270 OA
BRANCH   3   6
HETATM    6  C   UNL     1      26.255  42.706  49.886  1.00  0.00     0.037 A 
HETATM    7  C   UNL     1      27.079  41.933  49.073  1.00  0.00     0.066 A 
HETATM    8  C   UNL     1      28.025  41.052  49.619  1.00  0.00     0.070 A 
HETATM    9  C   UNL     1      28.155  40.945  51.000  1.00  0.00     0.037 A 
HETATM   10  C   UNL     1      27.330  41.702  51.828  1.00  0.00     0.005 A 
HETATM   11  C   UNL     1      26.385  42.569  51.275  1.00  0.00     0.029 A 
BRANCH   8  12
HETATM   12  O   UNL     1      28.755  40.365  48.687  1.00  0.00    -0.356 OA
HETATM   13  C   UNL     1      28.027  39.760  47.623  1.00  0.00     0.210 C 
ENDBRANCH   8  12
ENDBRANCH   3   6
ENDBRANCH   1   2
BRANCH   1  14
HETATM   14  N   UNL     1      25.295  46.067  51.770  1.00  0.00    -0.054 N 
HETATM   15  H   UNL     1      24.278  46.154  51.660  1.00  0.00     0.278 HD
HETATM   16  H   UNL     1      25.445  45.173  52.265  1.00  0.00     0.278 HD
BRANCH  14  17
HETATM   17  C   UNL     1      25.808  47.150  52.642  1.00  0.00     0.272 C 
BRANCH  17  18
HETATM   18  C   UNL     1      26.721  46.543  53.669  1.00  0.00    -0.033 A 
HETATM   19  C   UNL     1      27.566  47.355  54.430  1.00  0.00     0.011 A 
HETATM   20  C   UNL     1      28.546  46.784  55.251  1.00  0.00     0.030 A 
HETATM   21  C   UNL     1      28.721  45.398  55.330  1.00  0.00     0.037 A 
HETATM   22  C   UNL     1      27.832  44.593  54.603  1.00  0.00     0.030 A 
HETATM   23  C   UNL     1      26.848  45.154  53.778  1.00  0.00     0.011 A 
BRANCH  21  24
HETATM   24  N   UNL     1      29.772  44.816  56.091  1.00  0.00    -0.318 N 
HETATM   25  C   UNL     1      30.209  45.244  57.357  1.00  0.00     0.224 C 
HETATM   26  O   UNL     1      29.758  46.129  58.068  1.00  0.00    -0.273 OA
HETATM   27  C   UNL     1      31.458  44.468  57.704  1.00  0.00     0.105 C 
HETATM   28  C   UNL     1      31.408  43.283  56.760  1.00  0.00     0.029 C 
HETATM   29  C   UNL     1      30.678  43.827  55.551  1.00  0.00     0.133 C 
ENDBRANCH  21  24
ENDBRANCH  17  18
ENDBRANCH  14  17
ENDBRANCH   1  14
BRANCH   1  30
HETATM   30  C   UNL     1      26.100  47.290  49.828  1.00  0.00    -0.019 A 
HETATM   31  C   UNL     1      24.945  48.026  49.503  1.00  0.00     0.010 A 
HETATM   32  C   UNL     1      25.046  49.271  48.882  1.00  0.00     0.001 A 
HETATM   33  C   UNL     1      26.296  49.791  48.561  1.00  0.00     0.000 A 
HETATM   34  C   UNL     1      27.448  49.068  48.860  1.00  0.00     0.001 A 
HETATM   35  C   UNL     1      27.355  47.823  49.484  1.00  0.00     0.010 A 
ENDBRANCH   1  30
TORSDOF 8
ENDMDL
MODEL 7
REMARK VINA RESULT:      -8.8      3.968      7.318
REMARK  8 active torsions:
REMARK  status: ('A' for Active; 'I' for Inactive)
REMARK    1  A    between atoms: O_2  and  C_3 
REMARK    2  A    between atoms: C_5  and  N_6 
REMARK       I    between atoms: N_6  and  C_7 
REMARK    3  A    between atoms: C_7  and  C_8 
REMARK    4  A    between atoms: C_8  and  N_9 
REMARK    5  A    between atoms: C_8  and  C_25 
REMARK    6  A    between atoms: N_9  and  C_12 
REMARK    7  A    between atoms: C_12  and  C_13 
REMARK    8  A    between atoms: C_16  and  N_17 
ROOT
HETATM    1  C   UNL     1      26.289  42.630  50.088  1.00  0.00     0.310 C 
ENDROOT
BRANCH   1   2
HETATM    2  C   UNL     1      25.142  41.736  49.575  1.00  0.00     0.257 C 
HETATM    3  N   UNL     1      25.291  40.485  49.073  1.00  0.00    -0.325 N 
HETATM    4  H   UNL     1      24.385  40.063  48.882  1.00  0.00     0.169 HD
HETATM    5  O   UNL     1      23.985  42.173  49.704  1.00  0.00    -0.270 OA
BRANCH   3   6
HETATM    6  C   UNL     1      26.394  39.667  48.767  1.00  0.00     0.037 A 
HETATM    7  C   UNL     1      27.045  38.809  49.649  1.00  0.00     0.066 A 
HETATM    8  C   UNL     1      28.147  38.041  49.243  1.00  0.00     0.070 A 
HETATM    9  C   UNL     1      28.604  38.126  47.932  1.00  0.00     0.037 A 
HETATM   10  C   UNL     1      27.973  38.988  47.040  1.00  0.00     0.005 A 
HETATM   11  C   UNL     1      26.882  39.756  47.456  1.00  0.00     0.029 A 
BRANCH   8  12
HETATM   12  O   UNL     1      28.674  37.251  50.229  1.00  0.00    -0.356 OA
HETATM   13  C   UNL     1      29.895  37.688  50.817  1.00  0.00     0.210 C 
ENDBRANCH   8  12
ENDBRANCH   3   6
ENDBRANCH   1   2
BRANCH   1  14
HETATM   14  N   UNL     1      26.852  42.008  51.354  1.00  0.00    -0.054 N 
HETATM   15  H   UNL     1      26.511  42.518  52.178  1.00  0.00     0.278 HD
HETATM   16  H   UNL     1      26.426  41.069  51.415  1.00  0.00     0.278 HD
BRANCH  14  17
HETATM   17  C   UNL     1      28.322  41.836  51.433  1.00  0.00     0.272 C 
BRANCH  17  18
HETATM   18  C   UNL     1      28.792  42.353  52.763  1.00  0.00    -0.033 A 
HETATM   19  C   UNL     1      27.873  42.850  53.691  1.00  0.00     0.011 A 
HETATM   20  C   UNL     1      28.317  43.502  54.848  1.00  0.00     0.030 A 
HETATM   21  C   UNL     1      29.679  43.687  55.109  1.00  0.00     0.037 A 
HETATM   22  C   UNL     1      30.591  43.137  54.196  1.00  0.00     0.030 A 
HETATM   23  C   UNL     1      30.157  42.484  53.036  1.00  0.00     0.011 A 
BRANCH  21  24
HETATM   24  N   UNL     1      30.134  44.427  56.234  1.00  0.00    -0.318 N 
HETATM   25  C   UNL     1      31.065  43.986  57.191  1.00  0.00     0.224 C 
HETATM   26  O   UNL     1      31.700  42.943  57.222  1.00  0.00    -0.273 OA
HETATM   27  C   UNL     1      31.110  45.008  58.302  1.00  0.00     0.105 C 
HETATM   28  C   UNL     1      30.491  46.239  57.671  1.00  0.00     0.029 C 
HETATM   29  C   UNL     1      29.521  45.666  56.659  1.00  0.00     0.133 C 
ENDBRANCH  21  24
ENDBRANCH  17  18
ENDBRANCH  14  17
ENDBRANCH   1  14
BRANCH   1  30
HETATM   30  C   UNL     1      25.862  44.040  50.456  1.00  0.00    -0.019 A 
HETATM   31  C   UNL     1      26.092  45.089  49.546  1.00  0.00     0.010 A 
HETATM   32  C   UNL     1      25.795  46.408  49.889  1.00  0.00     0.001 A 
HETATM   33  C   UNL     1      25.282  46.702  51.149  1.00  0.00     0.000 A 
HETATM   34  C   UNL     1      25.064  45.678  52.067  1.00  0.00     0.001 A 
HETATM   35  C   UNL     1      25.356  44.356  51.729  1.00  0.00     0.010 A 
ENDBRANCH   1  30
TORSDOF 8
ENDMDL
MODEL 8
REMARK VINA RESULT:      -8.7     12.283     14.044
REMARK  8 active torsions:
REMARK  status: ('A' for Active; 'I' for Inactive)
REMARK    1  A    between atoms: O_2  and  C_3 
REMARK    2  A    between atoms: C_5  and  N_6 
REMARK       I    between atoms: N_6  and  C_7 
REMARK    3  A    between atoms: C_7  and  C_8 
REMARK    4  A    between atoms: C_8  and  N_9 
REMARK    5  A    between atoms: C_8  and  C_25 
REMARK    6  A    between atoms: N_9  and  C_12 
REMARK    7  A    between atoms: C_12  and  C_13 
REMARK    8  A    between atoms: C_16  and  N_17 
ROOT
HETATM    1  C   UNL     1      33.228  49.490  40.975  1.00  0.00     0.310 C 
ENDROOT
BRANCH   1   2
HETATM    2  C   UNL     1      32.472  48.152  41.094  1.00  0.00     0.257 C 
HETATM    3  N   UNL     1      31.145  47.981  40.869  1.00  0.00    -0.325 N 
HETATM    4  H   UNL     1      30.893  46.996  40.924  1.00  0.00     0.169 HD
HETATM    5  O   UNL     1      33.151  47.140  41.342  1.00  0.00    -0.270 OA
BRANCH   3   6
HETATM    6  C   UNL     1      30.071  48.845  40.585  1.00  0.00     0.037 A 
HETATM    7  C   UNL     1      29.852  49.507  39.380  1.00  0.00     0.066 A 
HETATM    8  C   UNL     1      28.750  50.358  39.204  1.00  0.00     0.070 A 
HETATM    9  C   UNL     1      27.847  50.547  40.245  1.00  0.00     0.037 A 
HETATM   10  C   UNL     1      28.058  49.901  41.461  1.00  0.00     0.005 A 
HETATM   11  C   UNL     1      29.163  49.064  41.630  1.00  0.00     0.029 A 
BRANCH   8  12
HETATM   12  O   UNL     1      28.679  50.934  37.964  1.00  0.00    -0.356 OA
HETATM   13  C   UNL     1      29.626  51.959  37.679  1.00  0.00     0.210 C 
ENDBRANCH   8  12
ENDBRANCH   3   6
ENDBRANCH   1   2
BRANCH   1  14
HETATM   14  N   UNL     1      34.548  49.363  41.717  1.00  0.00    -0.054 N 
HETATM   15  H   UNL     1      34.395  49.462  42.727  1.00  0.00     0.278 HD
HETATM   16  H   UNL     1      34.851  48.386  41.577  1.00  0.00     0.278 HD
BRANCH  14  17
HETATM   17  C   UNL     1      35.660  50.240  41.281  1.00  0.00     0.272 C 
BRANCH  17  18
HETATM   18  C   UNL     1      36.199  50.960  42.484  1.00  0.00    -0.033 A 
HETATM   19  C   UNL     1      35.408  51.893  43.160  1.00  0.00     0.011 A 
HETATM   20  C   UNL     1      35.963  52.699  44.162  1.00  0.00     0.030 A 
HETATM   21  C   UNL     1      37.315  52.609  44.510  1.00  0.00     0.037 A 
HETATM   22  C   UNL     1      38.085  51.632  43.862  1.00  0.00     0.030 A 
HETATM   23  C   UNL     1      37.539  50.822  42.859  1.00  0.00     0.011 A 
BRANCH  21  24
HETATM   24  N   UNL     1      37.905  53.486  45.461  1.00  0.00    -0.318 N 
HETATM   25  C   UNL     1      38.275  54.824  45.233  1.00  0.00     0.224 C 
HETATM   26  O   UNL     1      38.118  55.505  44.231  1.00  0.00    -0.273 OA
HETATM   27  C   UNL     1      39.027  55.311  46.449  1.00  0.00     0.105 C 
HETATM   28  C   UNL     1      38.647  54.310  47.522  1.00  0.00     0.029 C 
HETATM   29  C   UNL     1      38.401  53.036  46.743  1.00  0.00     0.133 C 
ENDBRANCH  21  24
ENDBRANCH  17  18
ENDBRANCH  14  17
ENDBRANCH   1  14
BRANCH   1  30
HETATM   30  C   UNL     1      32.501  50.672  41.594  1.00  0.00    -0.019 A 
HETATM   31  C   UNL     1      32.183  50.643  42.965  1.00  0.00     0.010 A 
HETATM   32  C   UNL     1      31.438  51.670  43.545  1.00  0.00     0.001 A 
HETATM   33  C   UNL     1      30.984  52.728  42.764  1.00  0.00     0.000 A 
HETATM   34  C   UNL     1      31.276  52.763  41.403  1.00  0.00     0.001 A 
HETATM   35  C   UNL     1      32.024  51.741  40.817  1.00  0.00     0.010 A 
ENDBRANCH   1  30
TORSDOF 8
ENDMDL
MODEL 9
REMARK VINA RESULT:      -8.7      3.073      8.953
REMARK  8 active torsions:
REMARK  status: ('A' for Active; 'I' for Inactive)
REMARK    1  A    between atoms: O_2  and  C_3 
REMARK    2  A    between atoms: C_5  and  N_6 
REMARK       I    between atoms: N_6  and  C_7 
REMARK    3  A    between atoms: C_7  and  C_8 
REMARK    4  A    between atoms: C_8  and  N_9 
REMARK    5  A    between atoms: C_8  and  C_25 
REMARK    6  A    between atoms: N_9  and  C_12 
REMARK    7  A    between atoms: C_12  and  C_13 
REMARK    8  A    between atoms: C_16  and  N_17 
ROOT
HETATM    1  C   UNL     1      27.107  42.034  50.091  1.00  0.00     0.310 C 
ENDROOT
BRANCH   1   2
HETATM    2  C   UNL     1      26.822  41.024  51.220  1.00  0.00     0.257 C 
HETATM    3  N   UNL     1      27.222  41.161  52.509  1.00  0.00    -0.325 N 
HETATM    4  H   UNL     1      26.841  40.413  53.086  1.00  0.00     0.169 HD
HETATM    5  O   UNL     1      26.104  40.050  50.938  1.00  0.00    -0.270 OA
BRANCH   3   6
HETATM    6  C   UNL     1      28.027  42.083  53.203  1.00  0.00     0.037 A 
HETATM    7  C   UNL     1      27.569  43.121  54.010  1.00  0.00     0.066 A 
HETATM    8  C   UNL     1      28.460  43.996  54.651  1.00  0.00     0.070 A 
HETATM    9  C   UNL     1      29.832  43.827  54.490  1.00  0.00     0.037 A 
HETATM   10  C   UNL     1      30.306  42.801  53.676  1.00  0.00     0.005 A 
HETATM   11  C   UNL     1      29.412  41.942  53.034  1.00  0.00     0.029 A 
BRANCH   8  12
HETATM   12  O   UNL     1      27.852  44.962  55.405  1.00  0.00    -0.356 OA
HETATM   13  C   UNL     1      28.698  45.951  55.983  1.00  0.00     0.210 C 
ENDBRANCH   8  12
ENDBRANCH   3   6
ENDBRANCH   1   2
BRANCH   1  14
HETATM   14  N   UNL     1      26.150  43.204  50.240  1.00  0.00    -0.054 N 
HETATM   15  H   UNL     1      25.671  43.383  49.350  1.00  0.00     0.278 HD
HETATM   16  H   UNL     1      25.415  42.880  50.890  1.00  0.00     0.278 HD
BRANCH  14  17
HETATM   17  C   UNL     1      26.700  44.468  50.786  1.00  0.00     0.272 C 
BRANCH  17  18
HETATM   18  C   UNL     1      25.993  45.619  50.127  1.00  0.00    -0.033 A 
HETATM   19  C   UNL     1      26.637  46.850  49.979  1.00  0.00     0.011 A 
HETATM   20  C   UNL     1      25.926  47.973  49.539  1.00  0.00     0.030 A 
HETATM   21  C   UNL     1      24.558  47.906  49.246  1.00  0.00     0.037 A 
HETATM   22  C   UNL     1      23.937  46.653  49.347  1.00  0.00     0.030 A 
HETATM   23  C   UNL     1      24.640  45.524  49.787  1.00  0.00     0.011 A 
BRANCH  21  24
HETATM   24  N   UNL     1      23.811  49.061  48.887  1.00  0.00    -0.318 N 
HETATM   25  C   UNL     1      24.216  50.058  47.980  1.00  0.00     0.224 C 
HETATM   26  O   UNL     1      25.225  50.108  47.293  1.00  0.00    -0.273 OA
HETATM   27  C   UNL     1      23.208  51.181  48.044  1.00  0.00     0.105 C 
HETATM   28  C   UNL     1      22.003  50.534  48.696  1.00  0.00     0.029 C 
HETATM   29  C   UNL     1      22.612  49.469  49.584  1.00  0.00     0.133 C 
ENDBRANCH  21  24
ENDBRANCH  17  18
ENDBRANCH  14  17
ENDBRANCH   1  14
BRANCH   1  30
HETATM   30  C   UNL     1      26.892  41.480  48.692  1.00  0.00    -0.019 A 
HETATM   31  C   UNL     1      27.993  40.978  47.974  1.00  0.00     0.010 A 
HETATM   32  C   UNL     1      27.847  40.547  46.655  1.00  0.00     0.001 A 
HETATM   33  C   UNL     1      26.606  40.626  46.030  1.00  0.00     0.000 A 
HETATM   34  C   UNL     1      25.510  41.135  46.722  1.00  0.00     0.001 A 
HETATM   35  C   UNL     1      25.649  41.566  48.042  1.00  0.00     0.010 A 
ENDBRANCH   1  30
TORSDOF 8
ENDMDL
MODEL 10
REMARK VINA RESULT:      -8.5      3.885     10.728
REMARK  8 active torsions:
REMARK  status: ('A' for Active; 'I' for Inactive)
REMARK    1  A    between atoms: O_2  and  C_3 
REMARK    2  A    between atoms: C_5  and  N_6 
REMARK       I    between atoms: N_6  and  C_7 
REMARK    3  A    between atoms: C_7  and  C_8 
REMARK    4  A    between atoms: C_8  and  N_9 
REMARK    5  A    between atoms: C_8  and  C_25 
REMARK    6  A    between atoms: N_9  and  C_12 
REMARK    7  A    between atoms: C_12  and  C_13 
REMARK    8  A    between atoms: C_16  and  N_17 
ROOT
HETATM    1  C   UNL     1      23.342  48.062  49.392  1.00  0.00     0.310 C 
ENDROOT
BRANCH   1   2
HETATM    2  C   UNL     1      23.028  46.841  48.505  1.00  0.00     0.257 C 
HETATM    3  N   UNL     1      23.465  45.577  48.733  1.00  0.00    -0.325 N 
HETATM    4  H   UNL     1      23.057  44.929  48.062  1.00  0.00     0.169 HD
HETATM    5  O   UNL     1      22.252  47.021  47.550  1.00  0.00    -0.270 OA
BRANCH   3   6
HETATM    6  C   UNL     1      24.333  44.984  49.667  1.00  0.00     0.037 A 
HETATM    7  C   UNL     1      24.087  44.829  51.028  1.00  0.00     0.066 A 
HETATM    8  C   UNL     1      25.030  44.230  51.878  1.00  0.00     0.070 A 
HETATM    9  C   UNL     1      26.237  43.772  51.360  1.00  0.00     0.037 A 
HETATM   10  C   UNL     1      26.505  43.931  50.002  1.00  0.00     0.005 A 
HETATM   11  C   UNL     1      25.564  44.537  49.166  1.00  0.00     0.029 A 
BRANCH   8  12
HETATM   12  O   UNL     1      24.637  44.155  53.187  1.00  0.00    -0.356 OA
HETATM   13  C   UNL     1      25.395  44.908  54.128  1.00  0.00     0.210 C 
ENDBRANCH   8  12
ENDBRANCH   3   6
ENDBRANCH   1   2
BRANCH   1  14
HETATM   14  N   UNL     1      22.376  49.178  49.032  1.00  0.00    -0.054 N 
HETATM   15  H   UNL     1      22.676  49.636  48.163  1.00  0.00     0.278 HD
HETATM   16  H   UNL     1      21.484  48.710  48.804  1.00  0.00     0.278 HD
BRANCH  14  17
HETATM   17  C   UNL     1      22.092  50.195  50.072  1.00  0.00     0.272 C 
BRANCH  17  18
HETATM   18  C   UNL     1      20.785  50.860  49.744  1.00  0.00    -0.033 A 
HETATM   19  C   UNL     1      19.625  50.519  50.444  1.00  0.00     0.011 A 
HETATM   20  C   UNL     1      18.377  50.993  50.022  1.00  0.00     0.030 A 
HETATM   21  C   UNL     1      18.247  51.808  48.891  1.00  0.00     0.037 A 
HETATM   22  C   UNL     1      19.424  52.186  48.229  1.00  0.00     0.030 A 
HETATM   23  C   UNL     1      20.677  51.716  48.644  1.00  0.00     0.011 A 
BRANCH  21  24
HETATM   24  N   UNL     1      16.976  52.218  48.405  1.00  0.00    -0.318 N 
HETATM   25  C   UNL     1      16.017  52.958  49.120  1.00  0.00     0.224 C 
HETATM   26  O   UNL     1      16.095  53.437  50.241  1.00  0.00    -0.273 OA
HETATM   27  C   UNL     1      14.755  53.006  48.293  1.00  0.00     0.105 C 
HETATM   28  C   UNL     1      15.233  52.641  46.902  1.00  0.00     0.029 C 
HETATM   29  C   UNL     1      16.416  51.733  47.163  1.00  0.00     0.133 C 
ENDBRANCH  21  24
ENDBRANCH  17  18
ENDBRANCH  14  17
ENDBRANCH   1  14
BRANCH   1  30
HETATM   30  C   UNL     1      24.739  48.627  49.202  1.00  0.00    -0.019 A 
HETATM   31  C   UNL     1      24.952  49.625  48.232  1.00  0.00     0.010 A 
HETATM   32  C   UNL     1      26.237  50.099  47.968  1.00  0.00     0.001 A 
HETATM   33  C   UNL     1      27.328  49.574  48.654  1.00  0.00     0.000 A 
HETATM   34  C   UNL     1      27.137  48.575  49.605  1.00  0.00     0.001 A 
HETATM   35  C   UNL     1      25.853  48.098  49.876  1.00  0.00     0.010 A 
ENDBRANCH   1  30
TORSDOF 8
ENDMDL
