MODEL 1
REMARK VINA RESULT:      -9.2      0.000      0.000
REMARK  3 active torsions:
REMARK  status: ('A' for Active; 'I' for Inactive)
REMARK    1  A    between atoms: C_2  and  N_3 
REMARK    2  A    between atoms: C_2  and  C_10 
REMARK    3  A    between atoms: C_13  and  C_14 
ROOT
HETATM    1  C   UNL     1      26.691  45.134  52.462  1.00  0.00    -0.028 A 
HETATM    2  C   UNL     1      26.836  44.881  51.089  1.00  0.00     0.010 A 
HETATM    3  C   UNL     1      26.560  45.878  50.146  1.00  0.00     0.014 A 
HETATM    4  C   UNL     1      26.132  47.155  50.540  1.00  0.00    -0.006 A 
HETATM    5  C   UNL     1      25.967  47.390  51.915  1.00  0.00     0.014 A 
HETATM    6  C   UNL     1      26.246  46.402  52.865  1.00  0.00     0.010 A 
ENDROOT
BRANCH   4   7
HETATM    7  C   UNL     1      25.832  48.209  49.569  1.00  0.00     0.082 A 
HETATM    8  N   UNL     1      26.882  48.899  49.050  1.00  0.00    -0.240 NA
HETATM    9  C   UNL     1      26.623  49.875  48.158  1.00  0.00     0.236 A 
HETATM   10  N   UNL     1      25.429  50.260  47.680  1.00  0.00    -0.224 NA
HETATM   11  C   UNL     1      24.430  49.535  48.201  1.00  0.00     0.141 A 
HETATM   12  C   UNL     1      24.534  48.510  49.131  1.00  0.00     0.041 A 
HETATM   13  N   UNL     1      23.109  49.694  47.882  1.00  0.00    -0.350 N 
HETATM   14  C   UNL     1      23.210  48.032  49.353  1.00  0.00     0.034 A 
HETATM   15  C   UNL     1      22.353  48.782  48.573  1.00  0.00     0.091 A 
HETATM   16  H   UNL     1      22.770  50.382  47.224  1.00  0.00     0.166 HD
ENDBRANCH   4   7
BRANCH   1  17
HETATM   17  C   UNL     1      27.039  44.053  53.472  1.00  0.00     0.217 C 
HETATM   18  C   UNL     1      25.987  44.013  54.586  1.00  0.00     0.045 C 
BRANCH  17  19
HETATM   19  N   UNL     1      28.453  44.244  54.056  1.00  0.00    -0.063 N 
HETATM   20  H   UNL     1      28.995  44.733  53.333  1.00  0.00     0.280 HD
HETATM   21  C   UNL     1      28.476  45.096  55.309  1.00  0.00     0.235 C 
HETATM   22  C   UNL     1      29.909  45.308  55.779  1.00  0.00     0.028 C 
HETATM   23  C   UNL     1      30.633  43.991  56.007  1.00  0.00     0.003 C 
HETATM   24  C   UNL     1      30.573  43.127  54.758  1.00  0.00     0.028 C 
HETATM   25  C   UNL     1      29.141  42.907  54.294  1.00  0.00     0.235 C 
ENDBRANCH  17  19
ENDBRANCH   1  17
TORSDOF 3
ENDMDL
MODEL 2
REMARK VINA RESULT:      -8.4      1.104      2.080
REMARK  3 active torsions:
REMARK  status: ('A' for Active; 'I' for Inactive)
REMARK    1  A    between atoms: C_2  and  N_3 
REMARK    2  A    between atoms: C_2  and  C_10 
REMARK    3  A    between atoms: C_13  and  C_14 
ROOT
HETATM    1  C   UNL     1      27.157  44.355  52.444  1.00  0.00    -0.028 A 
HETATM    2  C   UNL     1      27.481  44.450  51.081  1.00  0.00     0.010 A 
HETATM    3  C   UNL     1      26.824  45.367  50.253  1.00  0.00     0.014 A 
HETATM    4  C   UNL     1      25.826  46.217  50.754  1.00  0.00    -0.006 A 
HETATM    5  C   UNL     1      25.493  46.099  52.113  1.00  0.00     0.014 A 
HETATM    6  C   UNL     1      26.148  45.189  52.950  1.00  0.00     0.010 A 
ENDROOT
BRANCH   4   7
HETATM    7  C   UNL     1      25.124  47.179  49.902  1.00  0.00     0.082 A 
HETATM    8  N   UNL     1      23.789  47.000  49.724  1.00  0.00    -0.240 NA
HETATM    9  C   UNL     1      23.129  47.874  48.939  1.00  0.00     0.236 A 
HETATM   10  N   UNL     1      23.624  48.947  48.303  1.00  0.00    -0.224 NA
HETATM   11  C   UNL     1      24.936  49.096  48.529  1.00  0.00     0.141 A 
HETATM   12  C   UNL     1      25.752  48.279  49.300  1.00  0.00     0.041 A 
HETATM   13  N   UNL     1      25.699  50.113  48.023  1.00  0.00    -0.350 N 
HETATM   14  C   UNL     1      27.054  48.858  49.259  1.00  0.00     0.034 A 
HETATM   15  C   UNL     1      26.992  49.984  48.463  1.00  0.00     0.091 A 
HETATM   16  H   UNL     1      25.336  50.843  47.425  1.00  0.00     0.166 HD
ENDBRANCH   4   7
BRANCH   1  17
HETATM   17  C   UNL     1      27.913  43.385  53.336  1.00  0.00     0.217 C 
HETATM   18  C   UNL     1      26.939  42.668  54.279  1.00  0.00     0.045 C 
BRANCH  17  19
HETATM   19  N   UNL     1      29.033  44.086  54.130  1.00  0.00    -0.063 N 
HETATM   20  H   UNL     1      29.667  44.490  53.429  1.00  0.00     0.280 HD
HETATM   21  C   UNL     1      28.532  45.213  55.010  1.00  0.00     0.235 C 
HETATM   22  C   UNL     1      29.701  45.908  55.695  1.00  0.00     0.028 C 
HETATM   23  C   UNL     1      30.551  44.934  56.496  1.00  0.00     0.003 C 
HETATM   24  C   UNL     1      31.018  43.786  55.616  1.00  0.00     0.028 C 
HETATM   25  C   UNL     1      29.850  43.086  54.938  1.00  0.00     0.235 C 
ENDBRANCH  17  19
ENDBRANCH   1  17
TORSDOF 3
ENDMDL
MODEL 3
REMARK VINA RESULT:      -8.1      3.965      9.687
REMARK  3 active torsions:
REMARK  status: ('A' for Active; 'I' for Inactive)
REMARK    1  A    between atoms: C_2  and  N_3 
REMARK    2  A    between atoms: C_2  and  C_10 
REMARK    3  A    between atoms: C_13  and  C_14 
ROOT
HETATM    1  C   UNL     1      20.407  51.037  48.554  1.00  0.00    -0.028 A 
HETATM    2  C   UNL     1      21.017  50.490  47.413  1.00  0.00     0.010 A 
HETATM    3  C   UNL     1      22.325  49.996  47.471  1.00  0.00     0.014 A 
HETATM    4  C   UNL     1      23.066  50.031  48.663  1.00  0.00    -0.006 A 
HETATM    5  C   UNL     1      22.455  50.601  49.791  1.00  0.00     0.014 A 
HETATM    6  C   UNL     1      21.146  51.092  49.745  1.00  0.00     0.010 A 
ENDROOT
BRANCH   4   7
HETATM    7  C   UNL     1      24.437  49.524  48.741  1.00  0.00     0.082 A 
HETATM    8  N   UNL     1      25.414  50.271  48.162  1.00  0.00    -0.240 NA
HETATM    9  C   UNL     1      26.681  49.816  48.222  1.00  0.00     0.236 A 
HETATM   10  N   UNL     1      27.129  48.696  48.812  1.00  0.00    -0.224 NA
HETATM   11  C   UNL     1      26.134  48.009  49.389  1.00  0.00     0.141 A 
HETATM   12  C   UNL     1      24.786  48.339  49.405  1.00  0.00     0.041 A 
HETATM   13  N   UNL     1      26.299  46.839  50.079  1.00  0.00    -0.350 N 
HETATM   14  C   UNL     1      24.132  47.322  50.160  1.00  0.00     0.034 A 
HETATM   15  C   UNL     1      25.088  46.410  50.559  1.00  0.00     0.091 A 
HETATM   16  H   UNL     1      27.193  46.386  50.209  1.00  0.00     0.166 HD
ENDBRANCH   4   7
BRANCH   1  17
HETATM   17  C   UNL     1      18.970  51.527  48.482  1.00  0.00     0.217 C 
HETATM   18  C   UNL     1      18.542  52.104  49.836  1.00  0.00     0.045 C 
BRANCH  17  19
HETATM   19  N   UNL     1      18.004  50.414  48.028  1.00  0.00    -0.063 N 
HETATM   20  H   UNL     1      18.434  49.987  47.198  1.00  0.00     0.280 HD
HETATM   21  C   UNL     1      17.812  49.325  49.064  1.00  0.00     0.235 C 
HETATM   22  C   UNL     1      16.915  48.224  48.515  1.00  0.00     0.028 C 
HETATM   23  C   UNL     1      15.574  48.766  48.044  1.00  0.00     0.003 C 
HETATM   24  C   UNL     1      15.776  49.883  47.034  1.00  0.00     0.028 C 
HETATM   25  C   UNL     1      16.665  50.988  47.586  1.00  0.00     0.235 C 
ENDBRANCH  17  19
ENDBRANCH   1  17
TORSDOF 3
ENDMDL
MODEL 4
REMARK VINA RESULT:      -7.9      4.724      8.036
REMARK  3 active torsions:
REMARK  status: ('A' for Active; 'I' for Inactive)
REMARK    1  A    between atoms: C_2  and  N_3 
REMARK    2  A    between atoms: C_2  and  C_10 
REMARK    3  A    between atoms: C_13  and  C_14 
ROOT
HETATM    1  C   UNL     1      27.305  42.267  51.023  1.00  0.00    -0.028 A 
HETATM    2  C   UNL     1      27.331  43.670  50.960  1.00  0.00     0.010 A 
HETATM    3  C   UNL     1      27.732  44.427  52.067  1.00  0.00     0.014 A 
HETATM    4  C   UNL     1      28.117  43.813  53.269  1.00  0.00    -0.006 A 
HETATM    5  C   UNL     1      28.064  42.411  53.329  1.00  0.00     0.014 A 
HETATM    6  C   UNL     1      27.672  41.646  52.226  1.00  0.00     0.010 A 
ENDROOT
BRANCH   4   7
HETATM    7  C   UNL     1      28.533  44.588  54.439  1.00  0.00     0.082 A 
HETATM    8  N   UNL     1      27.781  45.670  54.773  1.00  0.00    -0.240 NA
HETATM    9  C   UNL     1      28.153  46.397  55.845  1.00  0.00     0.236 A 
HETATM   10  N   UNL     1      29.190  46.179  56.669  1.00  0.00    -0.224 NA
HETATM   11  C   UNL     1      29.884  45.089  56.314  1.00  0.00     0.141 A 
HETATM   12  C   UNL     1      29.634  44.249  55.238  1.00  0.00     0.041 A 
HETATM   13  N   UNL     1      30.980  44.617  56.984  1.00  0.00    -0.350 N 
HETATM   14  C   UNL     1      30.621  43.222  55.292  1.00  0.00     0.034 A 
HETATM   15  C   UNL     1      31.438  43.476  56.375  1.00  0.00     0.091 A 
HETATM   16  H   UNL     1      31.367  45.056  57.809  1.00  0.00     0.166 HD
ENDBRANCH   4   7
BRANCH   1  17
HETATM   17  C   UNL     1      26.911  41.462  49.796  1.00  0.00     0.217 C 
HETATM   18  C   UNL     1      25.386  41.327  49.721  1.00  0.00     0.045 C 
BRANCH  17  19
HETATM   19  N   UNL     1      27.588  40.077  49.775  1.00  0.00    -0.063 N 
HETATM   20  H   UNL     1      27.963  39.930  50.720  1.00  0.00     0.280 HD
HETATM   21  C   UNL     1      26.628  38.943  49.474  1.00  0.00     0.235 C 
HETATM   22  C   UNL     1      27.350  37.604  49.552  1.00  0.00     0.028 C 
HETATM   23  C   UNL     1      28.554  37.553  48.625  1.00  0.00     0.003 C 
HETATM   24  C   UNL     1      29.493  38.715  48.908  1.00  0.00     0.028 C 
HETATM   25  C   UNL     1      28.774  40.053  48.821  1.00  0.00     0.235 C 
ENDBRANCH  17  19
ENDBRANCH   1  17
TORSDOF 3
ENDMDL
MODEL 5
REMARK VINA RESULT:      -7.8      5.012      8.254
REMARK  3 active torsions:
REMARK  status: ('A' for Active; 'I' for Inactive)
REMARK    1  A    between atoms: C_2  and  N_3 
REMARK    2  A    between atoms: C_2  and  C_10 
REMARK    3  A    between atoms: C_13  and  C_14 
ROOT
HETATM    1  C   UNL     1      27.810  41.175  51.378  1.00  0.00    -0.028 A 
HETATM    2  C   UNL     1      27.654  42.520  51.008  1.00  0.00     0.010 A 
HETATM    3  C   UNL     1      27.879  43.546  51.934  1.00  0.00     0.014 A 
HETATM    4  C   UNL     1      28.266  43.265  53.253  1.00  0.00    -0.006 A 
HETATM    5  C   UNL     1      28.397  41.916  53.620  1.00  0.00     0.014 A 
HETATM    6  C   UNL     1      28.180  40.884  52.700  1.00  0.00     0.010 A 
ENDROOT
BRANCH   4   7
HETATM    7  C   UNL     1      28.500  44.324  54.237  1.00  0.00     0.082 A 
HETATM    8  N   UNL     1      27.619  45.357  54.266  1.00  0.00    -0.240 NA
HETATM    9  C   UNL     1      27.823  46.343  55.162  1.00  0.00     0.236 A 
HETATM   10  N   UNL     1      28.802  46.435  56.077  1.00  0.00    -0.224 NA
HETATM   11  C   UNL     1      29.628  45.382  56.026  1.00  0.00     0.141 A 
HETATM   12  C   UNL     1      29.557  44.301  55.159  1.00  0.00     0.041 A 
HETATM   13  N   UNL     1      30.704  45.202  56.852  1.00  0.00    -0.350 N 
HETATM   14  C   UNL     1      30.633  43.433  55.509  1.00  0.00     0.034 A 
HETATM   15  C   UNL     1      31.323  44.015  56.552  1.00  0.00     0.091 A 
HETATM   16  H   UNL     1      30.972  45.855  57.576  1.00  0.00     0.166 HD
ENDBRANCH   4   7
BRANCH   1  17
HETATM   17  C   UNL     1      27.605  40.078  50.347  1.00  0.00     0.217 C 
HETATM   18  C   UNL     1      28.815  39.136  50.331  1.00  0.00     0.045 C 
BRANCH  17  19
HETATM   19  N   UNL     1      27.337  40.652  48.941  1.00  0.00    -0.063 N 
HETATM   20  H   UNL     1      27.325  41.673  49.050  1.00  0.00     0.280 HD
HETATM   21  C   UNL     1      28.414  40.304  47.933  1.00  0.00     0.235 C 
HETATM   22  C   UNL     1      28.123  40.972  46.596  1.00  0.00     0.028 C 
HETATM   23  C   UNL     1      26.747  40.605  46.065  1.00  0.00     0.003 C 
HETATM   24  C   UNL     1      25.676  40.922  47.096  1.00  0.00     0.028 C 
HETATM   25  C   UNL     1      25.961  40.247  48.430  1.00  0.00     0.235 C 
ENDBRANCH  17  19
ENDBRANCH   1  17
TORSDOF 3
ENDMDL
MODEL 6
REMARK VINA RESULT:      -7.8      4.518      8.231
REMARK  3 active torsions:
REMARK  status: ('A' for Active; 'I' for Inactive)
REMARK    1  A    between atoms: C_2  and  N_3 
REMARK    2  A    between atoms: C_2  and  C_10 
REMARK    3  A    between atoms: C_13  and  C_14 
ROOT
HETATM    1  C   UNL     1      27.127  43.858  52.030  1.00  0.00    -0.028 A 
HETATM    2  C   UNL     1      28.411  43.389  52.352  1.00  0.00     0.010 A 
HETATM    3  C   UNL     1      29.029  43.762  53.551  1.00  0.00     0.014 A 
HETATM    4  C   UNL     1      28.389  44.613  54.466  1.00  0.00    -0.006 A 
HETATM    5  C   UNL     1      27.116  45.096  54.124  1.00  0.00     0.014 A 
HETATM    6  C   UNL     1      26.488  44.723  52.931  1.00  0.00     0.010 A 
ENDROOT
BRANCH   4   7
HETATM    7  C   UNL     1      29.021  45.019  55.722  1.00  0.00     0.082 A 
HETATM    8  N   UNL     1      28.447  46.039  56.411  1.00  0.00    -0.240 NA
HETATM    9  C   UNL     1      29.019  46.429  57.567  1.00  0.00     0.236 A 
HETATM   10  N   UNL     1      30.106  45.914  58.163  1.00  0.00    -0.224 NA
HETATM   11  C   UNL     1      30.621  44.896  57.460  1.00  0.00     0.141 A 
HETATM   12  C   UNL     1      30.155  44.389  56.256  1.00  0.00     0.041 A 
HETATM   13  N   UNL     1      31.719  44.172  57.837  1.00  0.00    -0.350 N 
HETATM   14  C   UNL     1      31.011  43.299  55.920  1.00  0.00     0.034 A 
HETATM   15  C   UNL     1      31.966  43.192  56.911  1.00  0.00     0.091 A 
HETATM   16  H   UNL     1      32.244  44.347  58.684  1.00  0.00     0.166 HD
ENDBRANCH   4   7
BRANCH   1  17
HETATM   17  C   UNL     1      26.456  43.405  50.745  1.00  0.00     0.217 C 
HETATM   18  C   UNL     1      24.933  43.407  50.917  1.00  0.00     0.045 C 
BRANCH  17  19
HETATM   19  N   UNL     1      26.957  42.020  50.291  1.00  0.00    -0.063 N 
HETATM   20  H   UNL     1      27.852  41.870  50.773  1.00  0.00     0.280 HD
HETATM   21  C   UNL     1      26.026  40.887  50.675  1.00  0.00     0.235 C 
HETATM   22  C   UNL     1      26.626  39.548  50.269  1.00  0.00     0.028 C 
HETATM   23  C   UNL     1      26.952  39.499  48.784  1.00  0.00     0.003 C 
HETATM   24  C   UNL     1      27.855  40.659  48.399  1.00  0.00     0.028 C 
HETATM   25  C   UNL     1      27.252  41.998  48.797  1.00  0.00     0.235 C 
ENDBRANCH  17  19
ENDBRANCH   1  17
TORSDOF 3
ENDMDL
MODEL 7
REMARK VINA RESULT:      -7.8      3.359      8.469
REMARK  3 active torsions:
REMARK  status: ('A' for Active; 'I' for Inactive)
REMARK    1  A    between atoms: C_2  and  N_3 
REMARK    2  A    between atoms: C_2  and  C_10 
REMARK    3  A    between atoms: C_13  and  C_14 
ROOT
HETATM    1  C   UNL     1      26.943  43.477  52.318  1.00  0.00    -0.028 A 
HETATM    2  C   UNL     1      28.335  43.339  52.443  1.00  0.00     0.010 A 
HETATM    3  C   UNL     1      28.999  43.808  53.582  1.00  0.00     0.014 A 
HETATM    4  C   UNL     1      28.301  44.428  54.630  1.00  0.00    -0.006 A 
HETATM    5  C   UNL     1      26.913  44.582  54.485  1.00  0.00     0.014 A 
HETATM    6  C   UNL     1      26.239  44.111  53.353  1.00  0.00     0.010 A 
ENDROOT
BRANCH   4   7
HETATM    7  C   UNL     1      28.979  44.930  55.827  1.00  0.00     0.082 A 
HETATM    8  N   UNL     1      28.413  45.984  56.471  1.00  0.00    -0.240 NA
HETATM    9  C   UNL     1      29.028  46.461  57.571  1.00  0.00     0.236 A 
HETATM   10  N   UNL     1      30.151  46.009  58.150  1.00  0.00    -0.224 NA
HETATM   11  C   UNL     1      30.656  44.955  57.494  1.00  0.00     0.141 A 
HETATM   12  C   UNL     1      30.148  44.359  56.349  1.00  0.00     0.041 A 
HETATM   13  N   UNL     1      31.785  44.278  57.868  1.00  0.00    -0.350 N 
HETATM   14  C   UNL     1      31.012  43.265  56.048  1.00  0.00     0.034 A 
HETATM   15  C   UNL     1      32.012  43.242  56.999  1.00  0.00     0.091 A 
HETATM   16  H   UNL     1      32.342  44.520  58.676  1.00  0.00     0.166 HD
ENDBRANCH   4   7
BRANCH   1  17
HETATM   17  C   UNL     1      26.234  42.921  51.094  1.00  0.00     0.217 C 
HETATM   18  C   UNL     1      27.207  42.843  49.912  1.00  0.00     0.045 C 
BRANCH  17  19
HETATM   19  N   UNL     1      24.986  43.747  50.726  1.00  0.00    -0.063 N 
HETATM   20  H   UNL     1      24.652  44.162  51.605  1.00  0.00     0.280 HD
HETATM   21  C   UNL     1      25.275  44.877  49.758  1.00  0.00     0.235 C 
HETATM   22  C   UNL     1      24.016  45.695  49.509  1.00  0.00     0.028 C 
HETATM   23  C   UNL     1      22.869  44.834  49.006  1.00  0.00     0.003 C 
HETATM   24  C   UNL     1      22.609  43.681  49.963  1.00  0.00     0.028 C 
HETATM   25  C   UNL     1      23.865  42.857  50.205  1.00  0.00     0.235 C 
ENDBRANCH  17  19
ENDBRANCH   1  17
TORSDOF 3
ENDMDL
MODEL 8
REMARK VINA RESULT:      -7.8      3.603      5.099
REMARK  3 active torsions:
REMARK  status: ('A' for Active; 'I' for Inactive)
REMARK    1  A    between atoms: C_2  and  N_3 
REMARK    2  A    between atoms: C_2  and  C_10 
REMARK    3  A    between atoms: C_13  and  C_14 
ROOT
HETATM    1  C   UNL     1      26.810  45.488  54.215  1.00  0.00    -0.028 A 
HETATM    2  C   UNL     1      26.714  46.091  52.950  1.00  0.00     0.010 A 
HETATM    3  C   UNL     1      25.942  45.508  51.939  1.00  0.00     0.014 A 
HETATM    4  C   UNL     1      25.245  44.309  52.153  1.00  0.00    -0.006 A 
HETATM    5  C   UNL     1      25.367  43.702  53.413  1.00  0.00     0.014 A 
HETATM    6  C   UNL     1      26.131  44.280  54.433  1.00  0.00     0.010 A 
ENDROOT
BRANCH   4   7
HETATM    7  C   UNL     1      24.438  43.681  51.105  1.00  0.00     0.082 A 
HETATM    8  N   UNL     1      23.262  44.278  50.778  1.00  0.00    -0.240 NA
HETATM    9  C   UNL     1      22.505  43.710  49.819  1.00  0.00     0.236 A 
HETATM   10  N   UNL     1      22.774  42.607  49.102  1.00  0.00    -0.224 NA
HETATM   11  C   UNL     1      23.953  42.070  49.443  1.00  0.00     0.141 A 
HETATM   12  C   UNL     1      24.835  42.529  50.411  1.00  0.00     0.041 A 
HETATM   13  N   UNL     1      24.490  40.952  48.865  1.00  0.00    -0.350 N 
HETATM   14  C   UNL     1      25.955  41.647  50.385  1.00  0.00     0.034 A 
HETATM   15  C   UNL     1      25.713  40.685  49.426  1.00  0.00     0.091 A 
HETATM   16  H   UNL     1      24.038  40.428  48.129  1.00  0.00     0.166 HD
ENDBRANCH   4   7
BRANCH   1  17
HETATM   17  C   UNL     1      27.616  46.160  55.314  1.00  0.00     0.217 C 
HETATM   18  C   UNL     1      28.257  47.449  54.785  1.00  0.00     0.045 C 
BRANCH  17  19
HETATM   19  N   UNL     1      28.683  45.217  55.905  1.00  0.00    -0.063 N 
HETATM   20  H   UNL     1      28.172  44.535  56.478  1.00  0.00     0.280 HD
HETATM   21  C   UNL     1      29.459  44.452  54.852  1.00  0.00     0.235 C 
HETATM   22  C   UNL     1      30.432  43.484  55.512  1.00  0.00     0.028 C 
HETATM   23  C   UNL     1      31.376  44.193  56.470  1.00  0.00     0.003 C 
HETATM   24  C   UNL     1      30.591  44.989  57.500  1.00  0.00     0.028 C 
HETATM   25  C   UNL     1      29.625  45.963  56.841  1.00  0.00     0.235 C 
ENDBRANCH  17  19
ENDBRANCH   1  17
TORSDOF 3
ENDMDL
MODEL 9
REMARK VINA RESULT:      -7.6      1.857      2.385
REMARK  3 active torsions:
REMARK  status: ('A' for Active; 'I' for Inactive)
REMARK    1  A    between atoms: C_2  and  N_3 
REMARK    2  A    between atoms: C_2  and  C_10 
REMARK    3  A    between atoms: C_13  and  C_14 
ROOT
HETATM    1  C   UNL     1      27.222  44.071  52.296  1.00  0.00    -0.028 A 
HETATM    2  C   UNL     1      27.550  44.542  51.014  1.00  0.00     0.010 A 
HETATM    3  C   UNL     1      26.645  45.326  50.288  1.00  0.00     0.014 A 
HETATM    4  C   UNL     1      25.388  45.663  50.814  1.00  0.00    -0.006 A 
HETATM    5  C   UNL     1      25.061  45.168  52.086  1.00  0.00     0.014 A 
HETATM    6  C   UNL     1      25.961  44.389  52.822  1.00  0.00     0.010 A 
ENDROOT
BRANCH   4   7
HETATM    7  C   UNL     1      24.426  46.476  50.068  1.00  0.00     0.082 A 
HETATM    8  N   UNL     1      24.458  47.820  50.264  1.00  0.00    -0.240 NA
HETATM    9  C   UNL     1      23.575  48.583  49.588  1.00  0.00     0.236 A 
HETATM   10  N   UNL     1      22.651  48.183  48.701  1.00  0.00    -0.224 NA
HETATM   11  C   UNL     1      22.676  46.855  48.523  1.00  0.00     0.141 A 
HETATM   12  C   UNL     1      23.512  45.941  49.149  1.00  0.00     0.041 A 
HETATM   13  N   UNL     1      21.858  46.173  47.664  1.00  0.00    -0.350 N 
HETATM   14  C   UNL     1      23.181  44.662  48.614  1.00  0.00     0.034 A 
HETATM   15  C   UNL     1      22.157  44.835  47.706  1.00  0.00     0.091 A 
HETATM   16  H   UNL     1      21.154  46.616  47.089  1.00  0.00     0.166 HD
ENDBRANCH   4   7
BRANCH   1  17
HETATM   17  C   UNL     1      28.236  43.261  53.086  1.00  0.00     0.217 C 
HETATM   18  C   UNL     1      27.522  42.184  53.911  1.00  0.00     0.045 C 
BRANCH  17  19
HETATM   19  N   UNL     1      29.112  44.154  53.987  1.00  0.00    -0.063 N 
HETATM   20  H   UNL     1      29.721  44.686  53.352  1.00  0.00     0.280 HD
HETATM   21  C   UNL     1      28.313  45.148  54.807  1.00  0.00     0.235 C 
HETATM   22  C   UNL     1      29.248  46.047  55.605  1.00  0.00     0.028 C 
HETATM   23  C   UNL     1      30.187  45.245  56.492  1.00  0.00     0.003 C 
HETATM   24  C   UNL     1      30.957  44.225  55.668  1.00  0.00     0.028 C 
HETATM   25  C   UNL     1      30.023  43.321  54.877  1.00  0.00     0.235 C 
ENDBRANCH  17  19
ENDBRANCH   1  17
TORSDOF 3
ENDMDL
MODEL 10
REMARK VINA RESULT:      -7.6      2.085      2.811
REMARK  3 active torsions:
REMARK  status: ('A' for Active; 'I' for Inactive)
REMARK    1  A    between atoms: C_2  and  N_3 
REMARK    2  A    between atoms: C_2  and  C_10 
REMARK    3  A    between atoms: C_13  and  C_14 
ROOT
HETATM    1  C   UNL     1      26.420  46.050  53.577  1.00  0.00    -0.028 A 
HETATM    2  C   UNL     1      26.530  47.056  52.603  1.00  0.00     0.010 A 
HETATM    3  C   UNL     1      25.775  46.996  51.426  1.00  0.00     0.014 A 
HETATM    4  C   UNL     1      24.888  45.936  51.182  1.00  0.00    -0.006 A 
HETATM    5  C   UNL     1      24.803  44.924  52.151  1.00  0.00     0.014 A 
HETATM    6  C   UNL     1      25.549  44.977  53.333  1.00  0.00     0.010 A 
ENDROOT
BRANCH   4   7
HETATM    7  C   UNL     1      24.094  45.854  49.955  1.00  0.00     0.082 A 
HETATM    8  N   UNL     1      23.917  44.624  49.405  1.00  0.00    -0.240 NA
HETATM    9  C   UNL     1      23.193  44.532  48.273  1.00  0.00     0.236 A 
HETATM   10  N   UNL     1      22.584  45.521  47.601  1.00  0.00    -0.224 NA
HETATM   11  C   UNL     1      22.766  46.708  48.195  1.00  0.00     0.141 A 
HETATM   12  C   UNL     1      23.489  46.965  49.350  1.00  0.00     0.041 A 
HETATM   13  N   UNL     1      22.244  47.889  47.741  1.00  0.00    -0.350 N 
HETATM   14  C   UNL     1      23.368  48.364  49.598  1.00  0.00     0.034 A 
HETATM   15  C   UNL     1      22.599  48.907  48.589  1.00  0.00     0.091 A 
HETATM   16  H   UNL     1      21.676  47.969  46.909  1.00  0.00     0.166 HD
ENDBRANCH   4   7
BRANCH   1  17
HETATM   17  C   UNL     1      27.215  46.156  54.868  1.00  0.00     0.217 C 
HETATM   18  C   UNL     1      27.440  47.629  55.229  1.00  0.00     0.045 C 
BRANCH  17  19
HETATM   19  N   UNL     1      28.555  45.399  54.782  1.00  0.00    -0.063 N 
HETATM   20  H   UNL     1      29.084  45.843  54.022  1.00  0.00     0.280 HD
HETATM   21  C   UNL     1      29.384  45.499  56.047  1.00  0.00     0.235 C 
HETATM   22  C   UNL     1      30.724  44.800  55.858  1.00  0.00     0.028 C 
HETATM   23  C   UNL     1      30.553  43.349  55.438  1.00  0.00     0.003 C 
HETATM   24  C   UNL     1      29.688  43.254  54.191  1.00  0.00     0.028 C 
HETATM   25  C   UNL     1      28.346  43.944  54.383  1.00  0.00     0.235 C 
ENDBRANCH  17  19
ENDBRANCH   1  17
TORSDOF 3
ENDMDL
