MODEL 1
REMARK VINA RESULT:      -9.7      0.000      0.000
REMARK  5 active torsions:
REMARK  status: ('A' for Active; 'I' for Inactive)
REMARK    1  A    between atoms: O_2  and  C_3 
REMARK    2  A    between atoms: C_4  and  O_5 
REMARK    3  A    between atoms: C_10  and  C_11 
REMARK    4  A    between atoms: C_13  and  O_14 
REMARK    5  A    between atoms: O_14  and  C_15 
ROOT
HETATM    1  C   UNL     1      29.746  44.974  55.859  1.00  0.00     0.102 A 
HETATM    2  C   UNL     1      30.757  44.021  55.651  1.00  0.00     0.103 A 
HETATM    3  C   UNL     1      30.546  42.963  54.761  1.00  0.00     0.069 A 
HETATM    4  C   UNL     1      29.361  42.898  54.024  1.00  0.00     0.044 A 
HETATM    5  C   UNL     1      28.371  43.873  54.165  1.00  0.00    -0.020 A 
HETATM    6  C   UNL     1      27.074  43.732  53.378  1.00  0.00     0.063 C 
HETATM    7  C   UNL     1      27.278  42.935  52.088  1.00  0.00     0.117 C 
HETATM    8  C   UNL     1      28.100  41.692  52.311  1.00  0.00     0.223 C 
HETATM    9  O   UNL     1      27.921  40.660  51.670  1.00  0.00    -0.273 OA
HETATM   10  N   UNL     1      29.152  41.808  53.175  1.00  0.00    -0.327 N 
HETATM   11  C   UNL     1      28.561  44.890  55.120  1.00  0.00     0.049 A 
HETATM   12  H   UNL     1      29.783  41.016  53.200  1.00  0.00     0.169 HD
ENDROOT
BRANCH   6  13
HETATM   13  C   UNL     1      26.396  45.058  53.045  1.00  0.00    -0.046 A 
HETATM   14  C   UNL     1      25.898  45.314  51.754  1.00  0.00     0.045 A 
HETATM   15  C   UNL     1      25.364  46.566  51.437  1.00  0.00     0.076 A 
HETATM   16  C   UNL     1      25.237  47.543  52.421  1.00  0.00     0.037 A 
HETATM   17  C   UNL     1      25.694  47.289  53.714  1.00  0.00     0.003 A 
HETATM   18  C   UNL     1      26.279  46.059  54.022  1.00  0.00     0.008 A 
BRANCH  15  19
HETATM   19  O   UNL     1      24.898  46.872  50.180  1.00  0.00    -0.311 OA
BRANCH  19  20
HETATM   20  C   UNL     1      25.409  47.982  49.540  1.00  0.00     0.076 A 
HETATM   21  C   UNL     1      24.635  48.926  48.860  1.00  0.00     0.037 A 
HETATM   22  C   UNL     1      25.247  50.012  48.230  1.00  0.00     0.003 A 
HETATM   23  C   UNL     1      26.637  50.138  48.252  1.00  0.00     0.000 A 
HETATM   24  C   UNL     1      27.413  49.178  48.900  1.00  0.00     0.003 A 
HETATM   25  C   UNL     1      26.799  48.101  49.541  1.00  0.00     0.037 A 
ENDBRANCH  19  20
ENDBRANCH  15  19
ENDBRANCH   6  13
BRANCH   1  26
HETATM   26  O   UNL     1      30.017  45.958  56.777  1.00  0.00    -0.353 OA
HETATM   27  C   UNL     1      29.208  46.000  57.944  1.00  0.00     0.210 C 
ENDBRANCH   1  26
BRANCH   2  28
HETATM   28  O   UNL     1      31.899  44.154  56.404  1.00  0.00    -0.353 OA
HETATM   29  C   UNL     1      32.085  43.182  57.425  1.00  0.00     0.210 C 
ENDBRANCH   2  28
TORSDOF 5
ENDMDL
MODEL 2
REMARK VINA RESULT:      -9.6      3.108      9.012
REMARK  5 active torsions:
REMARK  status: ('A' for Active; 'I' for Inactive)
REMARK    1  A    between atoms: O_2  and  C_3 
REMARK    2  A    between atoms: C_4  and  O_5 
REMARK    3  A    between atoms: C_10  and  C_11 
REMARK    4  A    between atoms: C_13  and  O_14 
REMARK    5  A    between atoms: O_14  and  C_15 
ROOT
HETATM    1  C   UNL     1      22.305  48.441  48.986  1.00  0.00     0.102 A 
HETATM    2  C   UNL     1      22.543  49.547  48.152  1.00  0.00     0.103 A 
HETATM    3  C   UNL     1      23.842  50.043  48.007  1.00  0.00     0.069 A 
HETATM    4  C   UNL     1      24.912  49.394  48.630  1.00  0.00     0.044 A 
HETATM    5  C   UNL     1      24.705  48.252  49.408  1.00  0.00    -0.020 A 
HETATM    6  C   UNL     1      25.894  47.608  50.110  1.00  0.00     0.063 C 
HETATM    7  C   UNL     1      27.205  47.885  49.371  1.00  0.00     0.117 C 
HETATM    8  C   UNL     1      27.333  49.329  48.961  1.00  0.00     0.223 C 
HETATM    9  O   UNL     1      28.415  49.908  48.914  1.00  0.00    -0.273 OA
HETATM   10  N   UNL     1      26.194  49.934  48.509  1.00  0.00    -0.327 N 
HETATM   11  C   UNL     1      23.385  47.807  49.610  1.00  0.00     0.049 A 
HETATM   12  H   UNL     1      26.323  50.850  48.096  1.00  0.00     0.169 HD
ENDROOT
BRANCH   6  13
HETATM   13  C   UNL     1      25.752  46.105  50.331  1.00  0.00    -0.046 A 
HETATM   14  C   UNL     1      26.050  45.523  51.577  1.00  0.00     0.045 A 
HETATM   15  C   UNL     1      26.006  44.136  51.739  1.00  0.00     0.076 A 
HETATM   16  C   UNL     1      25.581  43.322  50.693  1.00  0.00     0.037 A 
HETATM   17  C   UNL     1      25.249  43.889  49.463  1.00  0.00     0.003 A 
HETATM   18  C   UNL     1      25.344  45.270  49.279  1.00  0.00     0.008 A 
BRANCH  15  19
HETATM   19  O   UNL     1      26.321  43.522  52.929  1.00  0.00    -0.311 OA
BRANCH  19  20
HETATM   20  C   UNL     1      27.651  43.387  53.268  1.00  0.00     0.076 A 
HETATM   21  C   UNL     1      28.560  42.570  52.589  1.00  0.00     0.037 A 
HETATM   22  C   UNL     1      29.886  42.489  53.018  1.00  0.00     0.003 A 
HETATM   23  C   UNL     1      30.300  43.200  54.145  1.00  0.00     0.000 A 
HETATM   24  C   UNL     1      29.387  43.988  54.845  1.00  0.00     0.003 A 
HETATM   25  C   UNL     1      28.064  44.080  54.407  1.00  0.00     0.037 A 
ENDBRANCH  19  20
ENDBRANCH  15  19
ENDBRANCH   6  13
BRANCH   1  26
HETATM   26  O   UNL     1      20.998  48.039  49.105  1.00  0.00    -0.353 OA
HETATM   27  C   UNL     1      20.612  46.866  48.401  1.00  0.00     0.210 C 
ENDBRANCH   1  26
BRANCH   2  28
HETATM   28  O   UNL     1      21.445  50.128  47.565  1.00  0.00    -0.353 OA
HETATM   29  C   UNL     1      20.877  51.227  48.265  1.00  0.00     0.210 C 
ENDBRANCH   2  28
TORSDOF 5
ENDMDL
MODEL 3
REMARK VINA RESULT:      -9.5      2.588      4.611
REMARK  5 active torsions:
REMARK  status: ('A' for Active; 'I' for Inactive)
REMARK    1  A    between atoms: O_2  and  C_3 
REMARK    2  A    between atoms: C_4  and  O_5 
REMARK    3  A    between atoms: C_10  and  C_11 
REMARK    4  A    between atoms: C_13  and  O_14 
REMARK    5  A    between atoms: O_14  and  C_15 
ROOT
HETATM    1  C   UNL     1      26.876  46.914  53.868  1.00  0.00     0.102 A 
HETATM    2  C   UNL     1      27.076  45.577  54.255  1.00  0.00     0.103 A 
HETATM    3  C   UNL     1      26.587  44.540  53.456  1.00  0.00     0.069 A 
HETATM    4  C   UNL     1      25.968  44.829  52.237  1.00  0.00     0.044 A 
HETATM    5  C   UNL     1      25.821  46.148  51.800  1.00  0.00    -0.020 A 
HETATM    6  C   UNL     1      25.093  46.418  50.489  1.00  0.00     0.063 C 
HETATM    7  C   UNL     1      25.198  45.231  49.529  1.00  0.00     0.117 C 
HETATM    8  C   UNL     1      24.935  43.918  50.217  1.00  0.00     0.223 C 
HETATM    9  O   UNL     1      24.398  42.971  49.648  1.00  0.00    -0.273 OA
HETATM   10  N   UNL     1      25.447  43.780  51.477  1.00  0.00    -0.327 N 
HETATM   11  C   UNL     1      26.247  47.187  52.648  1.00  0.00     0.049 A 
HETATM   12  H   UNL     1      25.395  42.846  51.867  1.00  0.00     0.169 HD
ENDROOT
BRANCH   6  13
HETATM   13  C   UNL     1      25.548  47.685  49.770  1.00  0.00    -0.046 A 
HETATM   14  C   UNL     1      24.618  48.548  49.162  1.00  0.00     0.045 A 
HETATM   15  C   UNL     1      25.053  49.654  48.427  1.00  0.00     0.076 A 
HETATM   16  C   UNL     1      26.410  49.963  48.365  1.00  0.00     0.037 A 
HETATM   17  C   UNL     1      27.340  49.135  48.992  1.00  0.00     0.003 A 
HETATM   18  C   UNL     1      26.914  47.997  49.682  1.00  0.00     0.008 A 
BRANCH  15  19
HETATM   19  O   UNL     1      24.182  50.504  47.789  1.00  0.00    -0.311 OA
BRANCH  19  20
HETATM   20  C   UNL     1      22.898  50.622  48.279  1.00  0.00     0.076 A 
HETATM   21  C   UNL     1      22.586  50.975  49.595  1.00  0.00     0.037 A 
HETATM   22  C   UNL     1      21.252  51.055  50.001  1.00  0.00     0.003 A 
HETATM   23  C   UNL     1      20.229  50.751  49.102  1.00  0.00     0.000 A 
HETATM   24  C   UNL     1      20.540  50.365  47.799  1.00  0.00     0.003 A 
HETATM   25  C   UNL     1      21.873  50.299  47.389  1.00  0.00     0.037 A 
ENDBRANCH  19  20
ENDBRANCH  15  19
ENDBRANCH   6  13
BRANCH   1  26
HETATM   26  O   UNL     1      27.353  47.873  54.726  1.00  0.00    -0.353 OA
HETATM   27  C   UNL     1      26.402  48.550  55.537  1.00  0.00     0.210 C 
ENDBRANCH   1  26
BRANCH   2  28
HETATM   28  O   UNL     1      27.700  45.369  55.461  1.00  0.00    -0.353 OA
HETATM   29  C   UNL     1      29.067  44.984  55.393  1.00  0.00     0.210 C 
ENDBRANCH   2  28
TORSDOF 5
ENDMDL
MODEL 4
REMARK VINA RESULT:      -9.5      2.186      7.369
REMARK  5 active torsions:
REMARK  status: ('A' for Active; 'I' for Inactive)
REMARK    1  A    between atoms: O_2  and  C_3 
REMARK    2  A    between atoms: C_4  and  O_5 
REMARK    3  A    between atoms: C_10  and  C_11 
REMARK    4  A    between atoms: C_13  and  O_14 
REMARK    5  A    between atoms: O_14  and  C_15 
ROOT
HETATM    1  C   UNL     1      25.972  46.494  51.402  1.00  0.00     0.102 A 
HETATM    2  C   UNL     1      24.940  46.557  50.451  1.00  0.00     0.103 A 
HETATM    3  C   UNL     1      24.789  45.527  49.517  1.00  0.00     0.069 A 
HETATM    4  C   UNL     1      25.614  44.401  49.580  1.00  0.00     0.044 A 
HETATM    5  C   UNL     1      26.602  44.286  50.562  1.00  0.00    -0.020 A 
HETATM    6  C   UNL     1      27.512  43.065  50.558  1.00  0.00     0.063 C 
HETATM    7  C   UNL     1      26.831  41.853  49.919  1.00  0.00     0.117 C 
HETATM    8  C   UNL     1      26.130  42.207  48.634  1.00  0.00     0.223 C 
HETATM    9  O   UNL     1      26.041  41.421  47.694  1.00  0.00    -0.273 OA
HETATM   10  N   UNL     1      25.475  43.406  48.609  1.00  0.00    -0.327 N 
HETATM   11  C   UNL     1      26.796  45.364  51.447  1.00  0.00     0.049 A 
HETATM   12  H   UNL     1      24.886  43.563  47.801  1.00  0.00     0.169 HD
ENDROOT
BRANCH   6  13
HETATM   13  C   UNL     1      28.040  42.674  51.936  1.00  0.00    -0.046 A 
HETATM   14  C   UNL     1      29.124  43.355  52.519  1.00  0.00     0.045 A 
HETATM   15  C   UNL     1      29.657  42.927  53.737  1.00  0.00     0.076 A 
HETATM   16  C   UNL     1      29.061  41.876  54.431  1.00  0.00     0.037 A 
HETATM   17  C   UNL     1      27.964  41.215  53.881  1.00  0.00     0.003 A 
HETATM   18  C   UNL     1      27.462  41.603  52.637  1.00  0.00     0.008 A 
BRANCH  15  19
HETATM   19  O   UNL     1      30.736  43.541  54.327  1.00  0.00    -0.311 OA
BRANCH  19  20
HETATM   20  C   UNL     1      30.555  44.168  55.542  1.00  0.00     0.076 A 
HETATM   21  C   UNL     1      29.678  45.235  55.757  1.00  0.00     0.037 A 
HETATM   22  C   UNL     1      29.575  45.812  57.024  1.00  0.00     0.003 A 
HETATM   23  C   UNL     1      30.370  45.345  58.071  1.00  0.00     0.000 A 
HETATM   24  C   UNL     1      31.271  44.304  57.850  1.00  0.00     0.003 A 
HETATM   25  C   UNL     1      31.364  43.717  56.587  1.00  0.00     0.037 A 
ENDBRANCH  19  20
ENDBRANCH  15  19
ENDBRANCH   6  13
BRANCH   1  26
HETATM   26  O   UNL     1      26.076  47.562  52.258  1.00  0.00    -0.353 OA
HETATM   27  C   UNL     1      26.190  47.275  53.645  1.00  0.00     0.210 C 
ENDBRANCH   1  26
BRANCH   2  28
HETATM   28  O   UNL     1      24.162  47.689  50.455  1.00  0.00    -0.353 OA
HETATM   29  C   UNL     1      24.200  48.472  49.269  1.00  0.00     0.210 C 
ENDBRANCH   2  28
TORSDOF 5
ENDMDL
MODEL 5
REMARK VINA RESULT:      -9.4      2.548      5.296
REMARK  5 active torsions:
REMARK  status: ('A' for Active; 'I' for Inactive)
REMARK    1  A    between atoms: O_2  and  C_3 
REMARK    2  A    between atoms: C_4  and  O_5 
REMARK    3  A    between atoms: C_10  and  C_11 
REMARK    4  A    between atoms: C_13  and  O_14 
REMARK    5  A    between atoms: O_14  and  C_15 
ROOT
HETATM    1  C   UNL     1      26.620  46.247  54.122  1.00  0.00     0.102 A 
HETATM    2  C   UNL     1      27.336  47.164  54.911  1.00  0.00     0.103 A 
HETATM    3  C   UNL     1      28.505  46.758  55.562  1.00  0.00     0.069 A 
HETATM    4  C   UNL     1      29.001  45.467  55.368  1.00  0.00     0.044 A 
HETATM    5  C   UNL     1      28.341  44.561  54.533  1.00  0.00    -0.020 A 
HETATM    6  C   UNL     1      28.890  43.147  54.392  1.00  0.00     0.063 C 
HETATM    7  C   UNL     1      30.398  43.097  54.645  1.00  0.00     0.117 C 
HETATM    8  C   UNL     1      30.796  43.884  55.867  1.00  0.00     0.223 C 
HETATM    9  O   UNL     1      31.734  43.553  56.588  1.00  0.00    -0.273 OA
HETATM   10  N   UNL     1      30.144  45.069  56.065  1.00  0.00    -0.327 N 
HETATM   11  C   UNL     1      27.125  44.954  53.944  1.00  0.00     0.049 A 
HETATM   12  H   UNL     1      30.522  45.656  56.798  1.00  0.00     0.169 HD
ENDROOT
BRANCH   6  13
HETATM   13  C   UNL     1      28.587  42.488  53.049  1.00  0.00    -0.046 A 
HETATM   14  C   UNL     1      28.038  43.227  51.985  1.00  0.00     0.045 A 
HETATM   15  C   UNL     1      27.678  42.592  50.794  1.00  0.00     0.076 A 
HETATM   16  C   UNL     1      27.943  41.237  50.615  1.00  0.00     0.037 A 
HETATM   17  C   UNL     1      28.519  40.500  51.649  1.00  0.00     0.003 A 
HETATM   18  C   UNL     1      28.830  41.118  52.863  1.00  0.00     0.008 A 
BRANCH  15  19
HETATM   19  O   UNL     1      27.108  43.268  49.741  1.00  0.00    -0.311 OA
BRANCH  19  20
HETATM   20  C   UNL     1      25.752  43.521  49.778  1.00  0.00     0.076 A 
HETATM   21  C   UNL     1      24.795  42.623  50.258  1.00  0.00     0.037 A 
HETATM   22  C   UNL     1      23.441  42.968  50.241  1.00  0.00     0.003 A 
HETATM   23  C   UNL     1      23.040  44.196  49.715  1.00  0.00     0.000 A 
HETATM   24  C   UNL     1      23.990  45.079  49.204  1.00  0.00     0.003 A 
HETATM   25  C   UNL     1      25.344  44.741  49.234  1.00  0.00     0.037 A 
ENDBRANCH  19  20
ENDBRANCH  15  19
ENDBRANCH   6  13
BRANCH   1  26
HETATM   26  O   UNL     1      25.463  46.712  53.547  1.00  0.00    -0.353 OA
HETATM   27  C   UNL     1      25.469  46.908  52.140  1.00  0.00     0.210 C 
ENDBRANCH   1  26
BRANCH   2  28
HETATM   28  O   UNL     1      26.794  48.418  55.049  1.00  0.00    -0.353 OA
HETATM   29  C   UNL     1      26.258  48.724  56.330  1.00  0.00     0.210 C 
ENDBRANCH   2  28
TORSDOF 5
ENDMDL
MODEL 6
REMARK VINA RESULT:      -9.2      2.920      7.347
REMARK  5 active torsions:
REMARK  status: ('A' for Active; 'I' for Inactive)
REMARK    1  A    between atoms: O_2  and  C_3 
REMARK    2  A    between atoms: C_4  and  O_5 
REMARK    3  A    between atoms: C_10  and  C_11 
REMARK    4  A    between atoms: C_13  and  O_14 
REMARK    5  A    between atoms: O_14  and  C_15 
ROOT
HETATM    1  C   UNL     1      25.550  47.502  49.832  1.00  0.00     0.102 A 
HETATM    2  C   UNL     1      24.289  47.964  49.418  1.00  0.00     0.103 A 
HETATM    3  C   UNL     1      23.321  47.054  48.985  1.00  0.00     0.069 A 
HETATM    4  C   UNL     1      23.579  45.682  49.036  1.00  0.00     0.044 A 
HETATM    5  C   UNL     1      24.802  45.197  49.510  1.00  0.00    -0.020 A 
HETATM    6  C   UNL     1      25.059  43.696  49.498  1.00  0.00     0.063 C 
HETATM    7  C   UNL     1      23.756  42.898  49.591  1.00  0.00     0.117 C 
HETATM    8  C   UNL     1      22.695  43.433  48.666  1.00  0.00     0.223 C 
HETATM    9  O   UNL     1      21.861  42.708  48.129  1.00  0.00    -0.273 OA
HETATM   10  N   UNL     1      22.615  44.793  48.556  1.00  0.00    -0.327 N 
HETATM   11  C   UNL     1      25.797  46.125  49.869  1.00  0.00     0.049 A 
HETATM   12  H   UNL     1      21.807  45.142  48.055  1.00  0.00     0.169 HD
ENDROOT
BRANCH   6  13
HETATM   13  C   UNL     1      26.018  43.216  50.584  1.00  0.00    -0.046 A 
HETATM   14  C   UNL     1      25.878  43.645  51.917  1.00  0.00     0.045 A 
HETATM   15  C   UNL     1      26.817  43.273  52.882  1.00  0.00     0.076 A 
HETATM   16  C   UNL     1      27.851  42.400  52.554  1.00  0.00     0.037 A 
HETATM   17  C   UNL     1      27.980  41.940  51.244  1.00  0.00     0.003 A 
HETATM   18  C   UNL     1      27.077  42.353  50.262  1.00  0.00     0.008 A 
BRANCH  15  19
HETATM   19  O   UNL     1      26.739  43.696  54.188  1.00  0.00    -0.311 OA
BRANCH  19  20
HETATM   20  C   UNL     1      26.983  45.025  54.466  1.00  0.00     0.076 A 
HETATM   21  C   UNL     1      26.057  46.054  54.275  1.00  0.00     0.037 A 
HETATM   22  C   UNL     1      26.405  47.374  54.575  1.00  0.00     0.003 A 
HETATM   23  C   UNL     1      27.688  47.670  55.034  1.00  0.00     0.000 A 
HETATM   24  C   UNL     1      28.625  46.649  55.191  1.00  0.00     0.003 A 
HETATM   25  C   UNL     1      28.273  45.329  54.906  1.00  0.00     0.037 A 
ENDBRANCH  19  20
ENDBRANCH  15  19
ENDBRANCH   6  13
BRANCH   1  26
HETATM   26  O   UNL     1      26.457  48.462  50.206  1.00  0.00    -0.353 OA
HETATM   27  C   UNL     1      27.470  48.800  49.268  1.00  0.00     0.210 C 
ENDBRANCH   1  26
BRANCH   2  28
HETATM   28  O   UNL     1      24.103  49.326  49.403  1.00  0.00    -0.353 OA
HETATM   29  C   UNL     1      23.990  49.921  48.117  1.00  0.00     0.210 C 
ENDBRANCH   2  28
TORSDOF 5
ENDMDL
MODEL 7
REMARK VINA RESULT:      -9.2      2.639      7.927
REMARK  5 active torsions:
REMARK  status: ('A' for Active; 'I' for Inactive)
REMARK    1  A    between atoms: O_2  and  C_3 
REMARK    2  A    between atoms: C_4  and  O_5 
REMARK    3  A    between atoms: C_10  and  C_11 
REMARK    4  A    between atoms: C_13  and  O_14 
REMARK    5  A    between atoms: O_14  and  C_15 
ROOT
HETATM    1  C   UNL     1      25.214  47.647  49.769  1.00  0.00     0.102 A 
HETATM    2  C   UNL     1      24.061  47.690  48.967  1.00  0.00     0.103 A 
HETATM    3  C   UNL     1      23.331  46.521  48.732  1.00  0.00     0.069 A 
HETATM    4  C   UNL     1      23.705  45.327  49.354  1.00  0.00     0.044 A 
HETATM    5  C   UNL     1      24.809  45.277  50.210  1.00  0.00    -0.020 A 
HETATM    6  C   UNL     1      25.209  43.942  50.825  1.00  0.00     0.063 C 
HETATM    7  C   UNL     1      24.013  42.997  50.955  1.00  0.00     0.117 C 
HETATM    8  C   UNL     1      23.174  42.967  49.705  1.00  0.00     0.223 C 
HETATM    9  O   UNL     1      22.582  41.957  49.332  1.00  0.00    -0.273 OA
HETATM   10  N   UNL     1      22.989  44.163  49.069  1.00  0.00    -0.327 N 
HETATM   11  C   UNL     1      25.581  46.442  50.378  1.00  0.00     0.049 A 
HETATM   12  H   UNL     1      22.305  44.157  48.322  1.00  0.00     0.169 HD
ENDROOT
BRANCH   6  13
HETATM   13  C   UNL     1      25.903  44.060  52.180  1.00  0.00    -0.046 A 
HETATM   14  C   UNL     1      27.302  43.957  52.290  1.00  0.00     0.045 A 
HETATM   15  C   UNL     1      27.916  43.972  53.546  1.00  0.00     0.076 A 
HETATM   16  C   UNL     1      27.156  44.181  54.694  1.00  0.00     0.037 A 
HETATM   17  C   UNL     1      25.772  44.320  54.595  1.00  0.00     0.003 A 
HETATM   18  C   UNL     1      25.147  44.249  53.348  1.00  0.00     0.008 A 
BRANCH  15  19
HETATM   19  O   UNL     1      29.275  43.841  53.703  1.00  0.00    -0.311 OA
BRANCH  19  20
HETATM   20  C   UNL     1      29.824  44.108  54.940  1.00  0.00     0.076 A 
HETATM   21  C   UNL     1      29.640  45.301  55.644  1.00  0.00     0.037 A 
HETATM   22  C   UNL     1      30.249  45.482  56.888  1.00  0.00     0.003 A 
HETATM   23  C   UNL     1      31.069  44.484  57.415  1.00  0.00     0.000 A 
HETATM   24  C   UNL     1      31.281  43.306  56.699  1.00  0.00     0.003 A 
HETATM   25  C   UNL     1      30.660  43.120  55.463  1.00  0.00     0.037 A 
ENDBRANCH  19  20
ENDBRANCH  15  19
ENDBRANCH   6  13
BRANCH   1  26
HETATM   26  O   UNL     1      25.895  48.829  49.919  1.00  0.00    -0.353 OA
HETATM   27  C   UNL     1      27.114  48.973  49.203  1.00  0.00     0.210 C 
ENDBRANCH   1  26
BRANCH   2  28
HETATM   28  O   UNL     1      23.749  48.900  48.396  1.00  0.00    -0.353 OA
HETATM   29  C   UNL     1      22.369  49.241  48.378  1.00  0.00     0.210 C 
ENDBRANCH   2  28
TORSDOF 5
ENDMDL
MODEL 8
REMARK VINA RESULT:      -9.2      1.337      2.553
REMARK  5 active torsions:
REMARK  status: ('A' for Active; 'I' for Inactive)
REMARK    1  A    between atoms: O_2  and  C_3 
REMARK    2  A    between atoms: C_4  and  O_5 
REMARK    3  A    between atoms: C_10  and  C_11 
REMARK    4  A    between atoms: C_13  and  O_14 
REMARK    5  A    between atoms: O_14  and  C_15 
ROOT
HETATM    1  C   UNL     1      27.845  45.994  54.735  1.00  0.00     0.102 A 
HETATM    2  C   UNL     1      29.029  45.490  55.301  1.00  0.00     0.103 A 
HETATM    3  C   UNL     1      29.464  44.202  54.975  1.00  0.00     0.069 A 
HETATM    4  C   UNL     1      28.766  43.447  54.029  1.00  0.00     0.044 A 
HETATM    5  C   UNL     1      27.625  43.956  53.402  1.00  0.00    -0.020 A 
HETATM    6  C   UNL     1      26.866  43.077  52.417  1.00  0.00     0.063 C 
HETATM    7  C   UNL     1      27.781  42.040  51.762  1.00  0.00     0.117 C 
HETATM    8  C   UNL     1      28.675  41.357  52.764  1.00  0.00     0.223 C 
HETATM    9  O   UNL     1      29.026  40.186  52.644  1.00  0.00    -0.273 OA
HETATM   10  N   UNL     1      29.192  42.147  53.752  1.00  0.00    -0.327 N 
HETATM   11  C   UNL     1      27.152  45.222  53.796  1.00  0.00     0.049 A 
HETATM   12  H   UNL     1      29.906  41.713  54.326  1.00  0.00     0.169 HD
ENDROOT
BRANCH   6  13
HETATM   13  C   UNL     1      26.127  43.850  51.328  1.00  0.00    -0.046 A 
HETATM   14  C   UNL     1      25.847  45.222  51.474  1.00  0.00     0.045 A 
HETATM   15  C   UNL     1      25.089  45.896  50.513  1.00  0.00     0.076 A 
HETATM   16  C   UNL     1      24.680  45.237  49.356  1.00  0.00     0.037 A 
HETATM   17  C   UNL     1      24.982  43.887  49.182  1.00  0.00     0.003 A 
HETATM   18  C   UNL     1      25.691  43.194  50.166  1.00  0.00     0.008 A 
BRANCH  15  19
HETATM   19  O   UNL     1      24.763  47.226  50.632  1.00  0.00    -0.311 OA
BRANCH  19  20
HETATM   20  C   UNL     1      25.390  48.134  49.805  1.00  0.00     0.076 A 
HETATM   21  C   UNL     1      26.772  48.341  49.766  1.00  0.00     0.037 A 
HETATM   22  C   UNL     1      27.313  49.296  48.901  1.00  0.00     0.003 A 
HETATM   23  C   UNL     1      26.472  50.068  48.100  1.00  0.00     0.000 A 
HETATM   24  C   UNL     1      25.091  49.888  48.164  1.00  0.00     0.003 A 
HETATM   25  C   UNL     1      24.552  48.923  49.016  1.00  0.00     0.037 A 
ENDBRANCH  19  20
ENDBRANCH  15  19
ENDBRANCH   6  13
BRANCH   1  26
HETATM   26  O   UNL     1      27.466  47.250  55.136  1.00  0.00    -0.353 OA
HETATM   27  C   UNL     1      26.213  47.732  54.668  1.00  0.00     0.210 C 
ENDBRANCH   1  26
BRANCH   2  28
HETATM   28  O   UNL     1      29.667  46.292  56.216  1.00  0.00    -0.353 OA
HETATM   29  C   UNL     1      29.669  45.822  57.558  1.00  0.00     0.210 C 
ENDBRANCH   2  28
TORSDOF 5
ENDMDL
MODEL 9
REMARK VINA RESULT:      -9.0      2.229      4.139
REMARK  5 active torsions:
REMARK  status: ('A' for Active; 'I' for Inactive)
REMARK    1  A    between atoms: O_2  and  C_3 
REMARK    2  A    between atoms: C_4  and  O_5 
REMARK    3  A    between atoms: C_10  and  C_11 
REMARK    4  A    between atoms: C_13  and  O_14 
REMARK    5  A    between atoms: O_14  and  C_15 
ROOT
HETATM    1  C   UNL     1      28.879  43.764  53.454  1.00  0.00     0.102 A 
HETATM    2  C   UNL     1      29.256  43.914  54.799  1.00  0.00     0.103 A 
HETATM    3  C   UNL     1      28.805  45.018  55.530  1.00  0.00     0.069 A 
HETATM    4  C   UNL     1      27.920  45.928  54.947  1.00  0.00     0.044 A 
HETATM    5  C   UNL     1      27.478  45.760  53.632  1.00  0.00    -0.020 A 
HETATM    6  C   UNL     1      26.554  46.806  53.021  1.00  0.00     0.063 C 
HETATM    7  C   UNL     1      25.729  47.526  54.089  1.00  0.00     0.117 C 
HETATM    8  C   UNL     1      26.566  47.937  55.272  1.00  0.00     0.223 C 
HETATM    9  O   UNL     1      26.337  48.956  55.920  1.00  0.00    -0.273 OA
HETATM   10  N   UNL     1      27.519  47.047  55.680  1.00  0.00    -0.327 N 
HETATM   11  C   UNL     1      27.999  44.689  52.881  1.00  0.00     0.049 A 
HETATM   12  H   UNL     1      27.969  47.265  56.561  1.00  0.00     0.169 HD
ENDROOT
BRANCH   6  13
HETATM   13  C   UNL     1      25.616  46.262  51.947  1.00  0.00    -0.046 A 
HETATM   14  C   UNL     1      25.363  46.988  50.768  1.00  0.00     0.045 A 
HETATM   15  C   UNL     1      24.431  46.524  49.837  1.00  0.00     0.076 A 
HETATM   16  C   UNL     1      23.809  45.292  50.024  1.00  0.00     0.037 A 
HETATM   17  C   UNL     1      24.078  44.545  51.170  1.00  0.00     0.003 A 
HETATM   18  C   UNL     1      24.967  45.031  52.131  1.00  0.00     0.008 A 
BRANCH  15  19
HETATM   19  O   UNL     1      24.127  47.217  48.689  1.00  0.00    -0.311 OA
BRANCH  19  20
HETATM   20  C   UNL     1      23.509  48.445  48.805  1.00  0.00     0.076 A 
HETATM   21  C   UNL     1      24.165  49.673  48.683  1.00  0.00     0.037 A 
HETATM   22  C   UNL     1      23.453  50.865  48.830  1.00  0.00     0.003 A 
HETATM   23  C   UNL     1      22.091  50.832  49.131  1.00  0.00     0.000 A 
HETATM   24  C   UNL     1      21.442  49.608  49.288  1.00  0.00     0.003 A 
HETATM   25  C   UNL     1      22.151  48.416  49.126  1.00  0.00     0.037 A 
ENDBRANCH  19  20
ENDBRANCH  15  19
ENDBRANCH   6  13
BRANCH   1  26
HETATM   26  O   UNL     1      29.394  42.676  52.795  1.00  0.00    -0.353 OA
HETATM   27  C   UNL     1      28.467  41.766  52.218  1.00  0.00     0.210 C 
ENDBRANCH   1  26
BRANCH   2  28
HETATM   28  O   UNL     1      30.121  42.976  55.308  1.00  0.00    -0.353 OA
HETATM   29  C   UNL     1      31.180  43.480  56.111  1.00  0.00     0.210 C 
ENDBRANCH   2  28
TORSDOF 5
ENDMDL
MODEL 10
REMARK VINA RESULT:      -8.9      2.849      6.577
REMARK  5 active torsions:
REMARK  status: ('A' for Active; 'I' for Inactive)
REMARK    1  A    between atoms: O_2  and  C_3 
REMARK    2  A    between atoms: C_4  and  O_5 
REMARK    3  A    between atoms: C_10  and  C_11 
REMARK    4  A    between atoms: C_13  and  O_14 
REMARK    5  A    between atoms: O_14  and  C_15 
ROOT
HETATM    1  C   UNL     1      27.522  41.176  50.960  1.00  0.00     0.102 A 
HETATM    2  C   UNL     1      27.183  40.430  49.819  1.00  0.00     0.103 A 
HETATM    3  C   UNL     1      25.976  40.677  49.157  1.00  0.00     0.069 A 
HETATM    4  C   UNL     1      25.145  41.715  49.585  1.00  0.00     0.044 A 
HETATM    5  C   UNL     1      25.496  42.515  50.677  1.00  0.00    -0.020 A 
HETATM    6  C   UNL     1      24.534  43.601  51.139  1.00  0.00     0.063 C 
HETATM    7  C   UNL     1      23.649  44.099  49.994  1.00  0.00     0.117 C 
HETATM    8  C   UNL     1      23.085  42.966  49.178  1.00  0.00     0.223 C 
HETATM    9  O   UNL     1      21.978  43.023  48.648  1.00  0.00    -0.273 OA
HETATM   10  N   UNL     1      23.923  41.914  48.939  1.00  0.00    -0.327 N 
HETATM   11  C   UNL     1      26.675  42.207  51.382  1.00  0.00     0.049 A 
HETATM   12  H   UNL     1      23.587  41.234  48.267  1.00  0.00     0.169 HD
ENDROOT
BRANCH   6  13
HETATM   13  C   UNL     1      25.212  44.796  51.804  1.00  0.00    -0.046 A 
HETATM   14  C   UNL     1      25.656  44.730  53.137  1.00  0.00     0.045 A 
HETATM   15  C   UNL     1      26.189  45.860  53.763  1.00  0.00     0.076 A 
HETATM   16  C   UNL     1      26.369  47.039  53.044  1.00  0.00     0.037 A 
HETATM   17  C   UNL     1      25.965  47.107  51.711  1.00  0.00     0.003 A 
HETATM   18  C   UNL     1      25.380  45.997  51.097  1.00  0.00     0.008 A 
BRANCH  15  19
HETATM   19  O   UNL     1      26.605  45.850  55.073  1.00  0.00    -0.311 OA
BRANCH  19  20
HETATM   20  C   UNL     1      27.898  45.461  55.351  1.00  0.00     0.076 A 
HETATM   21  C   UNL     1      28.766  46.154  56.200  1.00  0.00     0.037 A 
HETATM   22  C   UNL     1      30.065  45.686  56.408  1.00  0.00     0.003 A 
HETATM   23  C   UNL     1      30.510  44.543  55.743  1.00  0.00     0.000 A 
HETATM   24  C   UNL     1      29.657  43.869  54.870  1.00  0.00     0.003 A 
HETATM   25  C   UNL     1      28.354  44.329  54.673  1.00  0.00     0.037 A 
ENDBRANCH  19  20
ENDBRANCH  15  19
ENDBRANCH   6  13
BRANCH   1  26
HETATM   26  O   UNL     1      28.705  40.847  51.573  1.00  0.00    -0.353 OA
HETATM   27  C   UNL     1      28.732  40.878  52.994  1.00  0.00     0.210 C 
ENDBRANCH   1  26
BRANCH   2  28
HETATM   28  O   UNL     1      28.053  39.432  49.451  1.00  0.00    -0.353 OA
HETATM   29  C   UNL     1      27.561  38.104  49.577  1.00  0.00     0.210 C 
ENDBRANCH   2  28
TORSDOF 5
ENDMDL
