MODEL 1
REMARK VINA RESULT:     -10.9      0.000      0.000
REMARK  8 active torsions:
REMARK  status: ('A' for Active; 'I' for Inactive)
REMARK    1  A    between atoms: C_2  and  N_3 
REMARK    2  A    between atoms: C_2  and  C_34 
REMARK       I    between atoms: N_3  and  C_4 
REMARK    3  A    between atoms: C_4  and  C_5 
REMARK    4  A    between atoms: C_5  and  N_6 
REMARK       I    between atoms: N_12  and  C_13 
REMARK    5  A    between atoms: C_13  and  C_14 
REMARK    6  A    between atoms: C_14  and  O_15 
REMARK    7  A    between atoms: O_15  and  C_16 
REMARK    8  A    between atoms: N_25  and  C_26 
ROOT
HETATM    1  N   UNL     1      25.622  45.632  52.695  1.00  0.00    -0.325 N 
HETATM    2  C   UNL     1      24.873  44.819  51.881  1.00  0.00     0.250 C 
HETATM    3  O   UNL     1      24.356  43.769  52.230  1.00  0.00    -0.270 OA
HETATM    4  C   UNL     1      24.868  45.450  50.471  1.00  0.00     0.118 C 
HETATM    5  C   UNL     1      23.442  45.412  49.915  1.00  0.00     0.061 C 
HETATM    6  C   UNL     1      23.035  44.026  49.418  1.00  0.00     0.129 C 
HETATM    7  N   UNL     1      24.065  43.393  48.599  1.00  0.00    -0.350 N 
HETATM    8  C   UNL     1      23.644  42.552  47.562  1.00  0.00     0.244 C 
HETATM    9  O   UNL     1      22.452  42.427  47.265  1.00  0.00    -0.271 OA
HETATM   10  C   UNL     1      25.390  43.310  49.206  1.00  0.00     0.129 C 
HETATM   11  C   UNL     1      25.901  44.678  49.634  1.00  0.00     0.061 C 
HETATM   12  N   UNL     1      25.344  46.836  50.768  1.00  0.00    -0.346 N 
HETATM   13  C   UNL     1      25.865  46.921  52.130  1.00  0.00     0.254 C 
ENDROOT
BRANCH  12  14
HETATM   14  C   UNL     1      25.566  47.879  49.886  1.00  0.00     0.032 A 
HETATM   15  C   UNL     1      24.535  48.580  49.242  1.00  0.00     0.029 A 
HETATM   16  C   UNL     1      24.778  49.627  48.339  1.00  0.00     0.002 A 
HETATM   17  C   UNL     1      26.077  50.020  48.056  1.00  0.00     0.000 A 
HETATM   18  C   UNL     1      27.127  49.368  48.683  1.00  0.00     0.002 A 
HETATM   19  C   UNL     1      26.871  48.322  49.581  1.00  0.00     0.029 A 
ENDBRANCH  12  14
BRANCH   1  20
HETATM   20  C   UNL     1      25.977  45.335  54.071  1.00  0.00     0.230 C 
BRANCH  20  21
HETATM   21  C   UNL     1      27.042  44.247  54.210  1.00  0.00     0.236 C 
HETATM   22  N   UNL     1      28.271  44.589  53.690  1.00  0.00    -0.351 N 
HETATM   23  H   UNL     1      28.389  45.569  53.455  1.00  0.00     0.163 HD
HETATM   24  O   UNL     1      26.807  43.209  54.822  1.00  0.00    -0.272 OA
BRANCH  22  25
HETATM   25  C   UNL     1      29.503  43.845  53.923  1.00  0.00     0.113 C 
HETATM   26  C   UNL     1      29.436  42.361  53.553  1.00  0.00     0.037 C 
BRANCH  25  27
HETATM   27  C   UNL     1      30.042  44.115  55.317  1.00  0.00    -0.036 A 
HETATM   28  C   UNL     1      30.898  43.183  55.928  1.00  0.00     0.009 A 
HETATM   29  C   UNL     1      31.423  43.419  57.200  1.00  0.00     0.001 A 
HETATM   30  C   UNL     1      31.109  44.593  57.879  1.00  0.00     0.000 A 
HETATM   31  C   UNL     1      30.270  45.533  57.284  1.00  0.00     0.001 A 
HETATM   32  C   UNL     1      29.744  45.297  56.012  1.00  0.00     0.009 A 
ENDBRANCH  25  27
ENDBRANCH  22  25
ENDBRANCH  20  21
ENDBRANCH   1  20
BRANCH   8  33
HETATM   33  C   UNL     1      24.704  41.753  46.798  1.00  0.00     0.278 C 
BRANCH  33  34
HETATM   34  O   UNL     1      24.893  40.483  47.411  1.00  0.00    -0.342 OA
BRANCH  34  35
HETATM   35  C   UNL     1      26.133  40.248  47.940  1.00  0.00     0.069 A 
HETATM   36  C   UNL     1      26.394  39.578  49.136  1.00  0.00     0.037 A 
HETATM   37  C   UNL     1      27.711  39.417  49.578  1.00  0.00     0.003 A 
HETATM   38  C   UNL     1      28.770  39.923  48.827  1.00  0.00     0.000 A 
HETATM   39  C   UNL     1      28.514  40.601  47.636  1.00  0.00     0.003 A 
HETATM   40  C   UNL     1      27.199  40.768  47.200  1.00  0.00     0.037 A 
ENDBRANCH  34  35
ENDBRANCH  33  34
ENDBRANCH   8  33
TORSDOF 8
ENDMDL
MODEL 2
REMARK VINA RESULT:     -10.8      2.538      8.532
REMARK  8 active torsions:
REMARK  status: ('A' for Active; 'I' for Inactive)
REMARK    1  A    between atoms: C_2  and  N_3 
REMARK    2  A    between atoms: C_2  and  C_34 
REMARK       I    between atoms: N_3  and  C_4 
REMARK    3  A    between atoms: C_4  and  C_5 
REMARK    4  A    between atoms: C_5  and  N_6 
REMARK       I    between atoms: N_12  and  C_13 
REMARK    5  A    between atoms: C_13  and  C_14 
REMARK    6  A    between atoms: C_14  and  O_15 
REMARK    7  A    between atoms: O_15  and  C_16 
REMARK    8  A    between atoms: N_25  and  C_26 
ROOT
HETATM    1  N   UNL     1      23.131  45.040  49.647  1.00  0.00    -0.325 N 
HETATM    2  C   UNL     1      24.181  44.359  50.210  1.00  0.00     0.250 C 
HETATM    3  O   UNL     1      24.148  43.186  50.551  1.00  0.00    -0.270 OA
HETATM    4  C   UNL     1      25.348  45.356  50.373  1.00  0.00     0.118 C 
HETATM    5  C   UNL     1      26.643  44.687  49.905  1.00  0.00     0.061 C 
HETATM    6  C   UNL     1      27.202  43.694  50.922  1.00  0.00     0.129 C 
HETATM    7  N   UNL     1      27.203  44.221  52.285  1.00  0.00    -0.350 N 
HETATM    8  C   UNL     1      28.234  43.811  53.138  1.00  0.00     0.244 C 
HETATM    9  O   UNL     1      29.176  43.120  52.739  1.00  0.00    -0.271 OA
HETATM   10  C   UNL     1      25.921  44.726  52.767  1.00  0.00     0.129 C 
HETATM   11  C   UNL     1      25.354  45.797  51.846  1.00  0.00     0.061 C 
HETATM   12  N   UNL     1      24.909  46.472  49.480  1.00  0.00    -0.346 N 
HETATM   13  C   UNL     1      23.513  46.296  49.085  1.00  0.00     0.254 C 
ENDROOT
BRANCH  12  14
HETATM   14  C   UNL     1      25.544  47.675  49.227  1.00  0.00     0.032 A 
HETATM   15  C   UNL     1      24.875  48.826  48.785  1.00  0.00     0.029 A 
HETATM   16  C   UNL     1      25.537  50.035  48.520  1.00  0.00     0.002 A 
HETATM   17  C   UNL     1      26.908  50.136  48.704  1.00  0.00     0.000 A 
HETATM   18  C   UNL     1      27.609  49.030  49.157  1.00  0.00     0.002 A 
HETATM   19  C   UNL     1      26.935  47.827  49.416  1.00  0.00     0.029 A 
ENDBRANCH  12  14
BRANCH   1  20
HETATM   20  C   UNL     1      21.800  44.497  49.438  1.00  0.00     0.230 C 
BRANCH  20  21
HETATM   21  C   UNL     1      20.901  45.387  48.581  1.00  0.00     0.236 C 
HETATM   22  N   UNL     1      20.044  46.188  49.303  1.00  0.00    -0.351 N 
HETATM   23  H   UNL     1      20.233  46.245  50.298  1.00  0.00     0.163 HD
HETATM   24  O   UNL     1      21.027  45.422  47.360  1.00  0.00    -0.272 OA
BRANCH  22  25
HETATM   25  C   UNL     1      19.279  47.296  48.743  1.00  0.00     0.113 C 
HETATM   26  C   UNL     1      18.628  47.007  47.387  1.00  0.00     0.037 C 
BRANCH  25  27
HETATM   27  C   UNL     1      20.085  48.584  48.784  1.00  0.00    -0.036 A 
HETATM   28  C   UNL     1      20.924  48.916  47.708  1.00  0.00     0.009 A 
HETATM   29  C   UNL     1      21.658  50.104  47.713  1.00  0.00     0.001 A 
HETATM   30  C   UNL     1      21.559  50.983  48.788  1.00  0.00     0.000 A 
HETATM   31  C   UNL     1      20.723  50.674  49.859  1.00  0.00     0.001 A 
HETATM   32  C   UNL     1      19.989  49.485  49.855  1.00  0.00     0.009 A 
ENDBRANCH  25  27
ENDBRANCH  22  25
ENDBRANCH  20  21
ENDBRANCH   1  20
BRANCH   8  33
HETATM   33  C   UNL     1      28.164  44.220  54.612  1.00  0.00     0.278 C 
BRANCH  33  34
HETATM   34  O   UNL     1      29.159  45.198  54.895  1.00  0.00    -0.342 OA
BRANCH  34  35
HETATM   35  C   UNL     1      29.965  44.944  55.971  1.00  0.00     0.069 A 
HETATM   36  C   UNL     1      30.876  43.891  56.076  1.00  0.00     0.037 A 
HETATM   37  C   UNL     1      31.632  43.730  57.241  1.00  0.00     0.003 A 
HETATM   38  C   UNL     1      31.483  44.620  58.303  1.00  0.00     0.000 A 
HETATM   39  C   UNL     1      30.569  45.667  58.207  1.00  0.00     0.003 A 
HETATM   40  C   UNL     1      29.808  45.822  57.047  1.00  0.00     0.037 A 
ENDBRANCH  34  35
ENDBRANCH  33  34
ENDBRANCH   8  33
TORSDOF 8
ENDMDL
MODEL 3
REMARK VINA RESULT:     -10.0      2.920      9.059
REMARK  8 active torsions:
REMARK  status: ('A' for Active; 'I' for Inactive)
REMARK    1  A    between atoms: C_2  and  N_3 
REMARK    2  A    between atoms: C_2  and  C_34 
REMARK       I    between atoms: N_3  and  C_4 
REMARK    3  A    between atoms: C_4  and  C_5 
REMARK    4  A    between atoms: C_5  and  N_6 
REMARK       I    between atoms: N_12  and  C_13 
REMARK    5  A    between atoms: C_13  and  C_14 
REMARK    6  A    between atoms: C_14  and  O_15 
REMARK    7  A    between atoms: O_15  and  C_16 
REMARK    8  A    between atoms: N_25  and  C_26 
ROOT
HETATM    1  N   UNL     1      24.733  47.223  49.653  1.00  0.00    -0.325 N 
HETATM    2  C   UNL     1      25.062  46.732  50.893  1.00  0.00     0.250 C 
HETATM    3  O   UNL     1      25.334  47.420  51.864  1.00  0.00    -0.270 OA
HETATM    4  C   UNL     1      25.074  45.191  50.793  1.00  0.00     0.118 C 
HETATM    5  C   UNL     1      24.346  44.609  52.008  1.00  0.00     0.061 C 
HETATM    6  C   UNL     1      25.191  44.646  53.281  1.00  0.00     0.129 C 
HETATM    7  N   UNL     1      26.559  44.184  53.065  1.00  0.00    -0.350 N 
HETATM    8  C   UNL     1      27.192  43.515  54.119  1.00  0.00     0.244 C 
HETATM    9  O   UNL     1      26.594  43.220  55.158  1.00  0.00    -0.271 OA
HETATM   10  C   UNL     1      27.288  44.852  51.991  1.00  0.00     0.129 C 
HETATM   11  C   UNL     1      26.545  44.764  50.666  1.00  0.00     0.061 C 
HETATM   12  N   UNL     1      24.338  44.973  49.510  1.00  0.00    -0.346 N 
HETATM   13  C   UNL     1      24.185  46.231  48.783  1.00  0.00     0.254 C 
ENDROOT
BRANCH  12  14
HETATM   14  C   UNL     1      24.046  43.778  48.876  1.00  0.00     0.032 A 
HETATM   15  C   UNL     1      24.924  42.683  48.845  1.00  0.00     0.029 A 
HETATM   16  C   UNL     1      24.618  41.483  48.186  1.00  0.00     0.002 A 
HETATM   17  C   UNL     1      23.402  41.332  47.536  1.00  0.00     0.000 A 
HETATM   18  C   UNL     1      22.495  42.380  47.555  1.00  0.00     0.002 A 
HETATM   19  C   UNL     1      22.815  43.575  48.217  1.00  0.00     0.029 A 
ENDBRANCH  12  14
BRANCH   1  20
HETATM   20  C   UNL     1      24.731  48.628  49.287  1.00  0.00     0.230 C 
BRANCH  20  21
HETATM   21  C   UNL     1      23.412  49.102  48.675  1.00  0.00     0.236 C 
HETATM   22  N   UNL     1      22.386  49.243  49.582  1.00  0.00    -0.351 N 
HETATM   23  H   UNL     1      22.657  49.209  50.559  1.00  0.00     0.163 HD
HETATM   24  O   UNL     1      23.342  49.407  47.488  1.00  0.00    -0.272 OA
BRANCH  22  25
HETATM   25  C   UNL     1      21.123  49.917  49.303  1.00  0.00     0.113 C 
HETATM   26  C   UNL     1      20.720  50.975  50.335  1.00  0.00     0.037 C 
BRANCH  25  27
HETATM   27  C   UNL     1      20.031  48.909  48.987  1.00  0.00    -0.036 A 
HETATM   28  C   UNL     1      18.967  48.727  49.887  1.00  0.00     0.009 A 
HETATM   29  C   UNL     1      17.941  47.822  49.608  1.00  0.00     0.001 A 
HETATM   30  C   UNL     1      17.955  47.092  48.422  1.00  0.00     0.000 A 
HETATM   31  C   UNL     1      18.997  47.268  47.514  1.00  0.00     0.001 A 
HETATM   32  C   UNL     1      20.025  48.172  47.793  1.00  0.00     0.009 A 
ENDBRANCH  25  27
ENDBRANCH  22  25
ENDBRANCH  20  21
ENDBRANCH   1  20
BRANCH   8  33
HETATM   33  C   UNL     1      28.677  43.168  53.974  1.00  0.00     0.278 C 
BRANCH  33  34
HETATM   34  O   UNL     1      29.476  44.306  54.274  1.00  0.00    -0.342 OA
BRANCH  34  35
HETATM   35  C   UNL     1      30.095  44.303  55.495  1.00  0.00     0.069 A 
HETATM   36  C   UNL     1      30.962  43.317  55.966  1.00  0.00     0.037 A 
HETATM   37  C   UNL     1      31.519  43.423  57.244  1.00  0.00     0.003 A 
HETATM   38  C   UNL     1      31.211  44.514  58.055  1.00  0.00     0.000 A 
HETATM   39  C   UNL     1      30.338  45.497  57.593  1.00  0.00     0.003 A 
HETATM   40  C   UNL     1      29.777  45.386  56.319  1.00  0.00     0.037 A 
ENDBRANCH  34  35
ENDBRANCH  33  34
ENDBRANCH   8  33
TORSDOF 8
ENDMDL
MODEL 4
REMARK VINA RESULT:      -9.9      3.263      9.146
REMARK  8 active torsions:
REMARK  status: ('A' for Active; 'I' for Inactive)
REMARK    1  A    between atoms: C_2  and  N_3 
REMARK    2  A    between atoms: C_2  and  C_34 
REMARK       I    between atoms: N_3  and  C_4 
REMARK    3  A    between atoms: C_4  and  C_5 
REMARK    4  A    between atoms: C_5  and  N_6 
REMARK       I    between atoms: N_12  and  C_13 
REMARK    5  A    between atoms: C_13  and  C_14 
REMARK    6  A    between atoms: C_14  and  O_15 
REMARK    7  A    between atoms: O_15  and  C_16 
REMARK    8  A    between atoms: N_25  and  C_26 
ROOT
HETATM    1  N   UNL     1      23.198  45.039  49.593  1.00  0.00    -0.325 N 
HETATM    2  C   UNL     1      24.223  44.317  50.151  1.00  0.00     0.250 C 
HETATM    3  O   UNL     1      24.152  43.140  50.472  1.00  0.00    -0.270 OA
HETATM    4  C   UNL     1      25.419  45.276  50.338  1.00  0.00     0.118 C 
HETATM    5  C   UNL     1      26.696  44.575  49.867  1.00  0.00     0.061 C 
HETATM    6  C   UNL     1      27.217  43.549  50.872  1.00  0.00     0.129 C 
HETATM    7  N   UNL     1      27.225  44.053  52.242  1.00  0.00    -0.350 N 
HETATM    8  C   UNL     1      28.237  43.598  53.095  1.00  0.00     0.244 C 
HETATM    9  O   UNL     1      29.161  42.885  52.691  1.00  0.00    -0.271 OA
HETATM   10  C   UNL     1      25.956  44.589  52.724  1.00  0.00     0.129 C 
HETATM   11  C   UNL     1      25.428  45.692  51.818  1.00  0.00     0.061 C 
HETATM   12  N   UNL     1      25.019  46.419  49.461  1.00  0.00    -0.346 N 
HETATM   13  C   UNL     1      23.622  46.292  49.054  1.00  0.00     0.254 C 
ENDROOT
BRANCH  12  14
HETATM   14  C   UNL     1      25.693  47.606  49.232  1.00  0.00     0.032 A 
HETATM   15  C   UNL     1      27.079  47.753  49.392  1.00  0.00     0.029 A 
HETATM   16  C   UNL     1      27.744  48.968  49.168  1.00  0.00     0.002 A 
HETATM   17  C   UNL     1      27.036  50.089  48.760  1.00  0.00     0.000 A 
HETATM   18  C   UNL     1      25.668  49.986  48.571  1.00  0.00     0.002 A 
HETATM   19  C   UNL     1      25.015  48.766  48.800  1.00  0.00     0.029 A 
ENDBRANCH  12  14
BRANCH   1  20
HETATM   20  C   UNL     1      21.853  44.540  49.366  1.00  0.00     0.230 C 
BRANCH  20  21
HETATM   21  C   UNL     1      21.078  45.323  48.306  1.00  0.00     0.236 C 
HETATM   22  N   UNL     1      20.763  46.612  48.672  1.00  0.00    -0.351 N 
HETATM   23  H   UNL     1      21.235  46.959  49.500  1.00  0.00     0.163 HD
HETATM   24  O   UNL     1      20.855  44.836  47.201  1.00  0.00    -0.272 OA
BRANCH  22  25
HETATM   25  C   UNL     1      20.263  47.633  47.758  1.00  0.00     0.113 C 
HETATM   26  C   UNL     1      21.093  48.920  47.719  1.00  0.00     0.037 C 
BRANCH  25  27
HETATM   27  C   UNL     1      18.775  47.858  47.961  1.00  0.00    -0.036 A 
HETATM   28  C   UNL     1      18.163  49.003  47.425  1.00  0.00     0.009 A 
HETATM   29  C   UNL     1      16.792  49.221  47.579  1.00  0.00     0.001 A 
HETATM   30  C   UNL     1      16.010  48.295  48.264  1.00  0.00     0.000 A 
HETATM   31  C   UNL     1      16.599  47.149  48.794  1.00  0.00     0.001 A 
HETATM   32  C   UNL     1      17.970  46.931  48.640  1.00  0.00     0.009 A 
ENDBRANCH  25  27
ENDBRANCH  22  25
ENDBRANCH  20  21
ENDBRANCH   1  20
BRANCH   8  33
HETATM   33  C   UNL     1      28.170  43.985  54.576  1.00  0.00     0.278 C 
BRANCH  33  34
HETATM   34  O   UNL     1      29.072  45.052  54.843  1.00  0.00    -0.342 OA
BRANCH  34  35
HETATM   35  C   UNL     1      29.861  44.912  55.952  1.00  0.00     0.069 A 
HETATM   36  C   UNL     1      29.860  45.756  57.064  1.00  0.00     0.037 A 
HETATM   37  C   UNL     1      30.730  45.512  58.131  1.00  0.00     0.003 A 
HETATM   38  C   UNL     1      31.602  44.425  58.092  1.00  0.00     0.000 A 
HETATM   39  C   UNL     1      31.612  43.584  56.980  1.00  0.00     0.003 A 
HETATM   40  C   UNL     1      30.748  43.833  55.912  1.00  0.00     0.037 A 
ENDBRANCH  34  35
ENDBRANCH  33  34
ENDBRANCH   8  33
TORSDOF 8
ENDMDL
MODEL 5
REMARK VINA RESULT:      -9.8      1.651      2.305
REMARK  8 active torsions:
REMARK  status: ('A' for Active; 'I' for Inactive)
REMARK    1  A    between atoms: C_2  and  N_3 
REMARK    2  A    between atoms: C_2  and  C_34 
REMARK       I    between atoms: N_3  and  C_4 
REMARK    3  A    between atoms: C_4  and  C_5 
REMARK    4  A    between atoms: C_5  and  N_6 
REMARK       I    between atoms: N_12  and  C_13 
REMARK    5  A    between atoms: C_13  and  C_14 
REMARK    6  A    between atoms: C_14  and  O_15 
REMARK    7  A    between atoms: O_15  and  C_16 
REMARK    8  A    between atoms: N_25  and  C_26 
ROOT
HETATM    1  N   UNL     1      25.482  45.765  52.773  1.00  0.00    -0.325 N 
HETATM    2  C   UNL     1      24.981  44.736  52.015  1.00  0.00     0.250 C 
HETATM    3  O   UNL     1      24.783  43.602  52.423  1.00  0.00    -0.270 OA
HETATM    4  C   UNL     1      24.782  45.271  50.580  1.00  0.00     0.118 C 
HETATM    5  C   UNL     1      23.417  44.809  50.062  1.00  0.00     0.061 C 
HETATM    6  C   UNL     1      23.407  43.341  49.637  1.00  0.00     0.129 C 
HETATM    7  N   UNL     1      24.563  42.981  48.821  1.00  0.00    -0.350 N 
HETATM    8  C   UNL     1      24.382  42.007  47.833  1.00  0.00     0.244 C 
HETATM    9  O   UNL     1      23.269  41.539  47.573  1.00  0.00    -0.271 OA
HETATM   10  C   UNL     1      25.866  43.301  49.397  1.00  0.00     0.129 C 
HETATM   11  C   UNL     1      25.979  44.777  49.751  1.00  0.00     0.061 C 
HETATM   12  N   UNL     1      24.855  46.747  50.803  1.00  0.00    -0.346 N 
HETATM   13  C   UNL     1      25.348  47.042  52.146  1.00  0.00     0.254 C 
ENDROOT
BRANCH  12  14
HETATM   14  C   UNL     1      24.764  47.765  49.870  1.00  0.00     0.032 A 
HETATM   15  C   UNL     1      23.557  48.170  49.280  1.00  0.00     0.029 A 
HETATM   16  C   UNL     1      23.485  49.196  48.325  1.00  0.00     0.002 A 
HETATM   17  C   UNL     1      24.632  49.869  47.933  1.00  0.00     0.000 A 
HETATM   18  C   UNL     1      25.845  49.516  48.502  1.00  0.00     0.002 A 
HETATM   19  C   UNL     1      25.904  48.487  49.454  1.00  0.00     0.029 A 
ENDBRANCH  12  14
BRANCH   1  20
HETATM   20  C   UNL     1      25.924  45.647  54.151  1.00  0.00     0.230 C 
BRANCH  20  21
HETATM   21  C   UNL     1      27.442  45.703  54.317  1.00  0.00     0.236 C 
HETATM   22  N   UNL     1      28.056  44.470  54.322  1.00  0.00    -0.351 N 
HETATM   23  H   UNL     1      27.477  43.692  54.025  1.00  0.00     0.163 HD
HETATM   24  O   UNL     1      28.034  46.778  54.349  1.00  0.00    -0.272 OA
BRANCH  22  25
HETATM   25  C   UNL     1      29.495  44.263  54.207  1.00  0.00     0.113 C 
HETATM   26  C   UNL     1      29.903  43.057  53.356  1.00  0.00     0.037 C 
BRANCH  25  27
HETATM   27  C   UNL     1      30.158  44.313  55.573  1.00  0.00    -0.036 A 
HETATM   28  C   UNL     1      29.877  45.376  56.447  1.00  0.00     0.009 A 
HETATM   29  C   UNL     1      30.457  45.432  57.716  1.00  0.00     0.001 A 
HETATM   30  C   UNL     1      31.321  44.424  58.135  1.00  0.00     0.000 A 
HETATM   31  C   UNL     1      31.602  43.356  57.285  1.00  0.00     0.001 A 
HETATM   32  C   UNL     1      31.023  43.300  56.015  1.00  0.00     0.009 A 
ENDBRANCH  25  27
ENDBRANCH  22  25
ENDBRANCH  20  21
ENDBRANCH   1  20
BRANCH   8  33
HETATM   33  C   UNL     1      25.613  41.498  47.077  1.00  0.00     0.278 C 
BRANCH  33  34
HETATM   34  O   UNL     1      25.253  41.122  45.753  1.00  0.00    -0.342 OA
BRANCH  34  35
HETATM   35  C   UNL     1      26.263  41.120  44.831  1.00  0.00     0.069 A 
HETATM   36  C   UNL     1      26.229  41.746  43.584  1.00  0.00     0.037 A 
HETATM   37  C   UNL     1      27.326  41.655  42.722  1.00  0.00     0.003 A 
HETATM   38  C   UNL     1      28.461  40.940  43.103  1.00  0.00     0.000 A 
HETATM   39  C   UNL     1      28.496  40.306  44.343  1.00  0.00     0.003 A 
HETATM   40  C   UNL     1      27.397  40.390  45.200  1.00  0.00     0.037 A 
ENDBRANCH  34  35
ENDBRANCH  33  34
ENDBRANCH   8  33
TORSDOF 8
ENDMDL
MODEL 6
REMARK VINA RESULT:      -9.6      2.107      3.539
REMARK  8 active torsions:
REMARK  status: ('A' for Active; 'I' for Inactive)
REMARK    1  A    between atoms: C_2  and  N_3 
REMARK    2  A    between atoms: C_2  and  C_34 
REMARK       I    between atoms: N_3  and  C_4 
REMARK    3  A    between atoms: C_4  and  C_5 
REMARK    4  A    between atoms: C_5  and  N_6 
REMARK       I    between atoms: N_12  and  C_13 
REMARK    5  A    between atoms: C_13  and  C_14 
REMARK    6  A    between atoms: C_14  and  O_15 
REMARK    7  A    between atoms: O_15  and  C_16 
REMARK    8  A    between atoms: N_25  and  C_26 
ROOT
HETATM    1  N   UNL     1      25.321  45.505  52.084  1.00  0.00    -0.325 N 
HETATM    2  C   UNL     1      24.518  44.655  51.365  1.00  0.00     0.250 C 
HETATM    3  O   UNL     1      24.227  43.518  51.705  1.00  0.00    -0.270 OA
HETATM    4  C   UNL     1      24.123  45.381  50.061  1.00  0.00     0.118 C 
HETATM    5  C   UNL     1      22.626  45.179  49.814  1.00  0.00     0.061 C 
HETATM    6  C   UNL     1      22.295  43.789  49.272  1.00  0.00     0.129 C 
HETATM    7  N   UNL     1      23.189  43.374  48.195  1.00  0.00    -0.350 N 
HETATM    8  C   UNL     1      22.658  42.561  47.187  1.00  0.00     0.244 C 
HETATM    9  O   UNL     1      21.455  42.287  47.135  1.00  0.00    -0.271 OA
HETATM   10  C   UNL     1      24.615  43.438  48.500  1.00  0.00     0.129 C 
HETATM   11  C   UNL     1      25.034  44.830  48.951  1.00  0.00     0.061 C 
HETATM   12  N   UNL     1      24.476  46.795  50.393  1.00  0.00    -0.346 N 
HETATM   13  C   UNL     1      25.270  46.854  51.618  1.00  0.00     0.254 C 
ENDROOT
BRANCH  12  14
HETATM   14  C   UNL     1      24.365  47.922  49.597  1.00  0.00     0.032 A 
HETATM   15  C   UNL     1      23.138  48.439  49.154  1.00  0.00     0.029 A 
HETATM   16  C   UNL     1      23.044  49.574  48.336  1.00  0.00     0.002 A 
HETATM   17  C   UNL     1      24.189  50.248  47.938  1.00  0.00     0.000 A 
HETATM   18  C   UNL     1      25.423  49.785  48.367  1.00  0.00     0.002 A 
HETATM   19  C   UNL     1      25.503  48.647  49.183  1.00  0.00     0.029 A 
ENDBRANCH  12  14
BRANCH   1  20
HETATM   20  C   UNL     1      26.006  45.161  53.318  1.00  0.00     0.230 C 
BRANCH  20  21
HETATM   21  C   UNL     1      27.430  44.646  53.108  1.00  0.00     0.236 C 
HETATM   22  N   UNL     1      28.155  44.498  54.269  1.00  0.00    -0.351 N 
HETATM   23  H   UNL     1      27.620  44.556  55.129  1.00  0.00     0.163 HD
HETATM   24  O   UNL     1      27.823  44.317  51.992  1.00  0.00    -0.272 OA
BRANCH  22  25
HETATM   25  C   UNL     1      29.426  43.790  54.366  1.00  0.00     0.113 C 
HETATM   26  C   UNL     1      29.350  42.290  54.066  1.00  0.00     0.037 C 
BRANCH  25  27
HETATM   27  C   UNL     1      30.136  44.130  55.665  1.00  0.00    -0.036 A 
HETATM   28  C   UNL     1      29.793  45.301  56.362  1.00  0.00     0.009 A 
HETATM   29  C   UNL     1      30.416  45.623  57.570  1.00  0.00     0.001 A 
HETATM   30  C   UNL     1      31.383  44.776  58.106  1.00  0.00     0.000 A 
HETATM   31  C   UNL     1      31.727  43.606  57.433  1.00  0.00     0.001 A 
HETATM   32  C   UNL     1      31.106  43.284  56.224  1.00  0.00     0.009 A 
ENDBRANCH  25  27
ENDBRANCH  22  25
ENDBRANCH  20  21
ENDBRANCH   1  20
BRANCH   8  33
HETATM   33  C   UNL     1      23.613  41.982  46.140  1.00  0.00     0.278 C 
BRANCH  33  34
HETATM   34  O   UNL     1      22.970  41.921  44.872  1.00  0.00    -0.342 OA
BRANCH  34  35
HETATM   35  C   UNL     1      22.992  43.070  44.130  1.00  0.00     0.069 A 
HETATM   36  C   UNL     1      24.136  43.778  43.758  1.00  0.00     0.037 A 
HETATM   37  C   UNL     1      24.022  44.953  43.008  1.00  0.00     0.003 A 
HETATM   38  C   UNL     1      22.766  45.423  42.628  1.00  0.00     0.000 A 
HETATM   39  C   UNL     1      21.621  44.725  43.004  1.00  0.00     0.003 A 
HETATM   40  C   UNL     1      21.735  43.556  43.759  1.00  0.00     0.037 A 
ENDBRANCH  34  35
ENDBRANCH  33  34
ENDBRANCH   8  33
TORSDOF 8
ENDMDL
MODEL 7
REMARK VINA RESULT:      -9.3      1.588      3.122
REMARK  8 active torsions:
REMARK  status: ('A' for Active; 'I' for Inactive)
REMARK    1  A    between atoms: C_2  and  N_3 
REMARK    2  A    between atoms: C_2  and  C_34 
REMARK       I    between atoms: N_3  and  C_4 
REMARK    3  A    between atoms: C_4  and  C_5 
REMARK    4  A    between atoms: C_5  and  N_6 
REMARK       I    between atoms: N_12  and  C_13 
REMARK    5  A    between atoms: C_13  and  C_14 
REMARK    6  A    between atoms: C_14  and  O_15 
REMARK    7  A    between atoms: O_15  and  C_16 
REMARK    8  A    between atoms: N_25  and  C_26 
ROOT
HETATM    1  N   UNL     1      25.407  45.570  52.502  1.00  0.00    -0.325 N 
HETATM    2  C   UNL     1      24.609  44.860  51.640  1.00  0.00     0.250 C 
HETATM    3  O   UNL     1      23.999  43.843  51.934  1.00  0.00    -0.270 OA
HETATM    4  C   UNL     1      24.684  45.551  50.261  1.00  0.00     0.118 C 
HETATM    5  C   UNL     1      23.271  45.658  49.682  1.00  0.00     0.061 C 
HETATM    6  C   UNL     1      22.758  44.334  49.116  1.00  0.00     0.129 C 
HETATM    7  N   UNL     1      23.748  43.653  48.285  1.00  0.00    -0.350 N 
HETATM    8  C   UNL     1      23.278  42.897  47.205  1.00  0.00     0.244 C 
HETATM    9  O   UNL     1      22.086  42.887  46.884  1.00  0.00    -0.271 OA
HETATM   10  C   UNL     1      25.049  43.431  48.909  1.00  0.00     0.129 C 
HETATM   11  C   UNL     1      25.665  44.731  49.406  1.00  0.00     0.061 C 
HETATM   12  N   UNL     1      25.269  46.877  50.628  1.00  0.00    -0.346 N 
HETATM   13  C   UNL     1      25.769  46.858  52.001  1.00  0.00     0.254 C 
ENDROOT
BRANCH  12  14
HETATM   14  C   UNL     1      25.594  47.935  49.797  1.00  0.00     0.032 A 
HETATM   15  C   UNL     1      24.642  48.680  49.084  1.00  0.00     0.029 A 
HETATM   16  C   UNL     1      24.991  49.741  48.235  1.00  0.00     0.002 A 
HETATM   17  C   UNL     1      26.319  50.107  48.080  1.00  0.00     0.000 A 
HETATM   18  C   UNL     1      27.293  49.412  48.779  1.00  0.00     0.002 A 
HETATM   19  C   UNL     1      26.931  48.350  49.623  1.00  0.00     0.029 A 
ENDBRANCH  12  14
BRANCH   1  20
HETATM   20  C   UNL     1      25.710  45.184  53.869  1.00  0.00     0.230 C 
BRANCH  20  21
HETATM   21  C   UNL     1      27.045  44.455  54.021  1.00  0.00     0.236 C 
HETATM   22  N   UNL     1      26.953  43.084  53.934  1.00  0.00    -0.351 N 
HETATM   23  H   UNL     1      26.068  42.725  53.592  1.00  0.00     0.163 HD
HETATM   24  O   UNL     1      28.097  45.080  54.119  1.00  0.00    -0.272 OA
BRANCH  22  25
HETATM   25  C   UNL     1      28.094  42.186  53.789  1.00  0.00     0.113 C 
HETATM   26  C   UNL     1      29.460  42.845  54.004  1.00  0.00     0.037 C 
BRANCH  25  27
HETATM   27  C   UNL     1      27.987  41.381  52.505  1.00  0.00    -0.036 A 
HETATM   28  C   UNL     1      28.968  40.423  52.198  1.00  0.00     0.009 A 
HETATM   29  C   UNL     1      28.880  39.655  51.035  1.00  0.00     0.001 A 
HETATM   30  C   UNL     1      27.807  39.826  50.164  1.00  0.00     0.000 A 
HETATM   31  C   UNL     1      26.820  40.764  50.458  1.00  0.00     0.001 A 
HETATM   32  C   UNL     1      26.908  41.534  51.621  1.00  0.00     0.009 A 
ENDBRANCH  25  27
ENDBRANCH  22  25
ENDBRANCH  20  21
ENDBRANCH   1  20
BRANCH   8  33
HETATM   33  C   UNL     1      24.281  42.046  46.422  1.00  0.00     0.278 C 
BRANCH  33  34
HETATM   34  O   UNL     1      24.398  40.758  47.017  1.00  0.00    -0.342 OA
BRANCH  34  35
HETATM   35  C   UNL     1      25.623  40.155  46.913  1.00  0.00     0.069 A 
HETATM   36  C   UNL     1      26.827  40.802  46.631  1.00  0.00     0.037 A 
HETATM   37  C   UNL     1      28.013  40.066  46.536  1.00  0.00     0.003 A 
HETATM   38  C   UNL     1      27.999  38.685  46.723  1.00  0.00     0.000 A 
HETATM   39  C   UNL     1      26.798  38.034  46.996  1.00  0.00     0.003 A 
HETATM   40  C   UNL     1      25.613  38.768  47.083  1.00  0.00     0.037 A 
ENDBRANCH  34  35
ENDBRANCH  33  34
ENDBRANCH   8  33
TORSDOF 8
ENDMDL
MODEL 8
REMARK VINA RESULT:      -9.3      4.625      6.735
REMARK  8 active torsions:
REMARK  status: ('A' for Active; 'I' for Inactive)
REMARK    1  A    between atoms: C_2  and  N_3 
REMARK    2  A    between atoms: C_2  and  C_34 
REMARK       I    between atoms: N_3  and  C_4 
REMARK    3  A    between atoms: C_4  and  C_5 
REMARK    4  A    between atoms: C_5  and  N_6 
REMARK       I    between atoms: N_12  and  C_13 
REMARK    5  A    between atoms: C_13  and  C_14 
REMARK    6  A    between atoms: C_14  and  O_15 
REMARK    7  A    between atoms: O_15  and  C_16 
REMARK    8  A    between atoms: N_25  and  C_26 
ROOT
HETATM    1  N   UNL     1      23.951  45.159  49.220  1.00  0.00    -0.325 N 
HETATM    2  C   UNL     1      22.690  44.732  48.884  1.00  0.00     0.250 C 
HETATM    3  O   UNL     1      22.306  43.575  48.951  1.00  0.00    -0.270 OA
HETATM    4  C   UNL     1      21.907  45.959  48.368  1.00  0.00     0.118 C 
HETATM    5  C   UNL     1      20.510  45.956  48.995  1.00  0.00     0.061 C 
HETATM    6  C   UNL     1      19.569  44.942  48.346  1.00  0.00     0.129 C 
HETATM    7  N   UNL     1      19.623  44.973  46.887  1.00  0.00    -0.350 N 
HETATM    8  C   UNL     1      18.444  44.687  46.188  1.00  0.00     0.244 C 
HETATM    9  O   UNL     1      17.366  44.523  46.766  1.00  0.00    -0.271 OA
HETATM   10  C   UNL     1      20.953  44.830  46.302  1.00  0.00     0.129 C 
HETATM   11  C   UNL     1      21.918  45.880  46.833  1.00  0.00     0.061 C 
HETATM   12  N   UNL     1      22.765  47.082  48.855  1.00  0.00    -0.346 N 
HETATM   13  C   UNL     1      24.054  46.580  49.326  1.00  0.00     0.254 C 
ENDROOT
BRANCH  12  14
HETATM   14  C   UNL     1      22.586  48.443  48.679  1.00  0.00     0.032 A 
HETATM   15  C   UNL     1      23.617  49.318  48.303  1.00  0.00     0.029 A 
HETATM   16  C   UNL     1      23.420  50.698  48.141  1.00  0.00     0.002 A 
HETATM   17  C   UNL     1      22.166  51.254  48.342  1.00  0.00     0.000 A 
HETATM   18  C   UNL     1      21.113  50.426  48.696  1.00  0.00     0.002 A 
HETATM   19  C   UNL     1      21.323  49.049  48.856  1.00  0.00     0.029 A 
ENDBRANCH  12  14
BRANCH   1  20
HETATM   20  C   UNL     1      25.041  44.294  49.635  1.00  0.00     0.230 C 
BRANCH  20  21
HETATM   21  C   UNL     1      25.213  44.204  51.151  1.00  0.00     0.236 C 
HETATM   22  N   UNL     1      26.405  44.713  51.616  1.00  0.00    -0.351 N 
HETATM   23  H   UNL     1      26.940  45.256  50.947  1.00  0.00     0.163 HD
HETATM   24  O   UNL     1      24.304  43.790  51.865  1.00  0.00    -0.272 OA
BRANCH  22  25
HETATM   25  C   UNL     1      26.699  44.980  53.020  1.00  0.00     0.113 C 
HETATM   26  C   UNL     1      26.564  46.448  53.436  1.00  0.00     0.037 C 
BRANCH  25  27
HETATM   27  C   UNL     1      28.013  44.336  53.428  1.00  0.00    -0.036 A 
HETATM   28  C   UNL     1      28.544  44.583  54.705  1.00  0.00     0.009 A 
HETATM   29  C   UNL     1      29.739  43.986  55.111  1.00  0.00     0.001 A 
HETATM   30  C   UNL     1      30.418  43.125  54.252  1.00  0.00     0.000 A 
HETATM   31  C   UNL     1      29.899  42.861  52.986  1.00  0.00     0.001 A 
HETATM   32  C   UNL     1      28.705  43.459  52.579  1.00  0.00     0.009 A 
ENDBRANCH  25  27
ENDBRANCH  22  25
ENDBRANCH  20  21
ENDBRANCH   1  20
BRANCH   8  33
HETATM   33  C   UNL     1      18.516  44.554  44.664  1.00  0.00     0.278 C 
BRANCH  33  34
HETATM   34  O   UNL     1      17.922  43.329  44.253  1.00  0.00    -0.342 OA
BRANCH  34  35
HETATM   35  C   UNL     1      16.812  43.434  43.459  1.00  0.00     0.069 A 
HETATM   36  C   UNL     1      15.765  44.339  43.639  1.00  0.00     0.037 A 
HETATM   37  C   UNL     1      14.674  44.334  42.764  1.00  0.00     0.003 A 
HETATM   38  C   UNL     1      14.626  43.426  41.707  1.00  0.00     0.000 A 
HETATM   39  C   UNL     1      15.665  42.515  41.529  1.00  0.00     0.003 A 
HETATM   40  C   UNL     1      16.750  42.515  42.407  1.00  0.00     0.037 A 
ENDBRANCH  34  35
ENDBRANCH  33  34
ENDBRANCH   8  33
TORSDOF 8
ENDMDL
MODEL 9
REMARK VINA RESULT:      -9.2      2.297      3.090
REMARK  8 active torsions:
REMARK  status: ('A' for Active; 'I' for Inactive)
REMARK    1  A    between atoms: C_2  and  N_3 
REMARK    2  A    between atoms: C_2  and  C_34 
REMARK       I    between atoms: N_3  and  C_4 
REMARK    3  A    between atoms: C_4  and  C_5 
REMARK    4  A    between atoms: C_5  and  N_6 
REMARK       I    between atoms: N_12  and  C_13 
REMARK    5  A    between atoms: C_13  and  C_14 
REMARK    6  A    between atoms: C_14  and  O_15 
REMARK    7  A    between atoms: O_15  and  C_16 
REMARK    8  A    between atoms: N_25  and  C_26 
ROOT
HETATM    1  N   UNL     1      25.482  45.030  51.849  1.00  0.00    -0.325 N 
HETATM    2  C   UNL     1      24.448  44.471  51.139  1.00  0.00     0.250 C 
HETATM    3  O   UNL     1      23.876  43.435  51.441  1.00  0.00    -0.270 OA
HETATM    4  C   UNL     1      24.207  45.356  49.896  1.00  0.00     0.118 C 
HETATM    5  C   UNL     1      22.701  45.576  49.728  1.00  0.00     0.061 C 
HETATM    6  C   UNL     1      21.983  44.362  49.142  1.00  0.00     0.129 C 
HETATM    7  N   UNL     1      22.684  43.790  47.995  1.00  0.00    -0.350 N 
HETATM    8  C   UNL     1      21.909  43.211  46.984  1.00  0.00     0.244 C 
HETATM    9  O   UNL     1      20.675  43.273  46.990  1.00  0.00    -0.271 OA
HETATM   10  C   UNL     1      24.086  43.451  48.219  1.00  0.00     0.129 C 
HETATM   11  C   UNL     1      24.885  44.651  48.709  1.00  0.00     0.061 C 
HETATM   12  N   UNL     1      24.943  46.601  50.273  1.00  0.00    -0.346 N 
HETATM   13  C   UNL     1      25.777  46.370  51.450  1.00  0.00     0.254 C 
ENDROOT
BRANCH  12  14
HETATM   14  C   UNL     1      25.105  47.762  49.539  1.00  0.00     0.032 A 
HETATM   15  C   UNL     1      24.036  48.482  48.981  1.00  0.00     0.029 A 
HETATM   16  C   UNL     1      24.220  49.651  48.228  1.00  0.00     0.002 A 
HETATM   17  C   UNL     1      25.495  50.154  48.015  1.00  0.00     0.000 A 
HETATM   18  C   UNL     1      26.579  49.488  48.562  1.00  0.00     0.002 A 
HETATM   19  C   UNL     1      26.382  48.318  49.311  1.00  0.00     0.029 A 
ENDBRANCH  12  14
BRANCH   1  20
HETATM   20  C   UNL     1      26.102  44.441  53.022  1.00  0.00     0.230 C 
BRANCH  20  21
HETATM   21  C   UNL     1      27.610  44.234  52.882  1.00  0.00     0.236 C 
HETATM   22  N   UNL     1      28.304  44.311  54.068  1.00  0.00    -0.351 N 
HETATM   23  H   UNL     1      27.736  44.300  54.909  1.00  0.00     0.163 HD
HETATM   24  O   UNL     1      28.108  43.936  51.799  1.00  0.00    -0.272 OA
BRANCH  22  25
HETATM   25  C   UNL     1      29.693  43.901  54.243  1.00  0.00     0.113 C 
HETATM   26  C   UNL     1      29.989  42.453  53.839  1.00  0.00     0.037 C 
BRANCH  25  27
HETATM   27  C   UNL     1      30.197  44.276  55.625  1.00  0.00    -0.036 A 
HETATM   28  C   UNL     1      29.715  45.437  56.253  1.00  0.00     0.009 A 
HETATM   29  C   UNL     1      30.147  45.792  57.532  1.00  0.00     0.001 A 
HETATM   30  C   UNL     1      31.061  44.988  58.209  1.00  0.00     0.000 A 
HETATM   31  C   UNL     1      31.542  43.828  57.606  1.00  0.00     0.001 A 
HETATM   32  C   UNL     1      31.111  43.473  56.325  1.00  0.00     0.009 A 
ENDBRANCH  25  27
ENDBRANCH  22  25
ENDBRANCH  20  21
ENDBRANCH   1  20
BRANCH   8  33
HETATM   33  C   UNL     1      22.625  42.463  45.856  1.00  0.00     0.278 C 
BRANCH  33  34
HETATM   34  O   UNL     1      21.715  41.594  45.192  1.00  0.00    -0.342 OA
BRANCH  34  35
HETATM   35  C   UNL     1      21.566  40.347  45.735  1.00  0.00     0.069 A 
HETATM   36  C   UNL     1      22.605  39.506  46.140  1.00  0.00     0.037 A 
HETATM   37  C   UNL     1      22.320  38.243  46.667  1.00  0.00     0.003 A 
HETATM   38  C   UNL     1      20.999  37.816  46.793  1.00  0.00     0.000 A 
HETATM   39  C   UNL     1      19.959  38.648  46.383  1.00  0.00     0.003 A 
HETATM   40  C   UNL     1      20.245  39.906  45.849  1.00  0.00     0.037 A 
ENDBRANCH  34  35
ENDBRANCH  33  34
ENDBRANCH   8  33
TORSDOF 8
ENDMDL
MODEL 10
REMARK VINA RESULT:      -9.2      2.731      7.533
REMARK  8 active torsions:
REMARK  status: ('A' for Active; 'I' for Inactive)
REMARK    1  A    between atoms: C_2  and  N_3 
REMARK    2  A    between atoms: C_2  and  C_34 
REMARK       I    between atoms: N_3  and  C_4 
REMARK    3  A    between atoms: C_4  and  C_5 
REMARK    4  A    between atoms: C_5  and  N_6 
REMARK       I    between atoms: N_12  and  C_13 
REMARK    5  A    between atoms: C_13  and  C_14 
REMARK    6  A    between atoms: C_14  and  O_15 
REMARK    7  A    between atoms: O_15  and  C_16 
REMARK    8  A    between atoms: N_25  and  C_26 
ROOT
HETATM    1  N   UNL     1      21.107  45.289  47.690  1.00  0.00    -0.325 N 
HETATM    2  C   UNL     1      21.790  44.432  48.516  1.00  0.00     0.250 C 
HETATM    3  O   UNL     1      21.533  44.249  49.697  1.00  0.00    -0.270 OA
HETATM    4  C   UNL     1      22.942  43.814  47.695  1.00  0.00     0.118 C 
HETATM    5  C   UNL     1      22.994  42.308  47.967  1.00  0.00     0.061 C 
HETATM    6  C   UNL     1      23.625  41.969  49.317  1.00  0.00     0.129 C 
HETATM    7  N   UNL     1      24.855  42.714  49.569  1.00  0.00    -0.350 N 
HETATM    8  C   UNL     1      25.856  42.081  50.314  1.00  0.00     0.244 C 
HETATM    9  O   UNL     1      25.766  40.898  50.657  1.00  0.00    -0.271 OA
HETATM   10  C   UNL     1      24.750  44.165  49.444  1.00  0.00     0.129 C 
HETATM   11  C   UNL     1      24.221  44.576  48.078  1.00  0.00     0.061 C 
HETATM   12  N   UNL     1      22.517  44.142  46.299  1.00  0.00    -0.346 N 
HETATM   13  C   UNL     1      21.418  45.104  46.308  1.00  0.00     0.254 C 
ENDROOT
BRANCH  12  14
HETATM   14  C   UNL     1      23.168  43.860  45.111  1.00  0.00     0.032 A 
HETATM   15  C   UNL     1      23.814  42.640  44.853  1.00  0.00     0.029 A 
HETATM   16  C   UNL     1      24.481  42.376  43.647  1.00  0.00     0.002 A 
HETATM   17  C   UNL     1      24.514  43.330  42.641  1.00  0.00     0.000 A 
HETATM   18  C   UNL     1      23.874  44.542  42.844  1.00  0.00     0.002 A 
HETATM   19  C   UNL     1      23.213  44.795  44.055  1.00  0.00     0.029 A 
ENDBRANCH  12  14
BRANCH   1  20
HETATM   20  C   UNL     1      20.026  46.165  48.106  1.00  0.00     0.230 C 
BRANCH  20  21
HETATM   21  C   UNL     1      20.502  47.463  48.758  1.00  0.00     0.236 C 
HETATM   22  N   UNL     1      21.769  47.852  48.385  1.00  0.00    -0.351 N 
HETATM   23  H   UNL     1      22.162  47.357  47.591  1.00  0.00     0.163 HD
HETATM   24  O   UNL     1      19.753  48.119  49.476  1.00  0.00    -0.272 OA
BRANCH  22  25
HETATM   25  C   UNL     1      22.345  49.164  48.657  1.00  0.00     0.113 C 
HETATM   26  C   UNL     1      21.867  50.280  47.725  1.00  0.00     0.037 C 
BRANCH  25  27
HETATM   27  C   UNL     1      23.855  49.072  48.794  1.00  0.00    -0.036 A 
HETATM   28  C   UNL     1      24.423  48.076  49.606  1.00  0.00     0.009 A 
HETATM   29  C   UNL     1      25.809  47.958  49.730  1.00  0.00     0.001 A 
HETATM   30  C   UNL     1      26.650  48.827  49.039  1.00  0.00     0.000 A 
HETATM   31  C   UNL     1      26.103  49.813  48.221  1.00  0.00     0.001 A 
HETATM   32  C   UNL     1      24.717  49.933  48.097  1.00  0.00     0.009 A 
ENDBRANCH  25  27
ENDBRANCH  22  25
ENDBRANCH  20  21
ENDBRANCH   1  20
BRANCH   8  33
HETATM   33  C   UNL     1      27.083  42.898  50.728  1.00  0.00     0.278 C 
BRANCH  33  34
HETATM   34  O   UNL     1      26.952  43.325  52.079  1.00  0.00    -0.342 OA
BRANCH  34  35
HETATM   35  C   UNL     1      28.095  43.304  52.832  1.00  0.00     0.069 A 
HETATM   36  C   UNL     1      29.254  42.587  52.531  1.00  0.00     0.037 A 
HETATM   37  C   UNL     1      30.354  42.636  53.394  1.00  0.00     0.003 A 
HETATM   38  C   UNL     1      30.298  43.401  54.559  1.00  0.00     0.000 A 
HETATM   39  C   UNL     1      29.139  44.110  54.868  1.00  0.00     0.003 A 
HETATM   40  C   UNL     1      28.040  44.055  54.010  1.00  0.00     0.037 A 
ENDBRANCH  34  35
ENDBRANCH  33  34
ENDBRANCH   8  33
TORSDOF 8
ENDMDL
