MODEL 1
REMARK VINA RESULT:     -10.1      0.000      0.000
REMARK  5 active torsions:
REMARK  status: ('A' for Active; 'I' for Inactive)
REMARK    1  A    between atoms: C_7  and  C_8 
REMARK    2  A    between atoms: C_10  and  N_11 
REMARK       I    between atoms: N_11  and  C_12 
REMARK    3  A    between atoms: C_12  and  C_13 
REMARK    4  A    between atoms: C_15  and  O_16 
REMARK    5  A    between atoms: C_19  and  O_20 
ROOT
HETATM    1  C   UNL     1      24.519  49.263  48.872  1.00  0.00     0.019 A 
HETATM    2  C   UNL     1      24.790  48.191  49.739  1.00  0.00     0.045 A 
HETATM    3  C   UNL     1      26.100  47.785  50.017  1.00  0.00     0.035 A 
HETATM    4  C   UNL     1      27.157  48.469  49.411  1.00  0.00     0.029 A 
HETATM    5  C   UNL     1      26.906  49.529  48.534  1.00  0.00     0.003 A 
HETATM    6  C   UNL     1      25.594  49.924  48.268  1.00  0.00     0.016 A 
ENDROOT
BRANCH   3   7
HETATM    7  N   UNL     1      26.412  46.750  50.931  1.00  0.00    -0.323 N 
HETATM    8  C   UNL     1      26.141  46.757  52.292  1.00  0.00     0.256 C 
HETATM    9  O   UNL     1      25.393  47.555  52.849  1.00  0.00    -0.267 OA
HETATM   10  H   UNL     1      26.853  45.939  50.526  1.00  0.00     0.169 HD
BRANCH   8  11
HETATM   11  C   UNL     1      26.805  45.719  53.148  1.00  0.00     0.037 A 
HETATM   12  C   UNL     1      27.436  46.184  54.319  1.00  0.00     0.054 A 
HETATM   13  C   UNL     1      28.133  45.314  55.153  1.00  0.00     0.071 A 
HETATM   14  C   UNL     1      28.190  43.962  54.819  1.00  0.00     0.073 A 
HETATM   15  C   UNL     1      27.564  43.475  53.668  1.00  0.00     0.071 A 
HETATM   16  C   UNL     1      26.874  44.355  52.829  1.00  0.00     0.054 A 
BRANCH  13  17
HETATM   17  O   UNL     1      28.795  45.659  56.297  1.00  0.00    -0.356 OA
HETATM   18  C   UNL     1      30.170  45.299  56.379  1.00  0.00     0.210 C 
ENDBRANCH  13  17
BRANCH  15  19
HETATM   19  O   UNL     1      27.712  42.129  53.476  1.00  0.00    -0.356 OA
HETATM   20  C   UNL     1      28.771  41.697  52.632  1.00  0.00     0.210 C 
ENDBRANCH  15  19
ENDBRANCH   8  11
ENDBRANCH   3   7
BRANCH   1  21
HETATM   21  C   UNL     1      23.146  49.708  48.632  1.00  0.00     0.181 A 
HETATM   22  N   UNL     1      22.421  49.648  47.528  1.00  0.00    -0.221 NA
HETATM   23  C   UNL     1      21.245  50.267  47.879  1.00  0.00     0.093 A 
HETATM   24  C   UNL     1      21.302  50.670  49.200  1.00  0.00     0.107 A 
HETATM   25  C   UNL     1      20.086  50.544  47.143  1.00  0.00     0.035 A 
HETATM   26  C   UNL     1      20.287  51.335  49.879  1.00  0.00     0.046 A 
HETATM   27  O   UNL     1      22.517  50.311  49.693  1.00  0.00    -0.289 OA
HETATM   28  C   UNL     1      19.124  51.604  49.141  1.00  0.00    -0.059 A 
HETATM   29  C   UNL     1      17.999  52.362  49.787  1.00  0.00     0.048 C 
HETATM   30  C   UNL     1      19.036  51.221  47.789  1.00  0.00     0.009 A 
ENDBRANCH   1  21
TORSDOF 5
ENDMDL
MODEL 2
REMARK VINA RESULT:      -9.9      0.238      2.060
REMARK  5 active torsions:
REMARK  status: ('A' for Active; 'I' for Inactive)
REMARK    1  A    between atoms: C_7  and  C_8 
REMARK    2  A    between atoms: C_10  and  N_11 
REMARK       I    between atoms: N_11  and  C_12 
REMARK    3  A    between atoms: C_12  and  C_13 
REMARK    4  A    between atoms: C_15  and  O_16 
REMARK    5  A    between atoms: C_19  and  O_20 
ROOT
HETATM    1  C   UNL     1      24.485  49.332  48.807  1.00  0.00     0.019 A 
HETATM    2  C   UNL     1      24.789  48.297  49.707  1.00  0.00     0.045 A 
HETATM    3  C   UNL     1      26.110  47.920  49.974  1.00  0.00     0.035 A 
HETATM    4  C   UNL     1      27.145  48.597  49.324  1.00  0.00     0.029 A 
HETATM    5  C   UNL     1      26.861  49.620  48.414  1.00  0.00     0.003 A 
HETATM    6  C   UNL     1      25.538  49.986  48.159  1.00  0.00     0.016 A 
ENDROOT
BRANCH   3   7
HETATM    7  N   UNL     1      26.455  46.924  50.919  1.00  0.00    -0.323 N 
HETATM    8  C   UNL     1      26.137  46.939  52.270  1.00  0.00     0.256 C 
HETATM    9  O   UNL     1      25.322  47.698  52.786  1.00  0.00    -0.267 OA
HETATM   10  H   UNL     1      26.959  46.136  50.546  1.00  0.00     0.169 HD
BRANCH   8  11
HETATM   11  C   UNL     1      26.836  45.961  53.169  1.00  0.00     0.037 A 
HETATM   12  C   UNL     1      26.847  44.618  52.744  1.00  0.00     0.054 A 
HETATM   13  C   UNL     1      27.416  43.621  53.532  1.00  0.00     0.071 A 
HETATM   14  C   UNL     1      27.989  43.972  54.752  1.00  0.00     0.073 A 
HETATM   15  C   UNL     1      27.998  45.299  55.191  1.00  0.00     0.071 A 
HETATM   16  C   UNL     1      27.417  46.295  54.401  1.00  0.00     0.054 A 
BRANCH  13  17
HETATM   17  O   UNL     1      27.464  42.290  53.228  1.00  0.00    -0.356 OA
HETATM   18  C   UNL     1      28.701  41.621  53.455  1.00  0.00     0.210 C 
ENDBRANCH  13  17
BRANCH  15  19
HETATM   19  O   UNL     1      28.595  45.483  56.408  1.00  0.00    -0.356 OA
HETATM   20  C   UNL     1      30.006  45.656  56.431  1.00  0.00     0.210 C 
ENDBRANCH  15  19
ENDBRANCH   8  11
ENDBRANCH   3   7
BRANCH   1  21
HETATM   21  C   UNL     1      23.101  49.747  48.578  1.00  0.00     0.181 A 
HETATM   22  N   UNL     1      22.355  49.633  47.491  1.00  0.00    -0.221 NA
HETATM   23  C   UNL     1      21.178  50.249  47.841  1.00  0.00     0.093 A 
HETATM   24  C   UNL     1      21.254  50.705  49.144  1.00  0.00     0.107 A 
HETATM   25  C   UNL     1      20.000  50.480  47.118  1.00  0.00     0.035 A 
HETATM   26  C   UNL     1      20.243  51.381  49.817  1.00  0.00     0.046 A 
HETATM   27  O   UNL     1      22.483  50.383  49.626  1.00  0.00    -0.289 OA
HETATM   28  C   UNL     1      19.062  51.604  49.092  1.00  0.00    -0.059 A 
HETATM   29  C   UNL     1      17.938  52.371  49.731  1.00  0.00     0.048 C 
HETATM   30  C   UNL     1      18.953  51.167  47.758  1.00  0.00     0.009 A 
ENDBRANCH   1  21
TORSDOF 5
ENDMDL
MODEL 3
REMARK VINA RESULT:      -9.4      2.870     10.268
REMARK  5 active torsions:
REMARK  status: ('A' for Active; 'I' for Inactive)
REMARK    1  A    between atoms: C_7  and  C_8 
REMARK    2  A    between atoms: C_10  and  N_11 
REMARK       I    between atoms: N_11  and  C_12 
REMARK    3  A    between atoms: C_12  and  C_13 
REMARK    4  A    between atoms: C_15  and  O_16 
REMARK    5  A    between atoms: C_19  and  O_20 
ROOT
HETATM    1  C   UNL     1      28.234  42.974  52.314  1.00  0.00     0.019 A 
HETATM    2  C   UNL     1      27.277  43.871  51.810  1.00  0.00     0.045 A 
HETATM    3  C   UNL     1      26.493  43.558  50.695  1.00  0.00     0.035 A 
HETATM    4  C   UNL     1      26.673  42.319  50.074  1.00  0.00     0.029 A 
HETATM    5  C   UNL     1      27.632  41.419  50.552  1.00  0.00     0.003 A 
HETATM    6  C   UNL     1      28.406  41.745  51.667  1.00  0.00     0.016 A 
ENDROOT
BRANCH   3   7
HETATM    7  N   UNL     1      25.478  44.411  50.197  1.00  0.00    -0.323 N 
HETATM    8  C   UNL     1      25.673  45.666  49.637  1.00  0.00     0.256 C 
HETATM    9  O   UNL     1      26.763  46.111  49.288  1.00  0.00    -0.267 OA
HETATM   10  H   UNL     1      24.543  44.041  50.249  1.00  0.00     0.169 HD
BRANCH   8  11
HETATM   11  C   UNL     1      24.473  46.545  49.443  1.00  0.00     0.037 A 
HETATM   12  C   UNL     1      23.347  45.944  48.846  1.00  0.00     0.054 A 
HETATM   13  C   UNL     1      22.202  46.683  48.566  1.00  0.00     0.071 A 
HETATM   14  C   UNL     1      22.178  48.037  48.895  1.00  0.00     0.073 A 
HETATM   15  C   UNL     1      23.279  48.654  49.496  1.00  0.00     0.071 A 
HETATM   16  C   UNL     1      24.429  47.909  49.767  1.00  0.00     0.054 A 
BRANCH  13  17
HETATM   17  O   UNL     1      21.065  46.209  47.974  1.00  0.00    -0.356 OA
HETATM   18  C   UNL     1      20.304  45.257  48.710  1.00  0.00     0.210 C 
ENDBRANCH  13  17
BRANCH  15  19
HETATM   19  O   UNL     1      23.102  49.986  49.756  1.00  0.00    -0.356 OA
HETATM   20  C   UNL     1      23.143  50.883  48.653  1.00  0.00     0.210 C 
ENDBRANCH  15  19
ENDBRANCH   8  11
ENDBRANCH   3   7
BRANCH   1  21
HETATM   21  C   UNL     1      29.010  43.296  53.511  1.00  0.00     0.181 A 
HETATM   22  N   UNL     1      29.963  42.602  54.111  1.00  0.00    -0.221 NA
HETATM   23  C   UNL     1      30.276  43.364  55.211  1.00  0.00     0.093 A 
HETATM   24  C   UNL     1      29.500  44.509  55.226  1.00  0.00     0.107 A 
HETATM   25  C   UNL     1      31.189  43.160  56.253  1.00  0.00     0.035 A 
HETATM   26  C   UNL     1      29.551  45.498  56.201  1.00  0.00     0.046 A 
HETATM   27  O   UNL     1      28.688  44.475  54.136  1.00  0.00    -0.289 OA
HETATM   28  C   UNL     1      30.473  45.293  57.240  1.00  0.00    -0.059 A 
HETATM   29  C   UNL     1      30.556  46.292  58.359  1.00  0.00     0.048 C 
HETATM   30  C   UNL     1      31.270  44.133  57.265  1.00  0.00     0.009 A 
ENDBRANCH   1  21
TORSDOF 5
ENDMDL
MODEL 4
REMARK VINA RESULT:      -9.4      1.971      9.985
REMARK  5 active torsions:
REMARK  status: ('A' for Active; 'I' for Inactive)
REMARK    1  A    between atoms: C_7  and  C_8 
REMARK    2  A    between atoms: C_10  and  N_11 
REMARK       I    between atoms: N_11  and  C_12 
REMARK    3  A    between atoms: C_12  and  C_13 
REMARK    4  A    between atoms: C_15  and  O_16 
REMARK    5  A    between atoms: C_19  and  O_20 
ROOT
HETATM    1  C   UNL     1      25.974  47.818  50.164  1.00  0.00     0.019 A 
HETATM    2  C   UNL     1      24.698  48.291  49.817  1.00  0.00     0.045 A 
HETATM    3  C   UNL     1      24.521  49.288  48.852  1.00  0.00     0.035 A 
HETATM    4  C   UNL     1      25.650  49.820  48.223  1.00  0.00     0.029 A 
HETATM    5  C   UNL     1      26.930  49.372  48.565  1.00  0.00     0.003 A 
HETATM    6  C   UNL     1      27.090  48.375  49.529  1.00  0.00     0.016 A 
ENDROOT
BRANCH   3   7
HETATM    7  N   UNL     1      23.248  49.745  48.435  1.00  0.00    -0.323 N 
HETATM    8  C   UNL     1      22.397  50.562  49.166  1.00  0.00     0.256 C 
HETATM    9  O   UNL     1      22.724  51.185  50.172  1.00  0.00    -0.267 OA
HETATM   10  H   UNL     1      22.968  49.452  47.512  1.00  0.00     0.169 HD
BRANCH   8  11
HETATM   11  C   UNL     1      20.977  50.698  48.700  1.00  0.00     0.037 A 
HETATM   12  C   UNL     1      20.028  51.049  49.679  1.00  0.00     0.054 A 
HETATM   13  C   UNL     1      18.675  51.144  49.367  1.00  0.00     0.071 A 
HETATM   14  C   UNL     1      18.268  50.895  48.058  1.00  0.00     0.073 A 
HETATM   15  C   UNL     1      19.192  50.555  47.066  1.00  0.00     0.071 A 
HETATM   16  C   UNL     1      20.548  50.452  47.387  1.00  0.00     0.054 A 
BRANCH  13  17
HETATM   17  O   UNL     1      17.670  51.456  50.239  1.00  0.00    -0.356 OA
HETATM   18  C   UNL     1      16.852  52.572  49.906  1.00  0.00     0.210 C 
ENDBRANCH  13  17
BRANCH  15  19
HETATM   19  O   UNL     1      18.638  50.339  45.834  1.00  0.00    -0.356 OA
HETATM   20  C   UNL     1      17.655  51.263  45.383  1.00  0.00     0.210 C 
ENDBRANCH  15  19
ENDBRANCH   8  11
ENDBRANCH   3   7
BRANCH   1  21
HETATM   21  C   UNL     1      26.138  46.739  51.139  1.00  0.00     0.181 A 
HETATM   22  N   UNL     1      25.781  46.691  52.411  1.00  0.00    -0.221 NA
HETATM   23  C   UNL     1      26.242  45.466  52.831  1.00  0.00     0.093 A 
HETATM   24  C   UNL     1      26.855  44.809  51.779  1.00  0.00     0.107 A 
HETATM   25  C   UNL     1      26.199  44.836  54.081  1.00  0.00     0.035 A 
HETATM   26  C   UNL     1      27.439  43.550  51.853  1.00  0.00     0.046 A 
HETATM   27  O   UNL     1      26.789  45.617  50.689  1.00  0.00    -0.289 OA
HETATM   28  C   UNL     1      27.388  42.919  53.106  1.00  0.00    -0.059 A 
HETATM   29  C   UNL     1      28.040  41.576  53.282  1.00  0.00     0.048 C 
HETATM   30  C   UNL     1      26.784  43.563  54.202  1.00  0.00     0.009 A 
ENDBRANCH   1  21
TORSDOF 5
ENDMDL
MODEL 5
REMARK VINA RESULT:      -9.3      2.723     10.078
REMARK  5 active torsions:
REMARK  status: ('A' for Active; 'I' for Inactive)
REMARK    1  A    between atoms: C_7  and  C_8 
REMARK    2  A    between atoms: C_10  and  N_11 
REMARK       I    between atoms: N_11  and  C_12 
REMARK    3  A    between atoms: C_12  and  C_13 
REMARK    4  A    between atoms: C_15  and  O_16 
REMARK    5  A    between atoms: C_19  and  O_20 
ROOT
HETATM    1  C   UNL     1      28.233  42.977  52.085  1.00  0.00     0.019 A 
HETATM    2  C   UNL     1      27.312  43.895  51.551  1.00  0.00     0.045 A 
HETATM    3  C   UNL     1      26.537  43.588  50.427  1.00  0.00     0.035 A 
HETATM    4  C   UNL     1      26.690  42.335  49.828  1.00  0.00     0.029 A 
HETATM    5  C   UNL     1      27.612  41.414  50.337  1.00  0.00     0.003 A 
HETATM    6  C   UNL     1      28.377  41.734  51.460  1.00  0.00     0.016 A 
ENDROOT
BRANCH   3   7
HETATM    7  N   UNL     1      25.558  44.464  49.899  1.00  0.00    -0.323 N 
HETATM    8  C   UNL     1      25.758  45.792  49.550  1.00  0.00     0.256 C 
HETATM    9  O   UNL     1      26.859  46.324  49.435  1.00  0.00    -0.267 OA
HETATM   10  H   UNL     1      24.649  44.055  49.757  1.00  0.00     0.169 HD
BRANCH   8  11
HETATM   11  C   UNL     1      24.549  46.644  49.293  1.00  0.00     0.037 A 
HETATM   12  C   UNL     1      24.722  48.035  49.435  1.00  0.00     0.054 A 
HETATM   13  C   UNL     1      23.652  48.910  49.279  1.00  0.00     0.071 A 
HETATM   14  C   UNL     1      22.397  48.391  48.965  1.00  0.00     0.073 A 
HETATM   15  C   UNL     1      22.203  47.016  48.810  1.00  0.00     0.071 A 
HETATM   16  C   UNL     1      23.279  46.140  48.978  1.00  0.00     0.054 A 
BRANCH  13  17
HETATM   17  O   UNL     1      23.702  50.270  49.413  1.00  0.00    -0.356 OA
HETATM   18  C   UNL     1      22.776  51.028  48.642  1.00  0.00     0.210 C 
ENDBRANCH  13  17
BRANCH  15  19
HETATM   19  O   UNL     1      20.917  46.662  48.506  1.00  0.00    -0.356 OA
HETATM   20  C   UNL     1      19.884  47.578  48.847  1.00  0.00     0.210 C 
ENDBRANCH  15  19
ENDBRANCH   8  11
ENDBRANCH   3   7
BRANCH   1  21
HETATM   21  C   UNL     1      28.998  43.294  53.290  1.00  0.00     0.181 A 
HETATM   22  N   UNL     1      29.977  42.619  53.870  1.00  0.00    -0.221 NA
HETATM   23  C   UNL     1      30.263  43.362  54.990  1.00  0.00     0.093 A 
HETATM   24  C   UNL     1      29.445  44.476  55.038  1.00  0.00     0.107 A 
HETATM   25  C   UNL     1      31.185  43.162  56.026  1.00  0.00     0.035 A 
HETATM   26  C   UNL     1      29.461  45.438  56.040  1.00  0.00     0.046 A 
HETATM   27  O   UNL     1      28.633  44.443  53.948  1.00  0.00    -0.289 OA
HETATM   28  C   UNL     1      30.391  45.239  57.072  1.00  0.00    -0.059 A 
HETATM   29  C   UNL     1      30.439  46.209  58.219  1.00  0.00     0.048 C 
HETATM   30  C   UNL     1      31.231  44.109  57.065  1.00  0.00     0.009 A 
ENDBRANCH   1  21
TORSDOF 5
ENDMDL
MODEL 6
REMARK VINA RESULT:      -9.1      2.019      9.957
REMARK  5 active torsions:
REMARK  status: ('A' for Active; 'I' for Inactive)
REMARK    1  A    between atoms: C_7  and  C_8 
REMARK    2  A    between atoms: C_10  and  N_11 
REMARK       I    between atoms: N_11  and  C_12 
REMARK    3  A    between atoms: C_12  and  C_13 
REMARK    4  A    between atoms: C_15  and  O_16 
REMARK    5  A    between atoms: C_19  and  O_20 
ROOT
HETATM    1  C   UNL     1      25.943  48.045  49.414  1.00  0.00     0.019 A 
HETATM    2  C   UNL     1      24.592  48.407  49.279  1.00  0.00     0.045 A 
HETATM    3  C   UNL     1      24.208  49.574  48.611  1.00  0.00     0.035 A 
HETATM    4  C   UNL     1      25.200  50.394  48.068  1.00  0.00     0.029 A 
HETATM    5  C   UNL     1      26.551  50.058  48.205  1.00  0.00     0.003 A 
HETATM    6  C   UNL     1      26.919  48.889  48.873  1.00  0.00     0.016 A 
ENDROOT
BRANCH   3   7
HETATM    7  N   UNL     1      22.856  49.938  48.404  1.00  0.00    -0.323 N 
HETATM    8  C   UNL     1      22.008  50.494  49.352  1.00  0.00     0.256 C 
HETATM    9  O   UNL     1      22.375  50.957  50.429  1.00  0.00    -0.267 OA
HETATM   10  H   UNL     1      22.509  49.788  47.470  1.00  0.00     0.169 HD
BRANCH   8  11
HETATM   11  C   UNL     1      20.539  50.536  49.047  1.00  0.00     0.037 A 
HETATM   12  C   UNL     1      20.148  50.043  47.786  1.00  0.00     0.054 A 
HETATM   13  C   UNL     1      18.818  50.090  47.379  1.00  0.00     0.071 A 
HETATM   14  C   UNL     1      17.867  50.625  48.245  1.00  0.00     0.073 A 
HETATM   15  C   UNL     1      18.229  51.112  49.504  1.00  0.00     0.071 A 
HETATM   16  C   UNL     1      19.568  51.071  49.904  1.00  0.00     0.054 A 
BRANCH  13  17
HETATM   17  O   UNL     1      18.332  49.660  46.176  1.00  0.00    -0.356 OA
HETATM   18  C   UNL     1      16.923  49.488  46.074  1.00  0.00     0.210 C 
ENDBRANCH  13  17
BRANCH  15  19
HETATM   19  O   UNL     1      17.185  51.607  50.235  1.00  0.00    -0.356 OA
HETATM   20  C   UNL     1      16.703  52.903  49.902  1.00  0.00     0.210 C 
ENDBRANCH  15  19
ENDBRANCH   8  11
ENDBRANCH   3   7
BRANCH   1  21
HETATM   21  C   UNL     1      26.326  46.796  50.071  1.00  0.00     0.181 A 
HETATM   22  N   UNL     1      26.730  45.653  49.541  1.00  0.00    -0.221 NA
HETATM   23  C   UNL     1      26.884  44.828  50.629  1.00  0.00     0.093 A 
HETATM   24  C   UNL     1      26.575  45.516  51.789  1.00  0.00     0.107 A 
HETATM   25  C   UNL     1      27.265  43.484  50.729  1.00  0.00     0.035 A 
HETATM   26  C   UNL     1      26.617  44.982  53.071  1.00  0.00     0.046 A 
HETATM   27  O   UNL     1      26.221  46.780  51.440  1.00  0.00    -0.289 OA
HETATM   28  C   UNL     1      27.006  43.637  53.168  1.00  0.00    -0.059 A 
HETATM   29  C   UNL     1      27.030  42.971  54.515  1.00  0.00     0.048 C 
HETATM   30  C   UNL     1      27.315  42.901  52.008  1.00  0.00     0.009 A 
ENDBRANCH   1  21
TORSDOF 5
ENDMDL
MODEL 7
REMARK VINA RESULT:      -9.0      2.342     10.210
REMARK  5 active torsions:
REMARK  status: ('A' for Active; 'I' for Inactive)
REMARK    1  A    between atoms: C_7  and  C_8 
REMARK    2  A    between atoms: C_10  and  N_11 
REMARK       I    between atoms: N_11  and  C_12 
REMARK    3  A    between atoms: C_12  and  C_13 
REMARK    4  A    between atoms: C_15  and  O_16 
REMARK    5  A    between atoms: C_19  and  O_20 
ROOT
HETATM    1  C   UNL     1      27.223  44.192  51.681  1.00  0.00     0.019 A 
HETATM    2  C   UNL     1      26.314  45.130  51.162  1.00  0.00     0.045 A 
HETATM    3  C   UNL     1      25.628  44.903  49.964  1.00  0.00     0.035 A 
HETATM    4  C   UNL     1      25.860  43.711  49.274  1.00  0.00     0.029 A 
HETATM    5  C   UNL     1      26.771  42.771  49.768  1.00  0.00     0.003 A 
HETATM    6  C   UNL     1      27.447  43.011  50.965  1.00  0.00     0.016 A 
ENDROOT
BRANCH   3   7
HETATM    7  N   UNL     1      24.663  45.798  49.443  1.00  0.00    -0.323 N 
HETATM    8  C   UNL     1      24.587  47.158  49.708  1.00  0.00     0.256 C 
HETATM    9  O   UNL     1      25.476  47.814  50.244  1.00  0.00    -0.267 OA
HETATM   10  H   UNL     1      23.995  45.387  48.811  1.00  0.00     0.169 HD
BRANCH   8  11
HETATM   11  C   UNL     1      23.334  47.884  49.314  1.00  0.00     0.037 A 
HETATM   12  C   UNL     1      22.324  47.108  48.713  1.00  0.00     0.054 A 
HETATM   13  C   UNL     1      21.146  47.693  48.256  1.00  0.00     0.071 A 
HETATM   14  C   UNL     1      20.971  49.066  48.412  1.00  0.00     0.073 A 
HETATM   15  C   UNL     1      21.955  49.856  49.014  1.00  0.00     0.071 A 
HETATM   16  C   UNL     1      23.140  49.266  49.462  1.00  0.00     0.054 A 
BRANCH  13  17
HETATM   17  O   UNL     1      20.113  47.041  47.643  1.00  0.00    -0.356 OA
HETATM   18  C   UNL     1      19.489  45.990  48.374  1.00  0.00     0.210 C 
ENDBRANCH  13  17
BRANCH  15  19
HETATM   19  O   UNL     1      21.638  51.184  49.092  1.00  0.00    -0.356 OA
HETATM   20  C   UNL     1      20.364  51.587  48.604  1.00  0.00     0.210 C 
ENDBRANCH  15  19
ENDBRANCH   8  11
ENDBRANCH   3   7
BRANCH   1  21
HETATM   21  C   UNL     1      27.893  44.422  52.961  1.00  0.00     0.181 A 
HETATM   22  N   UNL     1      27.698  45.377  53.855  1.00  0.00    -0.221 NA
HETATM   23  C   UNL     1      28.650  45.122  54.813  1.00  0.00     0.093 A 
HETATM   24  C   UNL     1      29.383  44.003  54.462  1.00  0.00     0.107 A 
HETATM   25  C   UNL     1      28.974  45.790  56.001  1.00  0.00     0.035 A 
HETATM   26  C   UNL     1      30.431  43.468  55.201  1.00  0.00     0.046 A 
HETATM   27  O   UNL     1      28.900  43.545  53.277  1.00  0.00    -0.289 OA
HETATM   28  C   UNL     1      30.748  44.136  56.395  1.00  0.00    -0.059 A 
HETATM   29  C   UNL     1      31.901  43.649  57.228  1.00  0.00     0.048 C 
HETATM   30  C   UNL     1      30.033  45.286  56.777  1.00  0.00     0.009 A 
ENDBRANCH   1  21
TORSDOF 5
ENDMDL
MODEL 8
REMARK VINA RESULT:      -8.9      4.873      9.958
REMARK  5 active torsions:
REMARK  status: ('A' for Active; 'I' for Inactive)
REMARK    1  A    between atoms: C_7  and  C_8 
REMARK    2  A    between atoms: C_10  and  N_11 
REMARK       I    between atoms: N_11  and  C_12 
REMARK    3  A    between atoms: C_12  and  C_13 
REMARK    4  A    between atoms: C_15  and  O_16 
REMARK    5  A    between atoms: C_19  and  O_20 
ROOT
HETATM    1  C   UNL     1      26.549  45.509  52.958  1.00  0.00     0.019 A 
HETATM    2  C   UNL     1      26.170  44.371  52.227  1.00  0.00     0.045 A 
HETATM    3  C   UNL     1      25.303  44.456  51.133  1.00  0.00     0.035 A 
HETATM    4  C   UNL     1      24.807  45.709  50.765  1.00  0.00     0.029 A 
HETATM    5  C   UNL     1      25.162  46.852  51.490  1.00  0.00     0.003 A 
HETATM    6  C   UNL     1      26.029  46.752  52.579  1.00  0.00     0.016 A 
ENDROOT
BRANCH   3   7
HETATM    7  N   UNL     1      24.947  43.339  50.338  1.00  0.00    -0.323 N 
HETATM    8  C   UNL     1      25.722  42.776  49.334  1.00  0.00     0.256 C 
HETATM    9  O   UNL     1      26.912  43.021  49.151  1.00  0.00    -0.267 OA
HETATM   10  H   UNL     1      24.055  42.925  50.555  1.00  0.00     0.169 HD
BRANCH   8  11
HETATM   11  C   UNL     1      25.067  41.797  48.403  1.00  0.00     0.037 A 
HETATM   12  C   UNL     1      23.673  41.646  48.535  1.00  0.00     0.054 A 
HETATM   13  C   UNL     1      22.975  40.722  47.762  1.00  0.00     0.071 A 
HETATM   14  C   UNL     1      23.678  39.949  46.840  1.00  0.00     0.073 A 
HETATM   15  C   UNL     1      25.060  40.087  46.685  1.00  0.00     0.071 A 
HETATM   16  C   UNL     1      25.757  41.009  47.470  1.00  0.00     0.054 A 
BRANCH  13  17
HETATM   17  O   UNL     1      21.632  40.480  47.821  1.00  0.00    -0.356 OA
HETATM   18  C   UNL     1      21.157  39.314  47.154  1.00  0.00     0.210 C 
ENDBRANCH  13  17
BRANCH  15  19
HETATM   19  O   UNL     1      25.604  39.257  45.744  1.00  0.00    -0.356 OA
HETATM   20  C   UNL     1      26.917  39.553  45.285  1.00  0.00     0.210 C 
ENDBRANCH  15  19
ENDBRANCH   8  11
ENDBRANCH   3   7
BRANCH   1  21
HETATM   21  C   UNL     1      27.497  45.410  54.068  1.00  0.00     0.181 A 
HETATM   22  N   UNL     1      27.633  46.184  55.132  1.00  0.00    -0.221 NA
HETATM   23  C   UNL     1      28.716  45.646  55.786  1.00  0.00     0.093 A 
HETATM   24  C   UNL     1      29.188  44.548  55.091  1.00  0.00     0.107 A 
HETATM   25  C   UNL     1      29.373  46.028  56.963  1.00  0.00     0.035 A 
HETATM   26  C   UNL     1      30.277  43.770  55.466  1.00  0.00     0.046 A 
HETATM   27  O   UNL     1      28.409  44.387  53.989  1.00  0.00    -0.289 OA
HETATM   28  C   UNL     1      30.929  44.151  56.649  1.00  0.00    -0.059 A 
HETATM   29  C   UNL     1      32.145  43.392  57.098  1.00  0.00     0.048 C 
HETATM   30  C   UNL     1      30.485  45.272  57.376  1.00  0.00     0.009 A 
ENDBRANCH   1  21
TORSDOF 5
ENDMDL
MODEL 9
REMARK VINA RESULT:      -8.8      2.645     10.037
REMARK  5 active torsions:
REMARK  status: ('A' for Active; 'I' for Inactive)
REMARK    1  A    between atoms: C_7  and  C_8 
REMARK    2  A    between atoms: C_10  and  N_11 
REMARK       I    between atoms: N_11  and  C_12 
REMARK    3  A    between atoms: C_12  and  C_13 
REMARK    4  A    between atoms: C_15  and  O_16 
REMARK    5  A    between atoms: C_19  and  O_20 
ROOT
HETATM    1  C   UNL     1      25.623  44.715  50.885  1.00  0.00     0.019 A 
HETATM    2  C   UNL     1      24.537  45.569  50.632  1.00  0.00     0.045 A 
HETATM    3  C   UNL     1      23.717  45.403  49.510  1.00  0.00     0.035 A 
HETATM    4  C   UNL     1      23.996  44.358  48.625  1.00  0.00     0.029 A 
HETATM    5  C   UNL     1      25.082  43.506  48.852  1.00  0.00     0.003 A 
HETATM    6  C   UNL     1      25.889  43.684  49.977  1.00  0.00     0.016 A 
ENDROOT
BRANCH   3   7
HETATM    7  N   UNL     1      22.580  46.207  49.256  1.00  0.00    -0.323 N 
HETATM    8  C   UNL     1      22.595  47.537  48.862  1.00  0.00     0.256 C 
HETATM    9  O   UNL     1      23.591  48.133  48.459  1.00  0.00    -0.267 OA
HETATM   10  H   UNL     1      21.693  45.740  49.360  1.00  0.00     0.169 HD
BRANCH   8  11
HETATM   11  C   UNL     1      21.309  48.308  48.930  1.00  0.00     0.037 A 
HETATM   12  C   UNL     1      21.398  49.695  48.705  1.00  0.00     0.054 A 
HETATM   13  C   UNL     1      20.276  50.512  48.804  1.00  0.00     0.071 A 
HETATM   14  C   UNL     1      19.049  49.934  49.120  1.00  0.00     0.073 A 
HETATM   15  C   UNL     1      18.933  48.559  49.339  1.00  0.00     0.071 A 
HETATM   16  C   UNL     1      20.065  47.744  49.248  1.00  0.00     0.054 A 
BRANCH  13  17
HETATM   17  O   UNL     1      20.252  51.867  48.625  1.00  0.00    -0.356 OA
HETATM   18  C   UNL     1      18.978  52.467  48.411  1.00  0.00     0.210 C 
ENDBRANCH  13  17
BRANCH  15  19
HETATM   19  O   UNL     1      17.665  48.144  49.643  1.00  0.00    -0.356 OA
HETATM   20  C   UNL     1      16.951  47.424  48.647  1.00  0.00     0.210 C 
ENDBRANCH  15  19
ENDBRANCH   8  11
ENDBRANCH   3   7
BRANCH   1  21
HETATM   21  C   UNL     1      26.439  44.871  52.089  1.00  0.00     0.181 A 
HETATM   22  N   UNL     1      26.385  45.799  53.030  1.00  0.00    -0.221 NA
HETATM   23  C   UNL     1      27.424  45.471  53.868  1.00  0.00     0.093 A 
HETATM   24  C   UNL     1      28.063  44.337  53.403  1.00  0.00     0.107 A 
HETATM   25  C   UNL     1      27.905  46.082  55.033  1.00  0.00     0.035 A 
HETATM   26  C   UNL     1      29.161  43.733  54.004  1.00  0.00     0.046 A 
HETATM   27  O   UNL     1      27.435  43.942  52.264  1.00  0.00    -0.289 OA
HETATM   28  C   UNL     1      29.636  44.343  55.176  1.00  0.00    -0.059 A 
HETATM   29  C   UNL     1      30.849  43.780  55.861  1.00  0.00     0.048 C 
HETATM   30  C   UNL     1      29.019  45.507  55.671  1.00  0.00     0.009 A 
ENDBRANCH   1  21
TORSDOF 5
ENDMDL
MODEL 10
REMARK VINA RESULT:      -8.7      3.218     10.356
REMARK  5 active torsions:
REMARK  status: ('A' for Active; 'I' for Inactive)
REMARK    1  A    between atoms: C_7  and  C_8 
REMARK    2  A    between atoms: C_10  and  N_11 
REMARK       I    between atoms: N_11  and  C_12 
REMARK    3  A    between atoms: C_12  and  C_13 
REMARK    4  A    between atoms: C_15  and  O_16 
REMARK    5  A    between atoms: C_19  and  O_20 
ROOT
HETATM    1  C   UNL     1      27.397  43.526  51.796  1.00  0.00     0.019 A 
HETATM    2  C   UNL     1      26.414  44.379  51.266  1.00  0.00     0.045 A 
HETATM    3  C   UNL     1      25.699  44.047  50.111  1.00  0.00     0.035 A 
HETATM    4  C   UNL     1      25.977  42.834  49.476  1.00  0.00     0.029 A 
HETATM    5  C   UNL     1      26.962  41.978  49.980  1.00  0.00     0.003 A 
HETATM    6  C   UNL     1      27.667  42.323  51.135  1.00  0.00     0.016 A 
ENDROOT
BRANCH   3   7
HETATM    7  N   UNL     1      24.661  44.853  49.584  1.00  0.00    -0.323 N 
HETATM    8  C   UNL     1      23.301  44.598  49.686  1.00  0.00     0.256 C 
HETATM    9  O   UNL     1      22.803  43.766  50.440  1.00  0.00    -0.267 OA
HETATM   10  H   UNL     1      24.966  45.690  49.114  1.00  0.00     0.169 HD
BRANCH   8  11
HETATM   11  C   UNL     1      22.368  45.390  48.818  1.00  0.00     0.037 A 
HETATM   12  C   UNL     1      22.741  46.722  48.551  1.00  0.00     0.054 A 
HETATM   13  C   UNL     1      21.918  47.562  47.807  1.00  0.00     0.071 A 
HETATM   14  C   UNL     1      20.714  47.063  47.315  1.00  0.00     0.073 A 
HETATM   15  C   UNL     1      20.326  45.742  47.558  1.00  0.00     0.071 A 
HETATM   16  C   UNL     1      21.152  44.905  48.315  1.00  0.00     0.054 A 
BRANCH  13  17
HETATM   17  O   UNL     1      22.171  48.871  47.505  1.00  0.00    -0.356 OA
HETATM   18  C   UNL     1      23.342  49.449  48.073  1.00  0.00     0.210 C 
ENDBRANCH  13  17
BRANCH  15  19
HETATM   19  O   UNL     1      19.119  45.403  47.012  1.00  0.00    -0.356 OA
HETATM   20  C   UNL     1      17.948  45.930  47.623  1.00  0.00     0.210 C 
ENDBRANCH  15  19
ENDBRANCH   8  11
ENDBRANCH   3   7
BRANCH   1  21
HETATM   21  C   UNL     1      28.100  43.865  53.034  1.00  0.00     0.181 A 
HETATM   22  N   UNL     1      27.964  44.922  53.818  1.00  0.00    -0.221 NA
HETATM   23  C   UNL     1      28.921  44.730  54.787  1.00  0.00     0.093 A 
HETATM   24  C   UNL     1      29.595  43.546  54.554  1.00  0.00     0.107 A 
HETATM   25  C   UNL     1      29.296  45.510  55.888  1.00  0.00     0.035 A 
HETATM   26  C   UNL     1      30.631  43.047  55.335  1.00  0.00     0.046 A 
HETATM   27  O   UNL     1      29.072  42.982  53.433  1.00  0.00    -0.289 OA
HETATM   28  C   UNL     1      30.999  43.828  56.442  1.00  0.00    -0.059 A 
HETATM   29  C   UNL     1      32.143  43.383  57.310  1.00  0.00     0.048 C 
HETATM   30  C   UNL     1      30.344  45.046  56.703  1.00  0.00     0.009 A 
ENDBRANCH   1  21
TORSDOF 5
ENDMDL
