MODEL 1
REMARK VINA RESULT:     -10.1      0.000      0.000
REMARK  6 active torsions:
REMARK  status: ('A' for Active; 'I' for Inactive)
REMARK    1  A    between atoms: C_4  and  N_5 
REMARK       I    between atoms: N_5  and  C_6 
REMARK       I    between atoms: C_6  and  N_16 
REMARK    2  A    between atoms: N_16  and  CA_17 
REMARK    3  A    between atoms: CA_17  and  C_18 
REMARK    4  A    between atoms: CA_17  and  CB_20 
REMARK    5  A    between atoms: C_18  and  O_19 
REMARK    6  A    between atoms: CB_20  and  CG_21 
ROOT
HETATM    1  N   UNK A   0      23.877  46.345  50.155  1.00  0.00    -0.307 N 
HETATM    2  C   UNK A   0      24.268  45.096  50.510  1.00  0.00     0.321 C 
HETATM    3  O   UNK A   0      23.526  44.398  51.198  1.00  0.00    -0.247 OA
HETATM    4  H   UNK A   0      22.929  46.552  50.469  1.00  0.00     0.170 HD
ATOM      5  N   TRP A   1      25.478  44.662  50.083  1.00  0.00    -0.336 N 
ATOM      6  H   TRP A   1      25.686  44.898  49.125  1.00  0.00     0.164 HD
ENDROOT
BRANCH   5   7
ATOM      7  CA  TRP A   1      26.046  43.386  50.540  1.00  0.00     0.114 C 
BRANCH   7   8
ATOM      8  C   TRP A   1      25.893  42.315  49.445  1.00  0.00     0.189 C 
BRANCH   8   9
ATOM      9  O   TRP A   1      26.860  42.512  48.411  1.00  0.00    -0.399 OA
ATOM     10  H   TRP A   1      27.573  41.872  48.581  1.00  0.00     0.209 HD
ENDBRANCH   8   9
ENDBRANCH   7   8
BRANCH   7  11
ATOM     11  CB  TRP A   1      27.527  43.568  50.939  1.00  0.00     0.068 C 
BRANCH  11  12
ATOM     12  CG  TRP A   1      27.705  44.189  52.300  1.00  0.00    -0.028 A 
ATOM     13  CD2 TRP A   1      28.740  43.896  53.252  1.00  0.00    -0.002 A 
ATOM     14  CE2 TRP A   1      28.513  44.688  54.379  1.00  0.00     0.042 A 
ATOM     15  CE3 TRP A   1      29.849  43.025  53.264  1.00  0.00     0.014 A 
ATOM     16  CZ2 TRP A   1      29.333  44.654  55.513  1.00  0.00     0.030 A 
ATOM     17  NE1 TRP A   1      27.388  45.435  54.128  1.00  0.00    -0.365 N 
ATOM     18  CH2 TRP A   1      30.424  43.782  55.497  1.00  0.00     0.002 A 
ATOM     19  CZ3 TRP A   1      30.681  42.979  54.390  1.00  0.00     0.001 A 
ATOM     20  HE1 TRP A   1      26.978  46.091  54.778  1.00  0.00     0.165 HD
ATOM     21  CD1 TRP A   1      26.901  45.152  52.882  1.00  0.00     0.096 A 
ENDBRANCH  11  12
ENDBRANCH   7  11
ENDBRANCH   5   7
BRANCH   1  22
HETATM   22  C   UNK A   0      24.513  47.478  49.587  1.00  0.00     0.066 A 
HETATM   23  C   UNK A   0      25.888  47.737  49.642  1.00  0.00     0.038 A 
HETATM   24  C   UNK A   0      26.429  48.893  49.065  1.00  0.00    -0.059 A 
HETATM   25  C   UNK A   0      27.901  49.172  49.140  1.00  0.00     0.048 C 
HETATM   26  C   UNK A   0      25.571  49.812  48.458  1.00  0.00     0.020 A 
HETATM   27  C   UNK A   0      24.189  49.579  48.417  1.00  0.00    -0.005 A 
HETATM   28  C   UNK A   0      23.644  48.402  48.976  1.00  0.00     0.093 A 
HETATM   29  C   UNK A   0      23.314  50.506  47.835  1.00  0.00     0.015 A 
HETATM   30  N   UNK A   0      22.311  48.162  48.953  1.00  0.00    -0.258 NA
HETATM   31  C   UNK A   0      21.499  49.082  48.385  1.00  0.00     0.117 A 
HETATM   32  C   UNK A   0      21.949  50.258  47.820  1.00  0.00     0.020 A 
ENDBRANCH   1  22
TORSDOF 6
ENDMDL
MODEL 2
REMARK VINA RESULT:      -9.8      1.522      2.191
REMARK  6 active torsions:
REMARK  status: ('A' for Active; 'I' for Inactive)
REMARK    1  A    between atoms: C_4  and  N_5 
REMARK       I    between atoms: N_5  and  C_6 
REMARK       I    between atoms: C_6  and  N_16 
REMARK    2  A    between atoms: N_16  and  CA_17 
REMARK    3  A    between atoms: CA_17  and  C_18 
REMARK    4  A    between atoms: CA_17  and  CB_20 
REMARK    5  A    between atoms: C_18  and  O_19 
REMARK    6  A    between atoms: CB_20  and  CG_21 
ROOT
HETATM    1  N   UNK A   0      24.194  46.449  50.569  1.00  0.00    -0.307 N 
HETATM    2  C   UNK A   0      24.293  45.099  50.515  1.00  0.00     0.321 C 
HETATM    3  O   UNK A   0      23.834  44.417  51.429  1.00  0.00    -0.247 OA
HETATM    4  H   UNK A   0      23.665  46.761  51.383  1.00  0.00     0.170 HD
ATOM      5  N   TRP A   1      24.902  44.547  49.437  1.00  0.00    -0.336 N 
ATOM      6  H   TRP A   1      24.650  44.974  48.559  1.00  0.00     0.164 HD
ENDROOT
BRANCH   5   7
ATOM      7  CA  TRP A   1      25.186  43.107  49.363  1.00  0.00     0.114 C 
BRANCH   7   8
ATOM      8  C   TRP A   1      24.431  42.477  48.179  1.00  0.00     0.189 C 
BRANCH   8   9
ATOM      9  O   TRP A   1      24.104  43.472  47.206  1.00  0.00    -0.399 OA
ATOM     10  H   TRP A   1      24.125  44.325  47.673  1.00  0.00     0.209 HD
ENDBRANCH   8   9
ENDBRANCH   7   8
BRANCH   7  11
ATOM     11  CB  TRP A   1      26.706  42.863  49.250  1.00  0.00     0.068 C 
BRANCH  11  12
ATOM     12  CG  TRP A   1      27.284  42.138  50.437  1.00  0.00    -0.028 A 
ATOM     13  CD2 TRP A   1      27.678  42.716  51.691  1.00  0.00    -0.002 A 
ATOM     14  CE2 TRP A   1      28.173  41.686  52.494  1.00  0.00     0.042 A 
ATOM     15  CE3 TRP A   1      27.666  44.024  52.220  1.00  0.00     0.014 A 
ATOM     16  CZ2 TRP A   1      28.654  41.895  53.791  1.00  0.00     0.030 A 
ATOM     17  NE1 TRP A   1      28.085  40.527  51.762  1.00  0.00    -0.365 N 
ATOM     18  CH2 TRP A   1      28.630  43.200  54.289  1.00  0.00     0.002 A 
ATOM     19  CZ3 TRP A   1      28.142  44.250  53.518  1.00  0.00     0.001 A 
ATOM     20  HE1 TRP A   1      28.387  39.620  52.088  1.00  0.00     0.165 HD
ATOM     21  CD1 TRP A   1      27.545  40.784  50.533  1.00  0.00     0.096 A 
ENDBRANCH  11  12
ENDBRANCH   7  11
ENDBRANCH   5   7
BRANCH   1  22
HETATM   22  C   UNK A   0      24.768  47.533  49.855  1.00  0.00     0.066 A 
HETATM   23  C   UNK A   0      26.131  47.851  49.843  1.00  0.00     0.038 A 
HETATM   24  C   UNK A   0      26.609  48.952  49.120  1.00  0.00    -0.059 A 
HETATM   25  C   UNK A   0      28.068  49.297  49.122  1.00  0.00     0.048 C 
HETATM   26  C   UNK A   0      25.698  49.758  48.434  1.00  0.00     0.020 A 
HETATM   27  C   UNK A   0      24.327  49.467  48.458  1.00  0.00    -0.005 A 
HETATM   28  C   UNK A   0      23.847  48.343  49.165  1.00  0.00     0.093 A 
HETATM   29  C   UNK A   0      23.400  50.284  47.796  1.00  0.00     0.015 A 
HETATM   30  N   UNK A   0      22.524  48.049  49.206  1.00  0.00    -0.258 NA
HETATM   31  C   UNK A   0      21.662  48.862  48.558  1.00  0.00     0.117 A 
HETATM   32  C   UNK A   0      22.047  49.981  47.848  1.00  0.00     0.020 A 
ENDBRANCH   1  22
TORSDOF 6
ENDMDL
MODEL 3
REMARK VINA RESULT:      -9.7      3.100      7.903
REMARK  6 active torsions:
REMARK  status: ('A' for Active; 'I' for Inactive)
REMARK    1  A    between atoms: C_4  and  N_5 
REMARK       I    between atoms: N_5  and  C_6 
REMARK       I    between atoms: C_6  and  N_16 
REMARK    2  A    between atoms: N_16  and  CA_17 
REMARK    3  A    between atoms: CA_17  and  C_18 
REMARK    4  A    between atoms: CA_17  and  CB_20 
REMARK    5  A    between atoms: C_18  and  O_19 
REMARK    6  A    between atoms: CB_20  and  CG_21 
ROOT
HETATM    1  N   UNK A   0      27.621  46.172  55.115  1.00  0.00    -0.307 N 
HETATM    2  C   UNK A   0      26.630  46.599  54.295  1.00  0.00     0.321 C 
HETATM    3  O   UNK A   0      25.752  47.339  54.735  1.00  0.00    -0.247 OA
HETATM    4  H   UNK A   0      27.554  46.587  56.044  1.00  0.00     0.170 HD
ATOM      5  N   TRP A   1      26.650  46.188  53.004  1.00  0.00    -0.336 N 
ATOM      6  H   TRP A   1      27.565  46.204  52.581  1.00  0.00     0.164 HD
ENDROOT
BRANCH   5   7
ATOM      7  CA  TRP A   1      25.541  46.479  52.084  1.00  0.00     0.114 C 
BRANCH   7   8
ATOM      8  C   TRP A   1      26.088  46.965  50.730  1.00  0.00     0.189 C 
BRANCH   8   9
ATOM      9  O   TRP A   1      25.359  48.107  50.274  1.00  0.00    -0.399 OA
ATOM     10  H   TRP A   1      25.130  48.618  51.070  1.00  0.00     0.209 HD
ENDBRANCH   8   9
ENDBRANCH   7   8
BRANCH   7  11
ATOM     11  CB  TRP A   1      24.646  45.233  51.910  1.00  0.00     0.068 C 
BRANCH  11  12
ATOM     12  CG  TRP A   1      24.935  44.462  50.648  1.00  0.00    -0.028 A 
ATOM     13  CD2 TRP A   1      25.762  43.295  50.522  1.00  0.00    -0.002 A 
ATOM     14  CE2 TRP A   1      25.762  42.921  49.177  1.00  0.00     0.042 A 
ATOM     15  CE3 TRP A   1      26.518  42.522  51.427  1.00  0.00     0.014 A 
ATOM     16  CZ2 TRP A   1      26.476  41.820  48.692  1.00  0.00     0.030 A 
ATOM     17  NE1 TRP A   1      24.968  43.821  48.508  1.00  0.00    -0.365 N 
ATOM     18  CH2 TRP A   1      27.216  41.072  49.610  1.00  0.00     0.002 A 
ATOM     19  CZ3 TRP A   1      27.238  41.415  50.959  1.00  0.00     0.001 A 
ATOM     20  HE1 TRP A   1      24.796  43.804  47.512  1.00  0.00     0.165 HD
ATOM     21  CD1 TRP A   1      24.459  44.742  49.380  1.00  0.00     0.096 A 
ENDBRANCH  11  12
ENDBRANCH   7  11
ENDBRANCH   5   7
BRANCH   1  22
HETATM   22  C   UNK A   0      28.636  45.183  55.042  1.00  0.00     0.066 A 
HETATM   23  C   UNK A   0      28.781  44.260  54.000  1.00  0.00     0.038 A 
HETATM   24  C   UNK A   0      29.806  43.306  54.018  1.00  0.00    -0.059 A 
HETATM   25  C   UNK A   0      29.948  42.310  52.905  1.00  0.00     0.048 C 
HETATM   26  C   UNK A   0      30.669  43.260  55.114  1.00  0.00     0.020 A 
HETATM   27  C   UNK A   0      30.521  44.161  56.177  1.00  0.00    -0.005 A 
HETATM   28  C   UNK A   0      29.504  45.140  56.149  1.00  0.00     0.093 A 
HETATM   29  C   UNK A   0      31.363  44.108  57.296  1.00  0.00     0.015 A 
HETATM   30  N   UNK A   0      29.339  46.015  57.171  1.00  0.00    -0.258 NA
HETATM   31  C   UNK A   0      30.170  45.931  58.233  1.00  0.00     0.117 A 
HETATM   32  C   UNK A   0      31.185  45.002  58.342  1.00  0.00     0.020 A 
ENDBRANCH   1  22
TORSDOF 6
ENDMDL
MODEL 4
REMARK VINA RESULT:      -9.3      2.006      8.435
REMARK  6 active torsions:
REMARK  status: ('A' for Active; 'I' for Inactive)
REMARK    1  A    between atoms: C_4  and  N_5 
REMARK       I    between atoms: N_5  and  C_6 
REMARK       I    between atoms: C_6  and  N_16 
REMARK    2  A    between atoms: N_16  and  CA_17 
REMARK    3  A    between atoms: CA_17  and  C_18 
REMARK    4  A    between atoms: CA_17  and  CB_20 
REMARK    5  A    between atoms: C_18  and  O_19 
REMARK    6  A    between atoms: CB_20  and  CG_21 
ROOT
HETATM    1  N   UNK A   0      26.427  45.950  53.425  1.00  0.00    -0.307 N 
HETATM    2  C   UNK A   0      26.016  46.898  52.546  1.00  0.00     0.321 C 
HETATM    3  O   UNK A   0      25.159  47.711  52.885  1.00  0.00    -0.247 OA
HETATM    4  H   UNK A   0      25.994  46.066  54.341  1.00  0.00     0.170 HD
ATOM      5  N   TRP A   1      26.577  46.910  51.313  1.00  0.00    -0.336 N 
ATOM      6  H   TRP A   1      27.574  46.758  51.313  1.00  0.00     0.164 HD
ENDROOT
BRANCH   5   7
ATOM      7  CA  TRP A   1      26.091  47.802  50.252  1.00  0.00     0.114 C 
BRANCH   7   8
ATOM      8  C   TRP A   1      27.267  48.570  49.623  1.00  0.00     0.189 C 
BRANCH   8   9
ATOM      9  O   TRP A   1      27.016  48.829  48.239  1.00  0.00    -0.399 OA
ATOM     10  H   TRP A   1      27.881  49.025  47.839  1.00  0.00     0.209 HD
ENDBRANCH   8   9
ENDBRANCH   7   8
BRANCH   7  11
ATOM     11  CB  TRP A   1      25.316  46.997  49.186  1.00  0.00     0.068 C 
BRANCH  11  12
ATOM     12  CG  TRP A   1      23.861  47.379  49.091  1.00  0.00    -0.028 A 
ATOM     13  CD2 TRP A   1      23.326  48.702  48.942  1.00  0.00    -0.002 A 
ATOM     14  CE2 TRP A   1      21.934  48.594  48.913  1.00  0.00     0.042 A 
ATOM     15  CE3 TRP A   1      23.894  49.989  48.834  1.00  0.00     0.014 A 
ATOM     16  CZ2 TRP A   1      21.086  49.699  48.783  1.00  0.00     0.030 A 
ATOM     17  NE1 TRP A   1      21.630  47.260  49.039  1.00  0.00    -0.365 N 
ATOM     18  CH2 TRP A   1      21.676  50.961  48.678  1.00  0.00     0.002 A 
ATOM     19  CZ3 TRP A   1      23.060  51.106  48.701  1.00  0.00     0.001 A 
ATOM     20  HE1 TRP A   1      20.692  46.886  49.064  1.00  0.00     0.165 HD
ATOM     21  CD1 TRP A   1      22.777  46.522  49.136  1.00  0.00     0.096 A 
ENDBRANCH  11  12
ENDBRANCH   7  11
ENDBRANCH   5   7
BRANCH   1  22
HETATM   22  C   UNK A   0      27.192  44.759  53.339  1.00  0.00     0.066 A 
HETATM   23  C   UNK A   0      26.880  43.663  52.527  1.00  0.00     0.038 A 
HETATM   24  C   UNK A   0      27.687  42.518  52.517  1.00  0.00    -0.059 A 
HETATM   25  C   UNK A   0      27.340  41.340  51.655  1.00  0.00     0.048 C 
HETATM   26  C   UNK A   0      28.798  42.466  53.361  1.00  0.00     0.020 A 
HETATM   27  C   UNK A   0      29.109  43.546  54.199  1.00  0.00    -0.005 A 
HETATM   28  C   UNK A   0      28.311  44.711  54.191  1.00  0.00     0.093 A 
HETATM   29  C   UNK A   0      30.206  43.495  55.071  1.00  0.00     0.015 A 
HETATM   30  N   UNK A   0      28.591  45.762  54.999  1.00  0.00    -0.258 NA
HETATM   31  C   UNK A   0      29.655  45.674  55.828  1.00  0.00     0.117 A 
HETATM   32  C   UNK A   0      30.483  44.572  55.901  1.00  0.00     0.020 A 
ENDBRANCH   1  22
TORSDOF 6
ENDMDL
MODEL 5
REMARK VINA RESULT:      -9.3      2.246      3.788
REMARK  6 active torsions:
REMARK  status: ('A' for Active; 'I' for Inactive)
REMARK    1  A    between atoms: C_4  and  N_5 
REMARK       I    between atoms: N_5  and  C_6 
REMARK       I    between atoms: C_6  and  N_16 
REMARK    2  A    between atoms: N_16  and  CA_17 
REMARK    3  A    between atoms: CA_17  and  C_18 
REMARK    4  A    between atoms: CA_17  and  CB_20 
REMARK    5  A    between atoms: C_18  and  O_19 
REMARK    6  A    between atoms: CB_20  and  CG_21 
ROOT
HETATM    1  N   UNK A   0      24.640  48.061  49.275  1.00  0.00    -0.307 N 
HETATM    2  C   UNK A   0      25.573  47.704  50.192  1.00  0.00     0.321 C 
HETATM    3  O   UNK A   0      26.754  47.987  50.001  1.00  0.00    -0.247 OA
HETATM    4  H   UNK A   0      25.042  48.611  48.516  1.00  0.00     0.170 HD
ATOM      5  N   TRP A   1      25.158  47.039  51.298  1.00  0.00    -0.336 N 
ATOM      6  H   TRP A   1      24.308  47.402  51.701  1.00  0.00     0.164 HD
ENDROOT
BRANCH   5   7
ATOM      7  CA  TRP A   1      26.112  46.484  52.268  1.00  0.00     0.114 C 
BRANCH   7   8
ATOM      8  C   TRP A   1      26.120  47.334  53.551  1.00  0.00     0.189 C 
BRANCH   8   9
ATOM      9  O   TRP A   1      25.622  46.579  54.658  1.00  0.00    -0.399 OA
ATOM     10  H   TRP A   1      25.122  47.205  55.210  1.00  0.00     0.209 HD
ENDBRANCH   8   9
ENDBRANCH   7   8
BRANCH   7  11
ATOM     11  CB  TRP A   1      25.768  45.011  52.577  1.00  0.00     0.068 C 
BRANCH  11  12
ATOM     12  CG  TRP A   1      26.933  44.074  52.387  1.00  0.00    -0.028 A 
ATOM     13  CD2 TRP A   1      28.066  43.921  53.255  1.00  0.00    -0.002 A 
ATOM     14  CE2 TRP A   1      28.905  42.959  52.689  1.00  0.00     0.042 A 
ATOM     15  CE3 TRP A   1      28.463  44.516  54.471  1.00  0.00     0.014 A 
ATOM     16  CZ2 TRP A   1      30.115  42.564  53.272  1.00  0.00     0.030 A 
ATOM     17  NE1 TRP A   1      28.310  42.541  51.524  1.00  0.00    -0.365 N 
ATOM     18  CH2 TRP A   1      30.482  43.170  54.476  1.00  0.00     0.002 A 
ATOM     19  CZ3 TRP A   1      29.669  44.131  55.069  1.00  0.00     0.001 A 
ATOM     20  HE1 TRP A   1      28.703  41.855  50.894  1.00  0.00     0.165 HD
ATOM     21  CD1 TRP A   1      27.124  43.194  51.338  1.00  0.00     0.096 A 
ENDBRANCH  11  12
ENDBRANCH   7  11
ENDBRANCH   5   7
BRANCH   1  22
HETATM   22  C   UNK A   0      23.280  47.736  49.041  1.00  0.00     0.066 A 
HETATM   23  C   UNK A   0      22.824  46.508  48.546  1.00  0.00     0.038 A 
HETATM   24  C   UNK A   0      21.459  46.279  48.330  1.00  0.00    -0.059 A 
HETATM   25  C   UNK A   0      20.977  44.966  47.787  1.00  0.00     0.048 C 
HETATM   26  C   UNK A   0      20.551  47.309  48.580  1.00  0.00     0.020 A 
HETATM   27  C   UNK A   0      20.995  48.553  49.052  1.00  0.00    -0.005 A 
HETATM   28  C   UNK A   0      22.368  48.777  49.295  1.00  0.00     0.093 A 
HETATM   29  C   UNK A   0      20.097  49.604  49.281  1.00  0.00     0.015 A 
HETATM   30  N   UNK A   0      22.817  49.975  49.743  1.00  0.00    -0.258 NA
HETATM   31  C   UNK A   0      21.921  50.965  49.950  1.00  0.00     0.117 A 
HETATM   32  C   UNK A   0      20.565  50.830  49.734  1.00  0.00     0.020 A 
ENDBRANCH   1  22
TORSDOF 6
ENDMDL
MODEL 6
REMARK VINA RESULT:      -9.2      1.685      3.387
REMARK  6 active torsions:
REMARK  status: ('A' for Active; 'I' for Inactive)
REMARK    1  A    between atoms: C_4  and  N_5 
REMARK       I    between atoms: N_5  and  C_6 
REMARK       I    between atoms: C_6  and  N_16 
REMARK    2  A    between atoms: N_16  and  CA_17 
REMARK    3  A    between atoms: CA_17  and  C_18 
REMARK    4  A    between atoms: CA_17  and  CB_20 
REMARK    5  A    between atoms: C_18  and  O_19 
REMARK    6  A    between atoms: CB_20  and  CG_21 
ROOT
HETATM    1  N   UNK A   0      24.043  46.733  50.790  1.00  0.00    -0.307 N 
HETATM    2  C   UNK A   0      24.230  45.393  50.698  1.00  0.00     0.321 C 
HETATM    3  O   UNK A   0      24.423  44.734  51.718  1.00  0.00    -0.247 OA
HETATM    4  H   UNK A   0      24.023  47.050  51.759  1.00  0.00     0.170 HD
ATOM      5  N   TRP A   1      24.195  44.827  49.468  1.00  0.00    -0.336 N 
ATOM      6  H   TRP A   1      23.459  45.179  48.874  1.00  0.00     0.164 HD
ENDROOT
BRANCH   5   7
ATOM      7  CA  TRP A   1      24.533  43.413  49.258  1.00  0.00     0.114 C 
BRANCH   7   8
ATOM      8  C   TRP A   1      23.954  42.921  47.919  1.00  0.00     0.189 C 
BRANCH   8   9
ATOM      9  O   TRP A   1      24.926  42.155  47.203  1.00  0.00    -0.399 OA
ATOM     10  H   TRP A   1      25.500  41.749  47.875  1.00  0.00     0.209 HD
ENDBRANCH   8   9
ENDBRANCH   7   8
BRANCH   7  11
ATOM     11  CB  TRP A   1      26.063  43.211  49.312  1.00  0.00     0.068 C 
BRANCH  11  12
ATOM     12  CG  TRP A   1      26.502  42.265  50.399  1.00  0.00    -0.028 A 
ATOM     13  CD2 TRP A   1      27.444  42.535  51.448  1.00  0.00    -0.002 A 
ATOM     14  CE2 TRP A   1      27.562  41.376  52.218  1.00  0.00     0.042 A 
ATOM     15  CE3 TRP A   1      28.215  43.658  51.814  1.00  0.00     0.014 A 
ATOM     16  CZ2 TRP A   1      28.408  41.282  53.329  1.00  0.00     0.030 A 
ATOM     17  NE1 TRP A   1      26.727  40.437  51.664  1.00  0.00    -0.365 N 
ATOM     18  CH2 TRP A   1      29.159  42.410  53.669  1.00  0.00     0.002 A 
ATOM     19  CZ3 TRP A   1      29.065  43.582  52.925  1.00  0.00     0.001 A 
ATOM     20  HE1 TRP A   1      26.619  39.493  52.007  1.00  0.00     0.165 HD
ATOM     21  CD1 TRP A   1      26.080  40.960  50.580  1.00  0.00     0.096 A 
ENDBRANCH  11  12
ENDBRANCH   7  11
ENDBRANCH   5   7
BRANCH   1  22
HETATM   22  C   UNK A   0      24.016  47.813  49.872  1.00  0.00     0.066 A 
HETATM   23  C   UNK A   0      22.863  48.308  49.250  1.00  0.00     0.038 A 
HETATM   24  C   UNK A   0      22.932  49.371  48.341  1.00  0.00    -0.059 A 
HETATM   25  C   UNK A   0      21.696  49.888  47.668  1.00  0.00     0.048 C 
HETATM   26  C   UNK A   0      24.180  49.916  48.030  1.00  0.00     0.020 A 
HETATM   27  C   UNK A   0      25.346  49.414  48.625  1.00  0.00    -0.005 A 
HETATM   28  C   UNK A   0      25.276  48.359  49.561  1.00  0.00     0.093 A 
HETATM   29  C   UNK A   0      26.607  49.934  48.301  1.00  0.00     0.015 A 
HETATM   30  N   UNK A   0      26.392  47.856  50.140  1.00  0.00    -0.258 NA
HETATM   31  C   UNK A   0      27.590  48.381  49.800  1.00  0.00     0.117 A 
HETATM   32  C   UNK A   0      27.747  49.410  48.893  1.00  0.00     0.020 A 
ENDBRANCH   1  22
TORSDOF 6
ENDMDL
MODEL 7
REMARK VINA RESULT:      -9.0      3.999      9.584
REMARK  6 active torsions:
REMARK  status: ('A' for Active; 'I' for Inactive)
REMARK    1  A    between atoms: C_4  and  N_5 
REMARK       I    between atoms: N_5  and  C_6 
REMARK       I    between atoms: C_6  and  N_16 
REMARK    2  A    between atoms: N_16  and  CA_17 
REMARK    3  A    between atoms: CA_17  and  C_18 
REMARK    4  A    between atoms: CA_17  and  CB_20 
REMARK    5  A    between atoms: C_18  and  O_19 
REMARK    6  A    between atoms: CB_20  and  CG_21 
ROOT
HETATM    1  N   UNK A   0      21.580  46.692  48.573  1.00  0.00    -0.307 N 
HETATM    2  C   UNK A   0      20.363  47.225  48.840  1.00  0.00     0.321 C 
HETATM    3  O   UNK A   0      19.393  46.898  48.159  1.00  0.00    -0.247 OA
HETATM    4  H   UNK A   0      21.537  45.993  47.832  1.00  0.00     0.170 HD
ATOM      5  N   TRP A   1      20.264  48.108  49.863  1.00  0.00    -0.336 N 
ATOM      6  H   TRP A   1      20.783  47.844  50.686  1.00  0.00     0.164 HD
ENDROOT
BRANCH   5   7
ATOM      7  CA  TRP A   1      19.021  48.845  50.129  1.00  0.00     0.114 C 
BRANCH   7   8
ATOM      8  C   TRP A   1      18.351  48.313  51.408  1.00  0.00     0.189 C 
BRANCH   8   9
ATOM      9  O   TRP A   1      18.873  48.976  52.562  1.00  0.00    -0.399 OA
ATOM     10  H   TRP A   1      18.783  49.930  52.390  1.00  0.00     0.209 HD
ENDBRANCH   8   9
ENDBRANCH   7   8
BRANCH   7  11
ATOM     11  CB  TRP A   1      19.306  50.359  50.237  1.00  0.00     0.068 C 
BRANCH  11  12
ATOM     12  CG  TRP A   1      18.472  51.192  49.298  1.00  0.00    -0.028 A 
ATOM     13  CD2 TRP A   1      18.422  51.087  47.867  1.00  0.00    -0.002 A 
ATOM     14  CE2 TRP A   1      17.532  52.059  47.404  1.00  0.00     0.042 A 
ATOM     15  CE3 TRP A   1      19.056  50.259  46.917  1.00  0.00     0.014 A 
ATOM     16  CZ2 TRP A   1      17.246  52.244  46.046  1.00  0.00     0.030 A 
ATOM     17  NE1 TRP A   1      17.057  52.728  48.505  1.00  0.00    -0.365 N 
ATOM     18  CH2 TRP A   1      17.888  51.410  45.128  1.00  0.00     0.002 A 
ATOM     19  CZ3 TRP A   1      18.779  50.430  45.555  1.00  0.00     0.001 A 
ATOM     20  HE1 TRP A   1      16.404  53.498  48.469  1.00  0.00     0.165 HD
ATOM     21  CD1 TRP A   1      17.605  52.211  49.645  1.00  0.00     0.096 A 
ENDBRANCH  11  12
ENDBRANCH   7  11
ENDBRANCH   5   7
BRANCH   1  22
HETATM   22  C   UNK A   0      22.913  46.972  48.969  1.00  0.00     0.066 A 
HETATM   23  C   UNK A   0      23.724  46.112  49.720  1.00  0.00     0.038 A 
HETATM   24  C   UNK A   0      25.027  46.479  50.080  1.00  0.00    -0.059 A 
HETATM   25  C   UNK A   0      25.886  45.559  50.896  1.00  0.00     0.048 C 
HETATM   26  C   UNK A   0      25.503  47.738  49.710  1.00  0.00     0.020 A 
HETATM   27  C   UNK A   0      24.694  48.620  48.980  1.00  0.00    -0.005 A 
HETATM   28  C   UNK A   0      23.389  48.243  48.594  1.00  0.00     0.093 A 
HETATM   29  C   UNK A   0      25.149  49.898  48.626  1.00  0.00     0.015 A 
HETATM   30  N   UNK A   0      22.589  49.084  47.895  1.00  0.00    -0.258 NA
HETATM   31  C   UNK A   0      23.063  50.308  47.574  1.00  0.00     0.117 A 
HETATM   32  C   UNK A   0      24.323  50.757  47.916  1.00  0.00     0.020 A 
ENDBRANCH   1  22
TORSDOF 6
ENDMDL
MODEL 8
REMARK VINA RESULT:      -9.0      4.981      7.107
REMARK  6 active torsions:
REMARK  status: ('A' for Active; 'I' for Inactive)
REMARK    1  A    between atoms: C_4  and  N_5 
REMARK       I    between atoms: N_5  and  C_6 
REMARK       I    between atoms: C_6  and  N_16 
REMARK    2  A    between atoms: N_16  and  CA_17 
REMARK    3  A    between atoms: CA_17  and  C_18 
REMARK    4  A    between atoms: CA_17  and  CB_20 
REMARK    5  A    between atoms: C_18  and  O_19 
REMARK    6  A    between atoms: CB_20  and  CG_21 
ROOT
HETATM    1  N   UNK A   0      27.271  42.118  49.710  1.00  0.00    -0.307 N 
HETATM    2  C   UNK A   0      27.249  43.009  50.731  1.00  0.00     0.321 C 
HETATM    3  O   UNK A   0      27.191  44.213  50.488  1.00  0.00    -0.247 OA
HETATM    4  H   UNK A   0      27.168  42.573  48.803  1.00  0.00     0.170 HD
ATOM      5  N   TRP A   1      27.293  42.529  51.997  1.00  0.00    -0.336 N 
ATOM      6  H   TRP A   1      26.712  41.718  52.150  1.00  0.00     0.164 HD
ENDROOT
BRANCH   5   7
ATOM      7  CA  TRP A   1      27.423  43.421  53.158  1.00  0.00     0.114 C 
BRANCH   7   8
ATOM      8  C   TRP A   1      26.820  42.757  54.409  1.00  0.00     0.189 C 
BRANCH   8   9
ATOM      9  O   TRP A   1      25.662  43.472  54.848  1.00  0.00    -0.399 OA
ATOM     10  H   TRP A   1      25.330  43.954  54.071  1.00  0.00     0.209 HD
ENDBRANCH   8   9
ENDBRANCH   7   8
BRANCH   7  11
ATOM     11  CB  TRP A   1      28.904  43.796  53.384  1.00  0.00     0.068 C 
BRANCH  11  12
ATOM     12  CG  TRP A   1      29.123  44.646  54.609  1.00  0.00    -0.028 A 
ATOM     13  CD2 TRP A   1      30.021  44.374  55.696  1.00  0.00    -0.002 A 
ATOM     14  CE2 TRP A   1      29.892  45.413  56.620  1.00  0.00     0.042 A 
ATOM     15  CE3 TRP A   1      30.929  43.335  55.987  1.00  0.00     0.014 A 
ATOM     16  CZ2 TRP A   1      30.621  45.467  57.814  1.00  0.00     0.030 A 
ATOM     17  NE1 TRP A   1      28.957  46.285  56.118  1.00  0.00    -0.365 N 
ATOM     18  CH2 TRP A   1      31.513  44.425  58.075  1.00  0.00     0.002 A 
ATOM     19  CZ3 TRP A   1      31.668  43.374  57.177  1.00  0.00     0.001 A 
ATOM     20  HE1 TRP A   1      28.650  47.127  56.585  1.00  0.00     0.165 HD
ATOM     21  CD1 TRP A   1      28.497  45.841  54.910  1.00  0.00     0.096 A 
ENDBRANCH  11  12
ENDBRANCH   7  11
ENDBRANCH   5   7
BRANCH   1  22
HETATM   22  C   UNK A   0      27.546  40.732  49.586  1.00  0.00     0.066 A 
HETATM   23  C   UNK A   0      28.597  40.064  50.225  1.00  0.00     0.038 A 
HETATM   24  C   UNK A   0      28.804  38.692  50.032  1.00  0.00    -0.059 A 
HETATM   25  C   UNK A   0      29.941  37.983  50.708  1.00  0.00     0.048 C 
HETATM   26  C   UNK A   0      27.965  37.996  49.159  1.00  0.00     0.020 A 
HETATM   27  C   UNK A   0      26.923  38.657  48.493  1.00  0.00    -0.005 A 
HETATM   28  C   UNK A   0      26.697  40.035  48.705  1.00  0.00     0.093 A 
HETATM   29  C   UNK A   0      26.091  37.977  47.593  1.00  0.00     0.015 A 
HETATM   30  N   UNK A   0      25.701  40.693  48.065  1.00  0.00    -0.258 NA
HETATM   31  C   UNK A   0      24.921  40.003  47.203  1.00  0.00     0.117 A 
HETATM   32  C   UNK A   0      25.077  38.658  46.935  1.00  0.00     0.020 A 
ENDBRANCH   1  22
TORSDOF 6
ENDMDL
MODEL 9
REMARK VINA RESULT:      -9.0      2.508      4.594
REMARK  6 active torsions:
REMARK  status: ('A' for Active; 'I' for Inactive)
REMARK    1  A    between atoms: C_4  and  N_5 
REMARK       I    between atoms: N_5  and  C_6 
REMARK       I    between atoms: C_6  and  N_16 
REMARK    2  A    between atoms: N_16  and  CA_17 
REMARK    3  A    between atoms: CA_17  and  C_18 
REMARK    4  A    between atoms: CA_17  and  CB_20 
REMARK    5  A    between atoms: C_18  and  O_19 
REMARK    6  A    between atoms: CB_20  and  CG_21 
ROOT
HETATM    1  N   UNK A   0      23.468  44.539  50.645  1.00  0.00    -0.307 N 
HETATM    2  C   UNK A   0      23.494  43.311  50.071  1.00  0.00     0.321 C 
HETATM    3  O   UNK A   0      22.539  42.551  50.216  1.00  0.00    -0.247 OA
HETATM    4  H   UNK A   0      22.579  44.724  51.109  1.00  0.00     0.170 HD
ATOM      5  N   TRP A   1      24.588  42.968  49.349  1.00  0.00    -0.336 N 
ATOM      6  H   TRP A   1      24.936  43.705  48.754  1.00  0.00     0.164 HD
ENDROOT
BRANCH   5   7
ATOM      7  CA  TRP A   1      24.767  41.610  48.816  1.00  0.00     0.114 C 
BRANCH   7   8
ATOM      8  C   TRP A   1      23.866  41.398  47.587  1.00  0.00     0.189 C 
BRANCH   8   9
ATOM      9  O   TRP A   1      23.156  40.162  47.692  1.00  0.00    -0.399 OA
ATOM     10  H   TRP A   1      23.022  39.849  46.780  1.00  0.00     0.209 HD
ENDBRANCH   8   9
ENDBRANCH   7   8
BRANCH   7  11
ATOM     11  CB  TRP A   1      26.252  41.361  48.470  1.00  0.00     0.068 C 
BRANCH  11  12
ATOM     12  CG  TRP A   1      27.068  40.895  49.647  1.00  0.00    -0.028 A 
ATOM     13  CD2 TRP A   1      27.642  41.716  50.677  1.00  0.00    -0.002 A 
ATOM     14  CE2 TRP A   1      28.327  40.874  51.555  1.00  0.00     0.042 A 
ATOM     15  CE3 TRP A   1      27.648  43.101  50.942  1.00  0.00     0.014 A 
ATOM     16  CZ2 TRP A   1      29.015  41.343  52.680  1.00  0.00     0.030 A 
ATOM     17  NE1 TRP A   1      28.178  39.592  51.084  1.00  0.00    -0.365 N 
ATOM     18  CH2 TRP A   1      29.004  42.719  52.919  1.00  0.00     0.002 A 
ATOM     19  CZ3 TRP A   1      28.330  43.587  52.065  1.00  0.00     0.001 A 
ATOM     20  HE1 TRP A   1      28.583  38.772  51.515  1.00  0.00     0.165 HD
ATOM     21  CD1 TRP A   1      27.418  39.591  49.948  1.00  0.00     0.096 A 
ENDBRANCH  11  12
ENDBRANCH   7  11
ENDBRANCH   5   7
BRANCH   1  22
HETATM   22  C   UNK A   0      24.421  45.562  50.882  1.00  0.00     0.066 A 
HETATM   23  C   UNK A   0      24.784  46.548  49.957  1.00  0.00     0.038 A 
HETATM   24  C   UNK A   0      25.749  47.513  50.272  1.00  0.00    -0.059 A 
HETATM   25  C   UNK A   0      26.145  48.559  49.272  1.00  0.00     0.048 C 
HETATM   26  C   UNK A   0      26.378  47.461  51.518  1.00  0.00     0.020 A 
HETATM   27  C   UNK A   0      26.042  46.464  52.445  1.00  0.00    -0.005 A 
HETATM   28  C   UNK A   0      25.052  45.506  52.139  1.00  0.00     0.093 A 
HETATM   29  C   UNK A   0      26.685  46.384  53.688  1.00  0.00     0.015 A 
HETATM   30  N   UNK A   0      24.719  44.530  53.019  1.00  0.00    -0.258 NA
HETATM   31  C   UNK A   0      25.363  44.485  54.206  1.00  0.00     0.117 A 
HETATM   32  C   UNK A   0      26.345  45.379  54.582  1.00  0.00     0.020 A 
ENDBRANCH   1  22
TORSDOF 6
ENDMDL
MODEL 10
REMARK VINA RESULT:      -8.9      2.078      3.808
REMARK  6 active torsions:
REMARK  status: ('A' for Active; 'I' for Inactive)
REMARK    1  A    between atoms: C_4  and  N_5 
REMARK       I    between atoms: N_5  and  C_6 
REMARK       I    between atoms: C_6  and  N_16 
REMARK    2  A    between atoms: N_16  and  CA_17 
REMARK    3  A    between atoms: CA_17  and  C_18 
REMARK    4  A    between atoms: CA_17  and  CB_20 
REMARK    5  A    between atoms: C_18  and  O_19 
REMARK    6  A    between atoms: CB_20  and  CG_21 
ROOT
HETATM    1  N   UNK A   0      22.265  46.249  48.054  1.00  0.00    -0.307 N 
HETATM    2  C   UNK A   0      23.330  45.601  48.584  1.00  0.00     0.321 C 
HETATM    3  O   UNK A   0      23.730  44.560  48.066  1.00  0.00    -0.247 OA
HETATM    4  H   UNK A   0      21.934  45.805  47.198  1.00  0.00     0.170 HD
ATOM      5  N   TRP A   1      23.921  46.136  49.680  1.00  0.00    -0.336 N 
ATOM      6  H   TRP A   1      24.031  47.137  49.641  1.00  0.00     0.164 HD
ENDROOT
BRANCH   5   7
ATOM      7  CA  TRP A   1      24.985  45.428  50.408  1.00  0.00     0.114 C 
BRANCH   7   8
ATOM      8  C   TRP A   1      26.364  45.962  49.984  1.00  0.00     0.189 C 
BRANCH   8   9
ATOM      9  O   TRP A   1      27.194  44.895  49.516  1.00  0.00    -0.399 OA
ATOM     10  H   TRP A   1      26.709  44.477  48.783  1.00  0.00     0.209 HD
ENDBRANCH   8   9
ENDBRANCH   7   8
BRANCH   7  11
ATOM     11  CB  TRP A   1      24.777  45.566  51.932  1.00  0.00     0.068 C 
BRANCH  11  12
ATOM     12  CG  TRP A   1      25.909  44.991  52.743  1.00  0.00    -0.028 A 
ATOM     13  CD2 TRP A   1      26.787  45.707  53.625  1.00  0.00    -0.002 A 
ATOM     14  CE2 TRP A   1      27.695  44.788  54.155  1.00  0.00     0.042 A 
ATOM     15  CE3 TRP A   1      26.899  47.056  54.021  1.00  0.00     0.014 A 
ATOM     16  CZ2 TRP A   1      28.705  45.146  55.054  1.00  0.00     0.030 A 
ATOM     17  NE1 TRP A   1      27.385  43.561  53.620  1.00  0.00    -0.365 N 
ATOM     18  CH2 TRP A   1      28.793  46.489  55.429  1.00  0.00     0.002 A 
ATOM     19  CZ3 TRP A   1      27.903  47.432  54.922  1.00  0.00     0.001 A 
ATOM     20  HE1 TRP A   1      27.889  42.707  53.815  1.00  0.00     0.165 HD
ATOM     21  CD1 TRP A   1      26.311  43.669  52.781  1.00  0.00     0.096 A 
ENDBRANCH  11  12
ENDBRANCH   7  11
ENDBRANCH   5   7
BRANCH   1  22
HETATM   22  C   UNK A   0      21.412  47.302  48.476  1.00  0.00     0.066 A 
HETATM   23  C   UNK A   0      20.077  47.144  48.865  1.00  0.00     0.038 A 
HETATM   24  C   UNK A   0      19.302  48.245  49.253  1.00  0.00    -0.059 A 
HETATM   25  C   UNK A   0      17.868  48.071  49.656  1.00  0.00     0.048 C 
HETATM   26  C   UNK A   0      19.870  49.520  49.212  1.00  0.00     0.020 A 
HETATM   27  C   UNK A   0      21.198  49.697  48.800  1.00  0.00    -0.005 A 
HETATM   28  C   UNK A   0      21.988  48.585  48.433  1.00  0.00     0.093 A 
HETATM   29  C   UNK A   0      21.771  50.974  48.729  1.00  0.00     0.015 A 
HETATM   30  N   UNK A   0      23.271  48.737  48.025  1.00  0.00    -0.258 NA
HETATM   31  C   UNK A   0      23.788  49.984  47.967  1.00  0.00     0.117 A 
HETATM   32  C   UNK A   0      23.084  51.123  48.303  1.00  0.00     0.020 A 
ENDBRANCH   1  22
TORSDOF 6
ENDMDL
