MODEL 1
REMARK VINA RESULT:     -10.4      0.000      0.000
REMARK  5 active torsions:
REMARK  status: ('A' for Active; 'I' for Inactive)
REMARK    1  A    between atoms: C_7  and  C_8 
REMARK    2  A    between atoms: C_16  and  C_17 
REMARK    3  A    between atoms: C_20  and  O_21 
REMARK    4  A    between atoms: C_24  and  C_25 
REMARK       I    between atoms: C_25  and  N_26 
REMARK    5  A    between atoms: N_26  and  C_27 
ROOT
HETATM    1  C   UNL     1      23.139  43.933  47.503  1.00  0.00     0.070 C 
HETATM    2  C   UNL     1      23.101  45.316  48.106  1.00  0.00     0.037 C 
HETATM    3  N   UNL     1      22.273  46.234  47.457  1.00  0.00    -0.192 N 
HETATM    4  C   UNL     1      21.899  47.394  48.035  1.00  0.00     0.726 A 
HETATM    5  N   UNL     1      22.565  47.825  49.143  1.00  0.00    -0.083 N 
HETATM    6  N   UNL     1      21.998  48.926  49.673  1.00  0.00    -0.135 NA
HETATM    7  C   UNL     1      20.979  49.131  48.813  1.00  0.00     0.200 A 
HETATM    8  N   UNL     1      20.923  48.220  47.773  1.00  0.00    -0.041 NA
HETATM    9  C   UNL     1      23.709  47.127  49.727  1.00  0.00     0.202 C 
HETATM   10  C   UNL     1      23.792  45.690  49.216  1.00  0.00     0.062 C 
HETATM   11  H   UNL     1      21.666  45.861  46.728  1.00  0.00     0.184 HD
ENDROOT
BRANCH  10  12
HETATM   12  C   UNL     1      24.447  44.672  50.095  1.00  0.00     0.256 C 
HETATM   13  N   UNL     1      25.730  44.328  49.727  1.00  0.00    -0.323 N 
HETATM   14  H   UNL     1      26.094  44.686  48.855  1.00  0.00     0.169 HD
HETATM   15  O   UNL     1      23.849  44.269  51.088  1.00  0.00    -0.267 OA
BRANCH  13  16
HETATM   16  C   UNL     1      26.637  43.522  50.451  1.00  0.00     0.035 A 
HETATM   17  C   UNL     1      26.715  42.133  50.341  1.00  0.00     0.029 A 
HETATM   18  C   UNL     1      27.630  41.408  51.112  1.00  0.00     0.002 A 
HETATM   19  C   UNL     1      28.469  42.065  52.007  1.00  0.00     0.000 A 
HETATM   20  C   UNL     1      28.401  43.452  52.125  1.00  0.00     0.002 A 
HETATM   21  C   UNL     1      27.495  44.176  51.346  1.00  0.00     0.029 A 
ENDBRANCH  13  16
ENDBRANCH  10  12
BRANCH   9  22
HETATM   22  C   UNL     1      24.974  47.945  49.458  1.00  0.00    -0.028 A 
HETATM   23  C   UNL     1      26.181  47.593  50.093  1.00  0.00     0.012 A 
HETATM   24  C   UNL     1      27.349  48.326  49.866  1.00  0.00     0.037 A 
HETATM   25  C   UNL     1      27.317  49.418  49.005  1.00  0.00     0.065 A 
HETATM   26  C   UNL     1      26.137  49.792  48.377  1.00  0.00     0.037 A 
HETATM   27  C   UNL     1      24.968  49.067  48.608  1.00  0.00     0.012 A 
BRANCH  25  28
HETATM   28  O   UNL     1      28.431  50.161  48.756  1.00  0.00    -0.361 OA
HETATM   29  H   UNL     1      29.156  49.568  48.503  1.00  0.00     0.217 HD
ENDBRANCH  25  28
ENDBRANCH   9  22
BRANCH   7  30
HETATM   30  C   UNL     1      20.040  50.236  48.956  1.00  0.00     0.036 A 
HETATM   31  C   UNL     1      18.972  50.221  49.867  1.00  0.00     0.048 A 
HETATM   32 CL   UNL     1      18.674  48.913  50.962  1.00  0.00    -0.083 Cl
HETATM   33  C   UNL     1      18.110  51.322  49.960  1.00  0.00     0.025 A 
HETATM   34  C   UNL     1      18.304  52.446  49.156  1.00  0.00     0.002 A 
HETATM   35  C   UNL     1      19.365  52.477  48.256  1.00  0.00     0.001 A 
HETATM   36  C   UNL     1      20.226  51.382  48.159  1.00  0.00     0.017 A 
ENDBRANCH   7  30
TORSDOF 5
ENDMDL
MODEL 2
REMARK VINA RESULT:      -9.7      2.996      8.606
REMARK  5 active torsions:
REMARK  status: ('A' for Active; 'I' for Inactive)
REMARK    1  A    between atoms: C_7  and  C_8 
REMARK    2  A    between atoms: C_16  and  C_17 
REMARK    3  A    between atoms: C_20  and  O_21 
REMARK    4  A    between atoms: C_24  and  C_25 
REMARK       I    between atoms: C_25  and  N_26 
REMARK    5  A    between atoms: N_26  and  C_27 
ROOT
HETATM    1  C   UNL     1      24.682  50.200  47.802  1.00  0.00     0.070 C 
HETATM    2  C   UNL     1      24.634  49.003  48.720  1.00  0.00     0.037 C 
HETATM    3  N   UNL     1      25.855  48.628  49.286  1.00  0.00    -0.192 N 
HETATM    4  C   UNL     1      25.928  47.791  50.342  1.00  0.00     0.726 A 
HETATM    5  N   UNL     1      24.828  47.063  50.685  1.00  0.00    -0.083 N 
HETATM    6  N   UNL     1      25.018  46.374  51.825  1.00  0.00    -0.135 NA
HETATM    7  C   UNL     1      26.287  46.718  52.127  1.00  0.00     0.200 A 
HETATM    8  N   UNL     1      26.880  47.561  51.204  1.00  0.00    -0.041 NA
HETATM    9  C   UNL     1      23.569  47.092  49.941  1.00  0.00     0.202 C 
HETATM   10  C   UNL     1      23.504  48.312  49.024  1.00  0.00     0.062 C 
HETATM   11  H   UNL     1      26.635  49.268  49.145  1.00  0.00     0.184 HD
ENDROOT
BRANCH  10  12
HETATM   12  C   UNL     1      22.152  48.854  48.678  1.00  0.00     0.256 C 
HETATM   13  N   UNL     1      21.606  49.695  49.624  1.00  0.00    -0.323 N 
HETATM   14  H   UNL     1      22.082  49.799  50.509  1.00  0.00     0.169 HD
HETATM   15  O   UNL     1      21.662  48.580  47.587  1.00  0.00    -0.267 OA
BRANCH  13  16
HETATM   16  C   UNL     1      20.430  50.468  49.500  1.00  0.00     0.035 A 
HETATM   17  C   UNL     1      19.227  50.177  50.145  1.00  0.00     0.029 A 
HETATM   18  C   UNL     1      18.102  50.986  49.949  1.00  0.00     0.002 A 
HETATM   19  C   UNL     1      18.167  52.085  49.098  1.00  0.00     0.000 A 
HETATM   20  C   UNL     1      19.362  52.385  48.449  1.00  0.00     0.002 A 
HETATM   21  C   UNL     1      20.489  51.584  48.654  1.00  0.00     0.029 A 
ENDBRANCH  13  16
ENDBRANCH  10  12
BRANCH   9  22
HETATM   22  C   UNL     1      23.404  45.762  49.202  1.00  0.00    -0.028 A 
HETATM   23  C   UNL     1      22.130  45.372  48.745  1.00  0.00     0.012 A 
HETATM   24  C   UNL     1      21.952  44.162  48.070  1.00  0.00     0.037 A 
HETATM   25  C   UNL     1      23.046  43.331  47.851  1.00  0.00     0.065 A 
HETATM   26  C   UNL     1      24.309  43.688  48.303  1.00  0.00     0.037 A 
HETATM   27  C   UNL     1      24.488  44.892  48.984  1.00  0.00     0.012 A 
BRANCH  25  28
HETATM   28  O   UNL     1      22.918  42.142  47.200  1.00  0.00    -0.361 OA
HETATM   29  H   UNL     1      22.056  42.116  46.755  1.00  0.00     0.217 HD
ENDBRANCH  25  28
ENDBRANCH   9  22
BRANCH   7  30
HETATM   30  C   UNL     1      26.979  46.218  53.308  1.00  0.00     0.036 A 
HETATM   31  C   UNL     1      27.395  44.884  53.444  1.00  0.00     0.048 A 
HETATM   32 CL   UNL     1      27.185  43.691  52.208  1.00  0.00    -0.083 Cl
HETATM   33  C   UNL     1      28.063  44.471  54.605  1.00  0.00     0.025 A 
HETATM   34  C   UNL     1      28.327  45.375  55.633  1.00  0.00     0.002 A 
HETATM   35  C   UNL     1      27.928  46.702  55.506  1.00  0.00     0.001 A 
HETATM   36  C   UNL     1      27.261  47.119  54.352  1.00  0.00     0.017 A 
ENDBRANCH   7  30
TORSDOF 5
ENDMDL
MODEL 3
REMARK VINA RESULT:      -9.5      5.278      8.946
REMARK  5 active torsions:
REMARK  status: ('A' for Active; 'I' for Inactive)
REMARK    1  A    between atoms: C_7  and  C_8 
REMARK    2  A    between atoms: C_16  and  C_17 
REMARK    3  A    between atoms: C_20  and  O_21 
REMARK    4  A    between atoms: C_24  and  C_25 
REMARK       I    between atoms: C_25  and  N_26 
REMARK    5  A    between atoms: N_26  and  C_27 
ROOT
HETATM    1  C   UNL     1      26.756  38.771  49.878  1.00  0.00     0.070 C 
HETATM    2  C   UNL     1      26.973  40.201  50.311  1.00  0.00     0.037 C 
HETATM    3  N   UNL     1      27.071  40.404  51.690  1.00  0.00    -0.192 N 
HETATM    4  C   UNL     1      27.561  41.548  52.211  1.00  0.00     0.726 A 
HETATM    5  N   UNL     1      27.689  42.640  51.405  1.00  0.00    -0.083 N 
HETATM    6  N   UNL     1      28.303  43.659  52.035  1.00  0.00    -0.135 NA
HETATM    7  C   UNL     1      28.514  43.120  53.254  1.00  0.00     0.200 A 
HETATM    8  N   UNL     1      28.028  41.832  53.396  1.00  0.00    -0.041 NA
HETATM    9  C   UNL     1      27.278  42.668  50.002  1.00  0.00     0.202 C 
HETATM   10  C   UNL     1      27.091  41.253  49.459  1.00  0.00     0.062 C 
HETATM   11  H   UNL     1      27.128  39.568  52.268  1.00  0.00     0.184 HD
ENDROOT
BRANCH  10  12
HETATM   12  C   UNL     1      27.284  41.038  47.991  1.00  0.00     0.256 C 
HETATM   13  N   UNL     1      26.127  40.789  47.285  1.00  0.00    -0.323 N 
HETATM   14  H   UNL     1      25.266  40.660  47.799  1.00  0.00     0.169 HD
HETATM   15  O   UNL     1      28.409  41.155  47.514  1.00  0.00    -0.267 OA
BRANCH  13  16
HETATM   16  C   UNL     1      25.986  40.705  45.881  1.00  0.00     0.035 A 
HETATM   17  C   UNL     1      26.828  39.965  45.050  1.00  0.00     0.029 A 
HETATM   18  C   UNL     1      26.630  39.954  43.665  1.00  0.00     0.002 A 
HETATM   19  C   UNL     1      25.593  40.690  43.098  1.00  0.00     0.000 A 
HETATM   20  C   UNL     1      24.746  41.433  43.918  1.00  0.00     0.002 A 
HETATM   21  C   UNL     1      24.938  41.434  45.302  1.00  0.00     0.029 A 
ENDBRANCH  13  16
ENDBRANCH  10  12
BRANCH   9  22
HETATM   22  C   UNL     1      26.027  43.542  49.875  1.00  0.00    -0.028 A 
HETATM   23  C   UNL     1      26.162  44.907  49.552  1.00  0.00     0.012 A 
HETATM   24  C   UNL     1      25.036  45.726  49.432  1.00  0.00     0.037 A 
HETATM   25  C   UNL     1      23.770  45.189  49.637  1.00  0.00     0.065 A 
HETATM   26  C   UNL     1      23.613  43.850  49.968  1.00  0.00     0.037 A 
HETATM   27  C   UNL     1      24.735  43.031  50.096  1.00  0.00     0.012 A 
BRANCH  25  28
HETATM   28  O   UNL     1      22.647  45.951  49.532  1.00  0.00    -0.361 OA
HETATM   29  H   UNL     1      22.830  46.834  49.892  1.00  0.00     0.217 HD
ENDBRANCH  25  28
ENDBRANCH   9  22
BRANCH   7  30
HETATM   30  C   UNL     1      29.170  43.848  54.333  1.00  0.00     0.036 A 
HETATM   31  C   UNL     1      28.695  45.071  54.830  1.00  0.00     0.048 A 
HETATM   32 CL   UNL     1      27.249  45.834  54.260  1.00  0.00    -0.083 Cl
HETATM   33  C   UNL     1      29.369  45.715  55.877  1.00  0.00     0.025 A 
HETATM   34  C   UNL     1      30.513  45.149  56.440  1.00  0.00     0.002 A 
HETATM   35  C   UNL     1      30.989  43.932  55.961  1.00  0.00     0.001 A 
HETATM   36  C   UNL     1      30.320  43.286  54.918  1.00  0.00     0.017 A 
ENDBRANCH   7  30
TORSDOF 5
ENDMDL
MODEL 4
REMARK VINA RESULT:      -9.3      1.500      2.114
REMARK  5 active torsions:
REMARK  status: ('A' for Active; 'I' for Inactive)
REMARK    1  A    between atoms: C_7  and  C_8 
REMARK    2  A    between atoms: C_16  and  C_17 
REMARK    3  A    between atoms: C_20  and  O_21 
REMARK    4  A    between atoms: C_24  and  C_25 
REMARK       I    between atoms: C_25  and  N_26 
REMARK    5  A    between atoms: N_26  and  C_27 
ROOT
HETATM    1  C   UNL     1      24.017  43.163  48.535  1.00  0.00     0.070 C 
HETATM    2  C   UNL     1      23.757  44.634  48.749  1.00  0.00     0.037 C 
HETATM    3  N   UNL     1      22.964  45.253  47.780  1.00  0.00    -0.192 N 
HETATM    4  C   UNL     1      22.398  46.460  47.984  1.00  0.00     0.726 A 
HETATM    5  N   UNL     1      22.836  47.230  49.021  1.00  0.00    -0.083 N 
HETATM    6  N   UNL     1      22.094  48.343  49.167  1.00  0.00    -0.135 NA
HETATM    7  C   UNL     1      21.211  48.201  48.157  1.00  0.00     0.200 A 
HETATM    8  N   UNL     1      21.405  47.066  47.391  1.00  0.00    -0.041 NA
HETATM    9  C   UNL     1      23.931  46.847  49.911  1.00  0.00     0.202 C 
HETATM   10  C   UNL     1      24.225  45.352  49.805  1.00  0.00     0.062 C 
HETATM   11  H   UNL     1      22.518  44.639  47.101  1.00  0.00     0.184 HD
ENDROOT
BRANCH  10  12
HETATM   12  C   UNL     1      24.821  44.671  50.997  1.00  0.00     0.256 C 
HETATM   13  N   UNL     1      26.195  44.571  50.979  1.00  0.00    -0.323 N 
HETATM   14  H   UNL     1      26.689  44.850  50.143  1.00  0.00     0.169 HD
HETATM   15  O   UNL     1      24.083  44.316  51.911  1.00  0.00    -0.267 OA
BRANCH  13  16
HETATM   16  C   UNL     1      27.031  44.124  52.028  1.00  0.00     0.035 A 
HETATM   17  C   UNL     1      27.263  44.837  53.205  1.00  0.00     0.029 A 
HETATM   18  C   UNL     1      28.125  44.331  54.184  1.00  0.00     0.002 A 
HETATM   19  C   UNL     1      28.769  43.113  53.991  1.00  0.00     0.000 A 
HETATM   20  C   UNL     1      28.544  42.392  52.820  1.00  0.00     0.002 A 
HETATM   21  C   UNL     1      27.675  42.893  51.847  1.00  0.00     0.029 A 
ENDBRANCH  13  16
ENDBRANCH  10  12
BRANCH   9  22
HETATM   22  C   UNL     1      25.143  47.732  49.608  1.00  0.00    -0.028 A 
HETATM   23  C   UNL     1      24.980  48.890  48.823  1.00  0.00     0.012 A 
HETATM   24  C   UNL     1      26.071  49.713  48.530  1.00  0.00     0.037 A 
HETATM   25  C   UNL     1      27.331  49.381  49.016  1.00  0.00     0.065 A 
HETATM   26  C   UNL     1      27.518  48.238  49.781  1.00  0.00     0.037 A 
HETATM   27  C   UNL     1      26.433  47.411  50.068  1.00  0.00     0.012 A 
BRANCH  25  28
HETATM   28  O   UNL     1      28.422  50.154  48.753  1.00  0.00    -0.361 OA
HETATM   29  H   UNL     1      28.490  50.289  47.794  1.00  0.00     0.217 HD
ENDBRANCH  25  28
ENDBRANCH   9  22
BRANCH   7  30
HETATM   30  C   UNL     1      20.164  49.177  47.884  1.00  0.00     0.036 A 
HETATM   31  C   UNL     1      20.360  50.562  47.999  1.00  0.00     0.048 A 
HETATM   32 CL   UNL     1      21.878  51.277  48.426  1.00  0.00    -0.083 Cl
HETATM   33  C   UNL     1      19.312  51.448  47.712  1.00  0.00     0.025 A 
HETATM   34  C   UNL     1      18.067  50.967  47.306  1.00  0.00     0.002 A 
HETATM   35  C   UNL     1      17.863  49.597  47.180  1.00  0.00     0.001 A 
HETATM   36  C   UNL     1      18.904  48.710  47.465  1.00  0.00     0.017 A 
ENDBRANCH   7  30
TORSDOF 5
ENDMDL
MODEL 5
REMARK VINA RESULT:      -9.3      3.557      6.074
REMARK  5 active torsions:
REMARK  status: ('A' for Active; 'I' for Inactive)
REMARK    1  A    between atoms: C_7  and  C_8 
REMARK    2  A    between atoms: C_16  and  C_17 
REMARK    3  A    between atoms: C_20  and  O_21 
REMARK    4  A    between atoms: C_24  and  C_25 
REMARK       I    between atoms: C_25  and  N_26 
REMARK    5  A    between atoms: N_26  and  C_27 
ROOT
HETATM    1  C   UNL     1      26.968  43.531  54.066  1.00  0.00     0.070 C 
HETATM    2  C   UNL     1      26.499  43.971  52.700  1.00  0.00     0.037 C 
HETATM    3  N   UNL     1      25.690  45.110  52.679  1.00  0.00    -0.192 N 
HETATM    4  C   UNL     1      25.447  45.794  51.542  1.00  0.00     0.726 A 
HETATM    5  N   UNL     1      25.743  45.213  50.345  1.00  0.00    -0.083 N 
HETATM    6  N   UNL     1      25.562  46.062  49.317  1.00  0.00    -0.135 NA
HETATM    7  C   UNL     1      25.129  47.164  49.964  1.00  0.00     0.200 A 
HETATM    8  N   UNL     1      25.014  47.007  51.334  1.00  0.00    -0.041 NA
HETATM    9  C   UNL     1      26.269  43.855  50.209  1.00  0.00     0.202 C 
HETATM   10  C   UNL     1      26.825  43.347  51.537  1.00  0.00     0.062 C 
HETATM   11  H   UNL     1      25.604  45.620  53.556  1.00  0.00     0.184 HD
ENDROOT
BRANCH  10  12
HETATM   12  C   UNL     1      27.910  42.318  51.493  1.00  0.00     0.256 C 
HETATM   13  N   UNL     1      27.543  41.113  50.933  1.00  0.00    -0.323 N 
HETATM   14  H   UNL     1      26.570  40.966  50.700  1.00  0.00     0.169 HD
HETATM   15  O   UNL     1      29.034  42.619  51.883  1.00  0.00    -0.267 OA
BRANCH  13  16
HETATM   16  C   UNL     1      28.388  40.026  50.620  1.00  0.00     0.035 A 
HETATM   17  C   UNL     1      29.093  39.279  51.566  1.00  0.00     0.029 A 
HETATM   18  C   UNL     1      29.928  38.230  51.166  1.00  0.00     0.002 A 
HETATM   19  C   UNL     1      30.072  37.924  49.817  1.00  0.00     0.000 A 
HETATM   20  C   UNL     1      29.374  38.661  48.863  1.00  0.00     0.002 A 
HETATM   21  C   UNL     1      28.532  39.701  49.264  1.00  0.00     0.029 A 
ENDBRANCH  13  16
ENDBRANCH  10  12
BRANCH   9  22
HETATM   22  C   UNL     1      25.173  42.961  49.622  1.00  0.00    -0.028 A 
HETATM   23  C   UNL     1      25.483  42.082  48.566  1.00  0.00     0.012 A 
HETATM   24  C   UNL     1      24.500  41.258  48.012  1.00  0.00     0.037 A 
HETATM   25  C   UNL     1      23.201  41.309  48.507  1.00  0.00     0.065 A 
HETATM   26  C   UNL     1      22.870  42.175  49.540  1.00  0.00     0.037 A 
HETATM   27  C   UNL     1      23.847  43.005  50.089  1.00  0.00     0.012 A 
BRANCH  25  28
HETATM   28  O   UNL     1      22.212  40.524  47.996  1.00  0.00    -0.361 OA
HETATM   29  H   UNL     1      22.225  40.591  47.028  1.00  0.00     0.217 HD
ENDBRANCH  25  28
ENDBRANCH   9  22
BRANCH   7  30
HETATM   30  C   UNL     1      24.785  48.399  49.272  1.00  0.00     0.036 A 
HETATM   31  C   UNL     1      25.747  49.296  48.783  1.00  0.00     0.048 A 
HETATM   32 CL   UNL     1      27.452  49.019  48.897  1.00  0.00    -0.083 Cl
HETATM   33  C   UNL     1      25.347  50.463  48.117  1.00  0.00     0.025 A 
HETATM   34  C   UNL     1      23.994  50.745  47.928  1.00  0.00     0.002 A 
HETATM   35  C   UNL     1      23.031  49.859  48.400  1.00  0.00     0.001 A 
HETATM   36  C   UNL     1      23.424  48.695  49.064  1.00  0.00     0.017 A 
ENDBRANCH   7  30
TORSDOF 5
ENDMDL
MODEL 6
REMARK VINA RESULT:      -9.1      3.554      4.744
REMARK  5 active torsions:
REMARK  status: ('A' for Active; 'I' for Inactive)
REMARK    1  A    between atoms: C_7  and  C_8 
REMARK    2  A    between atoms: C_16  and  C_17 
REMARK    3  A    between atoms: C_20  and  O_21 
REMARK    4  A    between atoms: C_24  and  C_25 
REMARK       I    between atoms: C_25  and  N_26 
REMARK    5  A    between atoms: N_26  and  C_27 
ROOT
HETATM    1  C   UNL     1      26.880  41.594  50.637  1.00  0.00     0.070 C 
HETATM    2  C   UNL     1      26.045  42.803  50.290  1.00  0.00     0.037 C 
HETATM    3  N   UNL     1      25.305  42.705  49.110  1.00  0.00    -0.192 N 
HETATM    4  C   UNL     1      24.296  43.554  48.826  1.00  0.00     0.726 A 
HETATM    5  N   UNL     1      24.178  44.705  49.546  1.00  0.00    -0.083 N 
HETATM    6  N   UNL     1      23.058  45.383  49.231  1.00  0.00    -0.135 NA
HETATM    7  C   UNL     1      22.533  44.584  48.279  1.00  0.00     0.200 A 
HETATM    8  N   UNL     1      23.300  43.471  47.986  1.00  0.00    -0.041 NA
HETATM    9  C   UNL     1      25.118  45.111  50.591  1.00  0.00     0.202 C 
HETATM   10  C   UNL     1      25.969  43.929  51.049  1.00  0.00     0.062 C 
HETATM   11  H   UNL     1      25.281  41.789  48.665  1.00  0.00     0.184 HD
ENDROOT
BRANCH  10  12
HETATM   12  C   UNL     1      26.507  43.954  52.445  1.00  0.00     0.256 C 
HETATM   13  N   UNL     1      27.878  44.065  52.535  1.00  0.00    -0.323 N 
HETATM   14  H   UNL     1      28.424  44.008  51.686  1.00  0.00     0.169 HD
HETATM   15  O   UNL     1      25.722  43.942  53.387  1.00  0.00    -0.267 OA
BRANCH  13  16
HETATM   16  C   UNL     1      28.642  44.269  53.706  1.00  0.00     0.035 A 
HETATM   17  C   UNL     1      28.570  45.414  54.502  1.00  0.00     0.029 A 
HETATM   18  C   UNL     1      29.380  45.544  55.635  1.00  0.00     0.002 A 
HETATM   19  C   UNL     1      30.276  44.535  55.978  1.00  0.00     0.000 A 
HETATM   20  C   UNL     1      30.356  43.388  55.191  1.00  0.00     0.002 A 
HETATM   21  C   UNL     1      29.539  43.253  54.066  1.00  0.00     0.029 A 
ENDBRANCH  13  16
ENDBRANCH  10  12
BRANCH   9  22
HETATM   22  C   UNL     1      25.941  46.295  50.078  1.00  0.00    -0.028 A 
HETATM   23  C   UNL     1      25.384  47.589  50.093  1.00  0.00     0.012 A 
HETATM   24  C   UNL     1      26.115  48.686  49.628  1.00  0.00     0.037 A 
HETATM   25  C   UNL     1      27.404  48.497  49.142  1.00  0.00     0.065 A 
HETATM   26  C   UNL     1      27.969  47.230  49.106  1.00  0.00     0.037 A 
HETATM   27  C   UNL     1      27.240  46.131  49.561  1.00  0.00     0.012 A 
BRANCH  25  28
HETATM   28  O   UNL     1      28.150  49.537  48.677  1.00  0.00    -0.361 OA
HETATM   29  H   UNL     1      27.724  50.371  48.935  1.00  0.00     0.217 HD
ENDBRANCH  25  28
ENDBRANCH   9  22
BRANCH   7  30
HETATM   30  C   UNL     1      21.280  44.889  47.599  1.00  0.00     0.036 A 
HETATM   31  C   UNL     1      21.190  45.091  46.213  1.00  0.00     0.048 A 
HETATM   32 CL   UNL     1      22.542  44.950  45.141  1.00  0.00    -0.083 Cl
HETATM   33  C   UNL     1      19.951  45.373  45.622  1.00  0.00     0.025 A 
HETATM   34  C   UNL     1      18.795  45.452  46.399  1.00  0.00     0.002 A 
HETATM   35  C   UNL     1      18.869  45.245  47.772  1.00  0.00     0.001 A 
HETATM   36  C   UNL     1      20.102  44.964  48.366  1.00  0.00     0.017 A 
ENDBRANCH   7  30
TORSDOF 5
ENDMDL
MODEL 7
REMARK VINA RESULT:      -8.7      4.387      6.738
REMARK  5 active torsions:
REMARK  status: ('A' for Active; 'I' for Inactive)
REMARK    1  A    between atoms: C_7  and  C_8 
REMARK    2  A    between atoms: C_16  and  C_17 
REMARK    3  A    between atoms: C_20  and  O_21 
REMARK    4  A    between atoms: C_24  and  C_25 
REMARK       I    between atoms: C_25  and  N_26 
REMARK    5  A    between atoms: N_26  and  C_27 
ROOT
HETATM    1  C   UNL     1      28.821  41.560  52.022  1.00  0.00     0.070 C 
HETATM    2  C   UNL     1      27.645  42.262  51.387  1.00  0.00     0.037 C 
HETATM    3  N   UNL     1      27.248  41.766  50.143  1.00  0.00    -0.192 N 
HETATM    4  C   UNL     1      26.052  42.074  49.598  1.00  0.00     0.726 A 
HETATM    5  N   UNL     1      25.338  43.113  50.116  1.00  0.00    -0.083 N 
HETATM    6  N   UNL     1      24.121  43.216  49.551  1.00  0.00    -0.135 NA
HETATM    7  C   UNL     1      24.160  42.200  48.664  1.00  0.00     0.200 A 
HETATM    8  N   UNL     1      25.358  41.506  48.650  1.00  0.00    -0.041 NA
HETATM    9  C   UNL     1      25.813  43.961  51.208  1.00  0.00     0.202 C 
HETATM   10  C   UNL     1      26.972  43.299  51.951  1.00  0.00     0.062 C 
HETATM   11  H   UNL     1      27.687  40.898  49.840  1.00  0.00     0.184 HD
ENDROOT
BRANCH  10  12
HETATM   12  C   UNL     1      27.177  43.660  53.389  1.00  0.00     0.256 C 
HETATM   13  N   UNL     1      28.418  44.184  53.683  1.00  0.00    -0.323 N 
HETATM   14  H   UNL     1      29.124  44.187  52.960  1.00  0.00     0.169 HD
HETATM   15  O   UNL     1      26.244  43.532  54.175  1.00  0.00    -0.267 OA
BRANCH  13  16
HETATM   16  C   UNL     1      28.835  44.752  54.907  1.00  0.00     0.035 A 
HETATM   17  C   UNL     1      28.132  45.745  55.593  1.00  0.00     0.029 A 
HETATM   18  C   UNL     1      28.630  46.269  56.791  1.00  0.00     0.002 A 
HETATM   19  C   UNL     1      29.838  45.812  57.309  1.00  0.00     0.000 A 
HETATM   20  C   UNL     1      30.547  44.822  56.634  1.00  0.00     0.002 A 
HETATM   21  C   UNL     1      30.045  44.291  55.443  1.00  0.00     0.029 A 
ENDBRANCH  13  16
ENDBRANCH  10  12
BRANCH   9  22
HETATM   22  C   UNL     1      26.157  45.342  50.644  1.00  0.00    -0.028 A 
HETATM   23  C   UNL     1      25.321  46.439  50.929  1.00  0.00     0.012 A 
HETATM   24  C   UNL     1      25.612  47.709  50.424  1.00  0.00     0.037 A 
HETATM   25  C   UNL     1      26.739  47.890  49.628  1.00  0.00     0.065 A 
HETATM   26  C   UNL     1      27.571  46.822  49.324  1.00  0.00     0.037 A 
HETATM   27  C   UNL     1      27.279  45.551  49.820  1.00  0.00     0.012 A 
BRANCH  25  28
HETATM   28  O   UNL     1      27.059  49.110  49.114  1.00  0.00    -0.361 OA
HETATM   29  H   UNL     1      28.021  49.160  48.998  1.00  0.00     0.217 HD
ENDBRANCH  25  28
ENDBRANCH   9  22
BRANCH   7  30
HETATM   30  C   UNL     1      23.046  41.884  47.780  1.00  0.00     0.036 A 
HETATM   31  C   UNL     1      22.401  42.846  46.988  1.00  0.00     0.048 A 
HETATM   32 CL   UNL     1      22.883  44.507  46.926  1.00  0.00    -0.083 Cl
HETATM   33  C   UNL     1      21.339  42.472  46.151  1.00  0.00     0.025 A 
HETATM   34  C   UNL     1      20.915  41.144  46.092  1.00  0.00     0.002 A 
HETATM   35  C   UNL     1      21.553  40.180  46.866  1.00  0.00     0.001 A 
HETATM   36  C   UNL     1      22.611  40.547  47.701  1.00  0.00     0.017 A 
ENDBRANCH   7  30
TORSDOF 5
ENDMDL
MODEL 8
REMARK VINA RESULT:      -8.6     20.495     22.797
REMARK  5 active torsions:
REMARK  status: ('A' for Active; 'I' for Inactive)
REMARK    1  A    between atoms: C_7  and  C_8 
REMARK    2  A    between atoms: C_16  and  C_17 
REMARK    3  A    between atoms: C_20  and  O_21 
REMARK    4  A    between atoms: C_24  and  C_25 
REMARK       I    between atoms: C_25  and  N_26 
REMARK    5  A    between atoms: N_26  and  C_27 
ROOT
HETATM    1  C   UNL     1      37.434  43.843  63.036  1.00  0.00     0.070 C 
HETATM    2  C   UNL     1      38.115  44.838  63.944  1.00  0.00     0.037 C 
HETATM    3  N   UNL     1      37.704  46.166  63.798  1.00  0.00    -0.192 N 
HETATM    4  C   UNL     1      37.984  47.107  64.723  1.00  0.00     0.726 A 
HETATM    5  N   UNL     1      38.930  46.843  65.668  1.00  0.00    -0.083 N 
HETATM    6  N   UNL     1      39.008  47.824  66.588  1.00  0.00    -0.135 NA
HETATM    7  C   UNL     1      38.075  48.683  66.128  1.00  0.00     0.200 A 
HETATM    8  N   UNL     1      37.459  48.279  64.957  1.00  0.00    -0.041 NA
HETATM    9  C   UNL     1      39.709  45.607  65.716  1.00  0.00     0.202 C 
HETATM   10  C   UNL     1      39.057  44.516  64.869  1.00  0.00     0.062 C 
HETATM   11  H   UNL     1      36.893  46.325  63.203  1.00  0.00     0.184 HD
ENDROOT
BRANCH  10  12
HETATM   12  C   UNL     1      39.306  43.091  65.252  1.00  0.00     0.256 C 
HETATM   13  N   UNL     1      40.005  42.355  64.320  1.00  0.00    -0.323 N 
HETATM   14  H   UNL     1      40.199  42.773  63.421  1.00  0.00     0.169 HD
HETATM   15  O   UNL     1      38.943  42.699  66.357  1.00  0.00    -0.267 OA
BRANCH  13  16
HETATM   16  C   UNL     1      40.513  41.046  64.476  1.00  0.00     0.035 A 
HETATM   17  C   UNL     1      41.564  40.707  65.331  1.00  0.00     0.029 A 
HETATM   18  C   UNL     1      42.021  39.387  65.407  1.00  0.00     0.002 A 
HETATM   19  C   UNL     1      41.439  38.396  64.623  1.00  0.00     0.000 A 
HETATM   20  C   UNL     1      40.390  38.721  63.766  1.00  0.00     0.002 A 
HETATM   21  C   UNL     1      39.926  40.038  63.699  1.00  0.00     0.029 A 
ENDBRANCH  13  16
ENDBRANCH  10  12
BRANCH   9  22
HETATM   22  C   UNL     1      41.152  45.918  65.309  1.00  0.00    -0.028 A 
HETATM   23  C   UNL     1      41.939  46.757  66.121  1.00  0.00     0.012 A 
HETATM   24  C   UNL     1      43.258  47.059  65.769  1.00  0.00     0.037 A 
HETATM   25  C   UNL     1      43.796  46.527  64.602  1.00  0.00     0.065 A 
HETATM   26  C   UNL     1      43.035  45.708  63.779  1.00  0.00     0.037 A 
HETATM   27  C   UNL     1      41.716  45.412  64.123  1.00  0.00     0.012 A 
BRANCH  25  28
HETATM   28  O   UNL     1      45.075  46.796  64.220  1.00  0.00    -0.361 OA
HETATM   29  H   UNL     1      45.413  46.050  63.700  1.00  0.00     0.217 HD
ENDBRANCH  25  28
ENDBRANCH   9  22
BRANCH   7  30
HETATM   30  C   UNL     1      37.769  49.942  66.795  1.00  0.00     0.036 A 
HETATM   31  C   UNL     1      37.205  50.011  68.079  1.00  0.00     0.048 A 
HETATM   32 CL   UNL     1      36.855  48.615  69.041  1.00  0.00    -0.083 Cl
HETATM   33  C   UNL     1      36.944  51.257  68.666  1.00  0.00     0.025 A 
HETATM   34  C   UNL     1      37.243  52.439  67.989  1.00  0.00     0.002 A 
HETATM   35  C   UNL     1      37.811  52.384  66.720  1.00  0.00     0.001 A 
HETATM   36  C   UNL     1      38.073  51.145  66.130  1.00  0.00     0.017 A 
ENDBRANCH   7  30
TORSDOF 5
ENDMDL
MODEL 9
REMARK VINA RESULT:      -8.6      1.838      2.442
REMARK  5 active torsions:
REMARK  status: ('A' for Active; 'I' for Inactive)
REMARK    1  A    between atoms: C_7  and  C_8 
REMARK    2  A    between atoms: C_16  and  C_17 
REMARK    3  A    between atoms: C_20  and  O_21 
REMARK    4  A    between atoms: C_24  and  C_25 
REMARK       I    between atoms: C_25  and  N_26 
REMARK    5  A    between atoms: N_26  and  C_27 
ROOT
HETATM    1  C   UNL     1      21.077  44.646  45.843  1.00  0.00     0.070 C 
HETATM    2  C   UNL     1      21.068  45.841  46.765  1.00  0.00     0.037 C 
HETATM    3  N   UNL     1      20.280  46.917  46.349  1.00  0.00    -0.192 N 
HETATM    4  C   UNL     1      19.929  47.913  47.188  1.00  0.00     0.726 A 
HETATM    5  N   UNL     1      20.585  48.039  48.376  1.00  0.00    -0.083 N 
HETATM    6  N   UNL     1      20.041  48.996  49.151  1.00  0.00    -0.135 NA
HETATM    7  C   UNL     1      19.045  49.438  48.355  1.00  0.00     0.200 A 
HETATM    8  N   UNL     1      18.983  48.810  47.124  1.00  0.00    -0.041 NA
HETATM    9  C   UNL     1      21.696  47.182  48.786  1.00  0.00     0.202 C 
HETATM   10  C   UNL     1      21.747  45.911  47.941  1.00  0.00     0.062 C 
HETATM   11  H   UNL     1      19.678  46.752  45.544  1.00  0.00     0.184 HD
ENDROOT
BRANCH  10  12
HETATM   12  C   UNL     1      22.354  44.688  48.553  1.00  0.00     0.256 C 
HETATM   13  N   UNL     1      23.647  44.423  48.158  1.00  0.00    -0.323 N 
HETATM   14  H   UNL     1      24.051  44.984  47.420  1.00  0.00     0.169 HD
HETATM   15  O   UNL     1      21.712  44.057  49.387  1.00  0.00    -0.267 OA
BRANCH  13  16
HETATM   16  C   UNL     1      24.516  43.440  48.684  1.00  0.00     0.035 A 
HETATM   17  C   UNL     1      24.333  42.065  48.526  1.00  0.00     0.029 A 
HETATM   18  C   UNL     1      25.231  41.158  49.100  1.00  0.00     0.002 A 
HETATM   19  C   UNL     1      26.314  41.618  49.844  1.00  0.00     0.000 A 
HETATM   20  C   UNL     1      26.506  42.988  50.008  1.00  0.00     0.002 A 
HETATM   21  C   UNL     1      25.616  43.893  49.425  1.00  0.00     0.029 A 
ENDBRANCH  13  16
ENDBRANCH  10  12
BRANCH   9  22
HETATM   22  C   UNL     1      22.990  47.999  48.740  1.00  0.00    -0.028 A 
HETATM   23  C   UNL     1      24.097  47.596  49.512  1.00  0.00     0.012 A 
HETATM   24  C   UNL     1      25.288  48.326  49.489  1.00  0.00     0.037 A 
HETATM   25  C   UNL     1      25.379  49.466  48.698  1.00  0.00     0.065 A 
HETATM   26  C   UNL     1      24.298  49.890  47.937  1.00  0.00     0.037 A 
HETATM   27  C   UNL     1      23.105  49.168  47.965  1.00  0.00     0.012 A 
BRANCH  25  28
HETATM   28  O   UNL     1      26.520  50.208  48.647  1.00  0.00    -0.361 OA
HETATM   29  H   UNL     1      26.838  50.360  49.551  1.00  0.00     0.217 HD
ENDBRANCH  25  28
ENDBRANCH   9  22
BRANCH   7  30
HETATM   30  C   UNL     1      18.136  50.506  48.752  1.00  0.00     0.036 A 
HETATM   31  C   UNL     1      16.740  50.402  48.647  1.00  0.00     0.048 A 
HETATM   32 CL   UNL     1      15.931  48.977  48.087  1.00  0.00    -0.083 Cl
HETATM   33  C   UNL     1      15.923  51.465  49.056  1.00  0.00     0.025 A 
HETATM   34  C   UNL     1      16.482  52.633  49.574  1.00  0.00     0.002 A 
HETATM   35  C   UNL     1      17.864  52.745  49.690  1.00  0.00     0.001 A 
HETATM   36  C   UNL     1      18.683  51.689  49.284  1.00  0.00     0.017 A 
ENDBRANCH   7  30
TORSDOF 5
ENDMDL
MODEL 10
REMARK VINA RESULT:      -8.5      4.355      9.072
REMARK  5 active torsions:
REMARK  status: ('A' for Active; 'I' for Inactive)
REMARK    1  A    between atoms: C_7  and  C_8 
REMARK    2  A    between atoms: C_16  and  C_17 
REMARK    3  A    between atoms: C_20  and  O_21 
REMARK    4  A    between atoms: C_24  and  C_25 
REMARK       I    between atoms: C_25  and  N_26 
REMARK    5  A    between atoms: N_26  and  C_27 
ROOT
HETATM    1  C   UNL     1      18.453  45.260  47.895  1.00  0.00     0.070 C 
HETATM    2  C   UNL     1      19.311  46.501  47.927  1.00  0.00     0.037 C 
HETATM    3  N   UNL     1      20.433  46.438  48.757  1.00  0.00    -0.192 N 
HETATM    4  C   UNL     1      21.443  47.327  48.664  1.00  0.00     0.726 A 
HETATM    5  N   UNL     1      21.248  48.479  47.961  1.00  0.00    -0.083 N 
HETATM    6  N   UNL     1      22.379  49.200  47.856  1.00  0.00    -0.135 NA
HETATM    7  C   UNL     1      23.244  48.427  48.545  1.00  0.00     0.200 A 
HETATM    8  N   UNL     1      22.678  47.286  49.085  1.00  0.00    -0.041 NA
HETATM    9  C   UNL     1      19.978  48.842  47.333  1.00  0.00     0.202 C 
HETATM   10  C   UNL     1      19.064  47.626  47.204  1.00  0.00     0.062 C 
HETATM   11  H   UNL     1      20.651  45.526  49.154  1.00  0.00     0.184 HD
ENDROOT
BRANCH  10  12
HETATM   12  C   UNL     1      18.055  47.624  46.098  1.00  0.00     0.256 C 
HETATM   13  N   UNL     1      16.750  47.801  46.505  1.00  0.00    -0.323 N 
HETATM   14  H   UNL     1      16.550  47.805  47.496  1.00  0.00     0.169 HD
HETATM   15  O   UNL     1      18.443  47.535  44.937  1.00  0.00    -0.267 OA
BRANCH  13  16
HETATM   16  C   UNL     1      15.619  47.997  45.681  1.00  0.00     0.035 A 
HETATM   17  C   UNL     1      15.241  47.138  44.647  1.00  0.00     0.029 A 
HETATM   18  C   UNL     1      14.117  47.420  43.864  1.00  0.00     0.002 A 
HETATM   19  C   UNL     1      13.367  48.568  44.100  1.00  0.00     0.000 A 
HETATM   20  C   UNL     1      13.734  49.433  45.129  1.00  0.00     0.002 A 
HETATM   21  C   UNL     1      14.850  49.145  45.918  1.00  0.00     0.029 A 
ENDBRANCH  13  16
ENDBRANCH  10  12
BRANCH   9  22
HETATM   22  C   UNL     1      19.353  49.996  48.121  1.00  0.00    -0.028 A 
HETATM   23  C   UNL     1      18.498  49.717  49.205  1.00  0.00     0.012 A 
HETATM   24  C   UNL     1      17.913  50.752  49.939  1.00  0.00     0.037 A 
HETATM   25  C   UNL     1      18.175  52.073  49.591  1.00  0.00     0.065 A 
HETATM   26  C   UNL     1      19.004  52.373  48.519  1.00  0.00     0.037 A 
HETATM   27  C   UNL     1      19.583  51.342  47.780  1.00  0.00     0.012 A 
BRANCH  25  28
HETATM   28  O   UNL     1      17.625  53.113  50.278  1.00  0.00    -0.361 OA
HETATM   29  H   UNL     1      16.982  53.563  49.706  1.00  0.00     0.217 HD
ENDBRANCH  25  28
ENDBRANCH   9  22
BRANCH   7  30
HETATM   30  C   UNL     1      24.645  48.784  48.726  1.00  0.00     0.036 A 
HETATM   31  C   UNL     1      25.510  48.081  49.579  1.00  0.00     0.048 A 
HETATM   32 CL   UNL     1      25.032  46.677  50.473  1.00  0.00    -0.083 Cl
HETATM   33  C   UNL     1      26.851  48.472  49.700  1.00  0.00     0.025 A 
HETATM   34  C   UNL     1      27.342  49.558  48.976  1.00  0.00     0.002 A 
HETATM   35  C   UNL     1      26.497  50.258  48.121  1.00  0.00     0.001 A 
HETATM   36  C   UNL     1      25.160  49.872  47.996  1.00  0.00     0.017 A 
ENDBRANCH   7  30
TORSDOF 5
ENDMDL
