MODEL 1
REMARK VINA RESULT:      -8.5      0.000      0.000
REMARK  10 active torsions:
REMARK  status: ('A' for Active; 'I' for Inactive)
REMARK    1  A    between atoms: C_2  and  C_3 
REMARK    2  A    between atoms: C_3  and  N_4 
REMARK    3  A    between atoms: C_10  and  C_11 
REMARK    4  A    between atoms: C_11  and  C_12 
REMARK    5  A    between atoms: C_12  and  S_13 
REMARK    6  A    between atoms: S_13  and  C_14 
REMARK    7  A    between atoms: N_15  and  C_16 
REMARK    8  A    between atoms: C_23  and  C_24 
REMARK    9  A    between atoms: C_24  and  N_25 
REMARK   10  A    between atoms: C_33  and  N_34 
ROOT
HETATM    1  S   UNL     1      25.019  43.850  51.180  1.00  0.00    -0.082 SA
ENDROOT
BRANCH   1   2
HETATM    2  C   UNL     1      25.957  44.927  50.051  1.00  0.00     0.166 C 
BRANCH   2   3
HETATM    3  C   UNL     1      26.162  46.304  50.673  1.00  0.00     0.177 C 
HETATM    4  O   UNL     1      26.429  46.454  51.872  1.00  0.00    -0.291 OA
BRANCH   3   5
HETATM    5  C   UNL     1      26.085  47.499  49.771  1.00  0.00     0.117 A 
HETATM    6  C   UNL     1      27.265  47.904  48.986  1.00  0.00     0.266 A 
HETATM    7  N   UNL     1      27.160  49.058  48.283  1.00  0.00    -0.274 N 
HETATM    8  O   UNL     1      28.284  47.221  48.961  1.00  0.00    -0.267 OA
HETATM    9  C   UNL     1      26.042  49.829  48.190  1.00  0.00     0.330 A 
HETATM   10  H   UNL     1      27.957  49.360  47.743  1.00  0.00     0.173 HD
HETATM   11  N   UNL     1      24.928  49.384  48.900  1.00  0.00    -0.289 N 
HETATM   12  O   UNL     1      26.076  50.848  47.503  1.00  0.00    -0.246 OA
HETATM   13  C   UNL     1      24.945  48.228  49.689  1.00  0.00     0.103 A 
BRANCH  11  14
HETATM   14  C   UNL     1      23.738  50.248  48.843  1.00  0.00     0.135 C 
BRANCH  14  15
HETATM   15  C   UNL     1      22.723  49.841  47.768  1.00  0.00     0.016 C 
HETATM   16  C   UNL     1      21.418  50.618  47.849  1.00  0.00     0.006 C 
ENDBRANCH  14  15
ENDBRANCH  11  14
BRANCH  13  17
HETATM   17  N   UNL     1      23.799  47.850  50.386  1.00  0.00    -0.287 NA
HETATM   18  H   UNL     1      24.024  47.409  51.285  1.00  0.00     0.125 HD
HETATM   19  H   UNL     1      23.204  47.225  49.849  1.00  0.00     0.125 HD
ENDBRANCH  13  17
ENDBRANCH   3   5
ENDBRANCH   2   3
ENDBRANCH   1   2
BRANCH   1  20
HETATM   20  C   UNL     1      25.466  42.287  50.582  1.00  0.00     0.196 A 
HETATM   21  N   UNL     1      26.635  41.622  50.903  1.00  0.00    -0.274 N 
HETATM   22  C   UNL     1      26.629  40.505  50.065  1.00  0.00     0.166 A 
HETATM   23  N   UNL     1      25.553  40.544  49.304  1.00  0.00    -0.131 NA
HETATM   24  N   UNL     1      24.830  41.653  49.625  1.00  0.00    -0.122 NA
BRANCH  21  25
HETATM   25  C   UNL     1      27.600  41.964  51.884  1.00  0.00     0.043 A 
HETATM   26  C   UNL     1      28.533  42.977  51.620  1.00  0.00     0.032 A 
HETATM   27  C   UNL     1      29.476  43.328  52.588  1.00  0.00     0.026 A 
HETATM   28  C   UNL     1      29.493  42.666  53.812  1.00  0.00     0.034 A 
HETATM   29 CL   UNL     1      30.653  43.099  55.004  1.00  0.00    -0.084 Cl
HETATM   30  C   UNL     1      28.575  41.650  54.077  1.00  0.00     0.026 A 
HETATM   31  C   UNL     1      27.625  41.294  53.114  1.00  0.00     0.032 A 
ENDBRANCH  21  25
BRANCH  22  32
HETATM   32  C   UNL     1      27.610  39.370  50.089  1.00  0.00     0.254 C 
HETATM   33  C   UNL     1      27.014  38.078  49.520  1.00  0.00     0.049 C 
BRANCH  32  34
HETATM   34  N   UNL     1      28.953  39.649  49.370  1.00  0.00    -0.068 N 
HETATM   35  H   UNL     1      29.490  40.254  50.002  1.00  0.00     0.279 HD
HETATM   36  C   UNL     1      29.823  38.442  49.117  1.00  0.00     0.270 C 
HETATM   37  C   UNL     1      28.768  40.441  48.099  1.00  0.00     0.270 C 
ENDBRANCH  32  34
ENDBRANCH  22  32
ENDBRANCH   1  20
TORSDOF 10
ENDMDL
MODEL 2
REMARK VINA RESULT:      -8.1      3.549      5.778
REMARK  10 active torsions:
REMARK  status: ('A' for Active; 'I' for Inactive)
REMARK    1  A    between atoms: C_2  and  C_3 
REMARK    2  A    between atoms: C_3  and  N_4 
REMARK    3  A    between atoms: C_10  and  C_11 
REMARK    4  A    between atoms: C_11  and  C_12 
REMARK    5  A    between atoms: C_12  and  S_13 
REMARK    6  A    between atoms: S_13  and  C_14 
REMARK    7  A    between atoms: N_15  and  C_16 
REMARK    8  A    between atoms: C_23  and  C_24 
REMARK    9  A    between atoms: C_24  and  N_25 
REMARK   10  A    between atoms: C_33  and  N_34 
ROOT
HETATM    1  S   UNL     1      24.195  47.053  49.925  1.00  0.00    -0.082 SA
ENDROOT
BRANCH   1   2
HETATM    2  C   UNL     1      24.792  48.672  49.348  1.00  0.00     0.166 C 
BRANCH   2   3
HETATM    3  C   UNL     1      23.824  49.269  48.332  1.00  0.00     0.177 C 
HETATM    4  O   UNL     1      24.213  49.910  47.347  1.00  0.00    -0.291 OA
BRANCH   3   5
HETATM    5  C   UNL     1      22.360  49.013  48.524  1.00  0.00     0.117 A 
HETATM    6  C   UNL     1      21.690  47.959  47.741  1.00  0.00     0.266 A 
HETATM    7  N   UNL     1      20.345  47.860  47.881  1.00  0.00    -0.274 N 
HETATM    8  O   UNL     1      22.322  47.202  47.010  1.00  0.00    -0.267 OA
HETATM    9  C   UNL     1      19.580  48.602  48.728  1.00  0.00     0.330 A 
HETATM   10  H   UNL     1      19.863  47.151  47.349  1.00  0.00     0.173 HD
HETATM   11  N   UNL     1      20.257  49.549  49.495  1.00  0.00    -0.289 N 
HETATM   12  O   UNL     1      18.369  48.400  48.769  1.00  0.00    -0.246 OA
HETATM   13  C   UNL     1      21.637  49.759  49.396  1.00  0.00     0.103 A 
BRANCH  11  14
HETATM   14  C   UNL     1      19.422  50.388  50.369  1.00  0.00     0.135 C 
BRANCH  14  15
HETATM   15  C   UNL     1      19.000  51.720  49.736  1.00  0.00     0.016 C 
HETATM   16  C   UNL     1      17.525  52.037  49.932  1.00  0.00     0.006 C 
ENDBRANCH  14  15
ENDBRANCH  11  14
BRANCH  13  17
HETATM   17  N   UNL     1      22.247  50.735  50.182  1.00  0.00    -0.287 NA
HETATM   18  H   UNL     1      22.043  50.607  51.180  1.00  0.00     0.125 HD
HETATM   19  H   UNL     1      21.983  51.677  49.907  1.00  0.00     0.125 HD
ENDBRANCH  13  17
ENDBRANCH   3   5
ENDBRANCH   2   3
ENDBRANCH   1   2
BRANCH   1  20
HETATM   20  C   UNL     1      25.300  46.745  51.223  1.00  0.00     0.196 A 
HETATM   21  N   UNL     1      25.822  45.504  51.540  1.00  0.00    -0.274 N 
HETATM   22  C   UNL     1      26.509  45.722  52.735  1.00  0.00     0.166 A 
HETATM   23  N   UNL     1      26.367  46.985  53.089  1.00  0.00    -0.131 NA
HETATM   24  N   UNL     1      25.614  47.621  52.149  1.00  0.00    -0.122 NA
BRANCH  21  25
HETATM   25  C   UNL     1      25.724  44.295  50.805  1.00  0.00     0.043 A 
HETATM   26  C   UNL     1      24.594  43.479  50.955  1.00  0.00     0.032 A 
HETATM   27  C   UNL     1      24.485  42.295  50.223  1.00  0.00     0.026 A 
HETATM   28  C   UNL     1      25.504  41.924  49.349  1.00  0.00     0.034 A 
HETATM   29 CL   UNL     1      25.369  40.467  48.447  1.00  0.00    -0.084 Cl
HETATM   30  C   UNL     1      26.635  42.726  49.204  1.00  0.00     0.026 A 
HETATM   31  C   UNL     1      26.751  43.915  49.931  1.00  0.00     0.032 A 
ENDBRANCH  21  25
BRANCH  22  32
HETATM   32  C   UNL     1      27.375  44.732  53.458  1.00  0.00     0.254 C 
HETATM   33  C   UNL     1      28.004  45.326  54.722  1.00  0.00     0.049 C 
BRANCH  32  34
HETATM   34  N   UNL     1      26.675  43.403  53.836  1.00  0.00    -0.068 N 
HETATM   35  H   UNL     1      26.037  43.191  53.059  1.00  0.00     0.279 HD
HETATM   36  C   UNL     1      27.579  42.201  53.967  1.00  0.00     0.270 C 
HETATM   37  C   UNL     1      25.803  43.543  55.059  1.00  0.00     0.270 C 
ENDBRANCH  32  34
ENDBRANCH  22  32
ENDBRANCH   1  20
TORSDOF 10
ENDMDL
MODEL 3
REMARK VINA RESULT:      -8.0      4.574      6.795
REMARK  10 active torsions:
REMARK  status: ('A' for Active; 'I' for Inactive)
REMARK    1  A    between atoms: C_2  and  C_3 
REMARK    2  A    between atoms: C_3  and  N_4 
REMARK    3  A    between atoms: C_10  and  C_11 
REMARK    4  A    between atoms: C_11  and  C_12 
REMARK    5  A    between atoms: C_12  and  S_13 
REMARK    6  A    between atoms: S_13  and  C_14 
REMARK    7  A    between atoms: N_15  and  C_16 
REMARK    8  A    between atoms: C_23  and  C_24 
REMARK    9  A    between atoms: C_24  and  N_25 
REMARK   10  A    between atoms: C_33  and  N_34 
ROOT
HETATM    1  S   UNL     1      23.536  44.190  48.824  1.00  0.00    -0.082 SA
ENDROOT
BRANCH   1   2
HETATM    2  C   UNL     1      21.821  44.631  49.244  1.00  0.00     0.166 C 
BRANCH   2   3
HETATM    3  C   UNL     1      21.304  45.719  48.309  1.00  0.00     0.177 C 
HETATM    4  O   UNL     1      21.973  46.145  47.358  1.00  0.00    -0.291 OA
BRANCH   3   5
HETATM    5  C   UNL     1      19.916  46.237  48.535  1.00  0.00     0.117 A 
HETATM    6  C   UNL     1      18.753  45.409  48.168  1.00  0.00     0.266 A 
HETATM    7  N   UNL     1      17.533  45.985  48.292  1.00  0.00    -0.274 N 
HETATM    8  O   UNL     1      18.886  44.251  47.782  1.00  0.00    -0.267 OA
HETATM    9  C   UNL     1      17.292  47.230  48.788  1.00  0.00     0.330 A 
HETATM   10  H   UNL     1      16.722  45.441  48.040  1.00  0.00     0.173 HD
HETATM   11  N   UNL     1      18.412  47.962  49.179  1.00  0.00    -0.289 N 
HETATM   12  O   UNL     1      16.132  47.628  48.862  1.00  0.00    -0.246 OA
HETATM   13  C   UNL     1      19.718  47.475  49.053  1.00  0.00     0.103 A 
BRANCH  11  14
HETATM   14  C   UNL     1      18.155  49.328  49.662  1.00  0.00     0.135 C 
BRANCH  14  15
HETATM   15  C   UNL     1      18.258  50.404  48.573  1.00  0.00     0.016 C 
HETATM   16  C   UNL     1      19.051  51.627  49.010  1.00  0.00     0.006 C 
ENDBRANCH  14  15
ENDBRANCH  11  14
BRANCH  13  17
HETATM   17  N   UNL     1      20.793  48.268  49.449  1.00  0.00    -0.287 NA
HETATM   18  H   UNL     1      21.557  48.249  48.763  1.00  0.00     0.125 HD
HETATM   19  H   UNL     1      21.158  48.004  50.360  1.00  0.00     0.125 HD
ENDBRANCH  13  17
ENDBRANCH   3   5
ENDBRANCH   2   3
ENDBRANCH   1   2
BRANCH   1  20
HETATM   20  C   UNL     1      24.267  44.205  50.393  1.00  0.00     0.196 A 
HETATM   21  N   UNL     1      25.153  45.167  50.844  1.00  0.00    -0.274 N 
HETATM   22  C   UNL     1      25.591  44.672  52.074  1.00  0.00     0.166 A 
HETATM   23  N   UNL     1      25.020  43.504  52.296  1.00  0.00    -0.131 NA
HETATM   24  N   UNL     1      24.197  43.214  51.250  1.00  0.00    -0.122 NA
BRANCH  21  25
HETATM   25  C   UNL     1      25.509  46.393  50.228  1.00  0.00     0.043 A 
HETATM   26  C   UNL     1      26.832  46.608  49.816  1.00  0.00     0.032 A 
HETATM   27  C   UNL     1      27.185  47.808  49.195  1.00  0.00     0.026 A 
HETATM   28  C   UNL     1      26.222  48.792  48.990  1.00  0.00     0.034 A 
HETATM   29 CL   UNL     1      26.656  50.268  48.224  1.00  0.00    -0.084 Cl
HETATM   30  C   UNL     1      24.906  48.588  49.406  1.00  0.00     0.026 A 
HETATM   31  C   UNL     1      24.544  47.389  50.027  1.00  0.00     0.032 A 
ENDBRANCH  21  25
BRANCH  22  32
HETATM   32  C   UNL     1      26.473  45.386  53.057  1.00  0.00     0.254 C 
HETATM   33  C   UNL     1      25.666  46.169  54.097  1.00  0.00     0.049 C 
BRANCH  32  34
HETATM   34  N   UNL     1      27.489  44.483  53.801  1.00  0.00    -0.068 N 
HETATM   35  H   UNL     1      26.937  43.725  54.219  1.00  0.00     0.279 HD
HETATM   36  C   UNL     1      28.524  43.811  52.933  1.00  0.00     0.270 C 
HETATM   37  C   UNL     1      28.150  45.196  54.955  1.00  0.00     0.270 C 
ENDBRANCH  32  34
ENDBRANCH  22  32
ENDBRANCH   1  20
TORSDOF 10
ENDMDL
MODEL 4
REMARK VINA RESULT:      -7.8      4.717      9.696
REMARK  10 active torsions:
REMARK  status: ('A' for Active; 'I' for Inactive)
REMARK    1  A    between atoms: C_2  and  C_3 
REMARK    2  A    between atoms: C_3  and  N_4 
REMARK    3  A    between atoms: C_10  and  C_11 
REMARK    4  A    between atoms: C_11  and  C_12 
REMARK    5  A    between atoms: C_12  and  S_13 
REMARK    6  A    between atoms: S_13  and  C_14 
REMARK    7  A    between atoms: N_15  and  C_16 
REMARK    8  A    between atoms: C_23  and  C_24 
REMARK    9  A    between atoms: C_24  and  N_25 
REMARK   10  A    between atoms: C_33  and  N_34 
ROOT
HETATM    1  S   UNL     1      23.155  48.377  49.148  1.00  0.00    -0.082 SA
ENDROOT
BRANCH   1   2
HETATM    2  C   UNL     1      24.036  46.910  49.768  1.00  0.00     0.166 C 
BRANCH   2   3
HETATM    3  C   UNL     1      25.433  47.288  50.248  1.00  0.00     0.177 C 
HETATM    4  O   UNL     1      25.932  48.398  50.018  1.00  0.00    -0.291 OA
BRANCH   3   5
HETATM    5  C   UNL     1      26.188  46.287  51.068  1.00  0.00     0.117 A 
HETATM    6  C   UNL     1      26.886  45.170  50.406  1.00  0.00     0.266 A 
HETATM    7  N   UNL     1      27.450  44.241  51.215  1.00  0.00    -0.274 N 
HETATM    8  O   UNL     1      26.963  45.097  49.183  1.00  0.00    -0.267 OA
HETATM    9  C   UNL     1      27.483  44.290  52.575  1.00  0.00     0.330 A 
HETATM   10  H   UNL     1      27.927  43.462  50.785  1.00  0.00     0.173 HD
HETATM   11  N   UNL     1      26.863  45.391  53.164  1.00  0.00    -0.289 N 
HETATM   12  O   UNL     1      28.042  43.386  53.191  1.00  0.00    -0.246 OA
HETATM   13  C   UNL     1      26.216  46.385  52.420  1.00  0.00     0.103 A 
BRANCH  11  14
HETATM   14  C   UNL     1      26.850  45.414  54.636  1.00  0.00     0.135 C 
BRANCH  14  15
HETATM   15  C   UNL     1      27.928  46.313  55.254  1.00  0.00     0.016 C 
HETATM   16  C   UNL     1      29.176  45.552  55.675  1.00  0.00     0.006 C 
ENDBRANCH  14  15
ENDBRANCH  11  14
BRANCH  13  17
HETATM   17  N   UNL     1      25.602  47.450  53.076  1.00  0.00    -0.287 NA
HETATM   18  H   UNL     1      25.871  48.355  52.674  1.00  0.00     0.125 HD
HETATM   19  H   UNL     1      25.796  47.458  54.074  1.00  0.00     0.125 HD
ENDBRANCH  13  17
ENDBRANCH   3   5
ENDBRANCH   2   3
ENDBRANCH   1   2
BRANCH   1  20
HETATM   20  C   UNL     1      22.147  47.661  47.936  1.00  0.00     0.196 A 
HETATM   21  N   UNL     1      20.837  48.023  47.681  1.00  0.00    -0.274 N 
HETATM   22  C   UNL     1      20.398  47.073  46.757  1.00  0.00     0.166 A 
HETATM   23  N   UNL     1      21.374  46.217  46.523  1.00  0.00    -0.131 NA
HETATM   24  N   UNL     1      22.462  46.583  47.257  1.00  0.00    -0.122 NA
BRANCH  21  25
HETATM   25  C   UNL     1      20.112  49.126  48.199  1.00  0.00     0.043 A 
HETATM   26  C   UNL     1      19.303  48.957  49.332  1.00  0.00     0.032 A 
HETATM   27  C   UNL     1      18.599  50.043  49.856  1.00  0.00     0.026 A 
HETATM   28  C   UNL     1      18.698  51.292  49.249  1.00  0.00     0.034 A 
HETATM   29 CL   UNL     1      17.833  52.629  49.895  1.00  0.00    -0.084 Cl
HETATM   30  C   UNL     1      19.493  51.464  48.116  1.00  0.00     0.026 A 
HETATM   31  C   UNL     1      20.203  50.382  47.586  1.00  0.00     0.032 A 
ENDBRANCH  21  25
BRANCH  22  32
HETATM   32  C   UNL     1      19.079  47.071  46.041  1.00  0.00     0.254 C 
HETATM   33  C   UNL     1      19.204  46.573  44.598  1.00  0.00     0.049 C 
BRANCH  32  34
HETATM   34  N   UNL     1      17.954  46.269  46.742  1.00  0.00    -0.068 N 
HETATM   35  H   UNL     1      18.404  45.782  47.526  1.00  0.00     0.279 HD
HETATM   36  C   UNL     1      16.844  47.092  47.349  1.00  0.00     0.270 C 
HETATM   37  C   UNL     1      17.385  45.188  45.856  1.00  0.00     0.270 C 
ENDBRANCH  32  34
ENDBRANCH  22  32
ENDBRANCH   1  20
TORSDOF 10
ENDMDL
MODEL 5
REMARK VINA RESULT:      -7.7     11.415     13.342
REMARK  10 active torsions:
REMARK  status: ('A' for Active; 'I' for Inactive)
REMARK    1  A    between atoms: C_2  and  C_3 
REMARK    2  A    between atoms: C_3  and  N_4 
REMARK    3  A    between atoms: C_10  and  C_11 
REMARK    4  A    between atoms: C_11  and  C_12 
REMARK    5  A    between atoms: C_12  and  S_13 
REMARK    6  A    between atoms: S_13  and  C_14 
REMARK    7  A    between atoms: N_15  and  C_16 
REMARK    8  A    between atoms: C_23  and  C_24 
REMARK    9  A    between atoms: C_24  and  N_25 
REMARK   10  A    between atoms: C_33  and  N_34 
ROOT
HETATM    1  S   UNL     1      28.559  47.189  40.999  1.00  0.00    -0.082 SA
ENDROOT
BRANCH   1   2
HETATM    2  C   UNL     1      29.648  47.550  39.587  1.00  0.00     0.166 C 
BRANCH   2   3
HETATM    3  C   UNL     1      31.067  47.840  40.065  1.00  0.00     0.177 C 
HETATM    4  O   UNL     1      31.895  46.940  40.255  1.00  0.00    -0.291 OA
BRANCH   3   5
HETATM    5  C   UNL     1      31.465  49.272  40.254  1.00  0.00     0.117 A 
HETATM    6  C   UNL     1      31.372  50.216  39.126  1.00  0.00     0.266 A 
HETATM    7  N   UNL     1      31.856  51.464  39.336  1.00  0.00    -0.274 N 
HETATM    8  O   UNL     1      30.868  49.888  38.056  1.00  0.00    -0.267 OA
HETATM    9  C   UNL     1      32.354  51.932  40.514  1.00  0.00     0.330 A 
HETATM   10  H   UNL     1      31.811  52.126  38.576  1.00  0.00     0.173 HD
HETATM   11  N   UNL     1      32.373  51.028  41.575  1.00  0.00    -0.289 N 
HETATM   12  O   UNL     1      32.748  53.094  40.574  1.00  0.00    -0.246 OA
HETATM   13  C   UNL     1      31.934  49.705  41.451  1.00  0.00     0.103 A 
BRANCH  11  14
HETATM   14  C   UNL     1      32.963  51.519  42.831  1.00  0.00     0.135 C 
BRANCH  14  15
HETATM   15  C   UNL     1      34.481  51.319  42.926  1.00  0.00     0.016 C 
HETATM   16  C   UNL     1      35.148  52.249  43.928  1.00  0.00     0.006 C 
ENDBRANCH  14  15
ENDBRANCH  11  14
BRANCH  13  17
HETATM   17  N   UNL     1      31.997  48.850  42.549  1.00  0.00    -0.287 NA
HETATM   18  H   UNL     1      32.802  48.215  42.496  1.00  0.00     0.125 HD
HETATM   19  H   UNL     1      31.149  48.303  42.666  1.00  0.00     0.125 HD
ENDBRANCH  13  17
ENDBRANCH   3   5
ENDBRANCH   2   3
ENDBRANCH   1   2
BRANCH   1  20
HETATM   20  C   UNL     1      27.004  47.472  40.289  1.00  0.00     0.196 A 
HETATM   21  N   UNL     1      26.493  48.718  39.975  1.00  0.00    -0.274 N 
HETATM   22  C   UNL     1      25.176  48.456  39.595  1.00  0.00     0.166 A 
HETATM   23  N   UNL     1      24.943  47.163  39.710  1.00  0.00    -0.131 NA
HETATM   24  N   UNL     1      26.081  46.551  40.143  1.00  0.00    -0.122 NA
BRANCH  21  25
HETATM   25  C   UNL     1      27.158  49.970  39.990  1.00  0.00     0.043 A 
HETATM   26  C   UNL     1      27.519  50.551  41.213  1.00  0.00     0.032 A 
HETATM   27  C   UNL     1      28.187  51.778  41.234  1.00  0.00     0.026 A 
HETATM   28  C   UNL     1      28.488  52.424  40.039  1.00  0.00     0.034 A 
HETATM   29 CL   UNL     1      29.311  53.932  40.064  1.00  0.00    -0.084 Cl
HETATM   30  C   UNL     1      28.121  51.856  38.819  1.00  0.00     0.026 A 
HETATM   31  C   UNL     1      27.454  50.627  38.789  1.00  0.00     0.032 A 
ENDBRANCH  21  25
BRANCH  22  32
HETATM   32  C   UNL     1      24.199  49.446  39.030  1.00  0.00     0.254 C 
HETATM   33  C   UNL     1      23.617  48.984  37.690  1.00  0.00     0.049 C 
BRANCH  32  34
HETATM   34  N   UNL     1      23.028  49.821  39.972  1.00  0.00    -0.068 N 
HETATM   35  H   UNL     1      23.461  50.106  40.858  1.00  0.00     0.279 HD
HETATM   36  C   UNL     1      22.183  50.991  39.530  1.00  0.00     0.270 C 
HETATM   37  C   UNL     1      22.155  48.635  40.301  1.00  0.00     0.270 C 
ENDBRANCH  32  34
ENDBRANCH  22  32
ENDBRANCH   1  20
TORSDOF 10
ENDMDL
MODEL 6
REMARK VINA RESULT:      -7.6      4.471      9.536
REMARK  10 active torsions:
REMARK  status: ('A' for Active; 'I' for Inactive)
REMARK    1  A    between atoms: C_2  and  C_3 
REMARK    2  A    between atoms: C_3  and  N_4 
REMARK    3  A    between atoms: C_10  and  C_11 
REMARK    4  A    between atoms: C_11  and  C_12 
REMARK    5  A    between atoms: C_12  and  S_13 
REMARK    6  A    between atoms: S_13  and  C_14 
REMARK    7  A    between atoms: N_15  and  C_16 
REMARK    8  A    between atoms: C_23  and  C_24 
REMARK    9  A    between atoms: C_24  and  N_25 
REMARK   10  A    between atoms: C_33  and  N_34 
ROOT
HETATM    1  S   UNL     1      23.431  47.450  49.205  1.00  0.00    -0.082 SA
ENDROOT
BRANCH   1   2
HETATM    2  C   UNL     1      24.390  45.930  49.491  1.00  0.00     0.166 C 
BRANCH   2   3
HETATM    3  C   UNL     1      25.794  46.268  49.981  1.00  0.00     0.177 C 
HETATM    4  O   UNL     1      26.582  46.946  49.309  1.00  0.00    -0.291 OA
BRANCH   3   5
HETATM    5  C   UNL     1      26.192  45.798  51.347  1.00  0.00     0.117 A 
HETATM    6  C   UNL     1      25.886  46.626  52.528  1.00  0.00     0.266 A 
HETATM    7  N   UNL     1      26.376  46.195  53.716  1.00  0.00    -0.274 N 
HETATM    8  O   UNL     1      25.209  47.646  52.438  1.00  0.00    -0.267 OA
HETATM    9  C   UNL     1      27.064  45.037  53.916  1.00  0.00     0.330 A 
HETATM   10  H   UNL     1      26.187  46.749  54.537  1.00  0.00     0.173 HD
HETATM   11  N   UNL     1      27.284  44.251  52.786  1.00  0.00    -0.289 N 
HETATM   12  O   UNL     1      27.440  44.756  55.051  1.00  0.00    -0.246 OA
HETATM   13  C   UNL     1      26.855  44.625  51.507  1.00  0.00     0.103 A 
BRANCH  11  14
HETATM   14  C   UNL     1      28.075  43.028  52.994  1.00  0.00     0.135 C 
BRANCH  14  15
HETATM   15  C   UNL     1      29.587  43.228  52.834  1.00  0.00     0.016 C 
HETATM   16  C   UNL     1      30.358  43.040  54.132  1.00  0.00     0.006 C 
ENDBRANCH  14  15
ENDBRANCH  11  14
BRANCH  13  17
HETATM   17  N   UNL     1      27.125  43.799  50.418  1.00  0.00    -0.287 NA
HETATM   18  H   UNL     1      27.532  42.902  50.708  1.00  0.00     0.125 HD
HETATM   19  H   UNL     1      27.738  44.238  49.737  1.00  0.00     0.125 HD
ENDBRANCH  13  17
ENDBRANCH   3   5
ENDBRANCH   2   3
ENDBRANCH   1   2
BRANCH   1  20
HETATM   20  C   UNL     1      22.387  46.936  47.922  1.00  0.00     0.196 A 
HETATM   21  N   UNL     1      21.136  47.466  47.660  1.00  0.00    -0.274 N 
HETATM   22  C   UNL     1      20.620  46.635  46.664  1.00  0.00     0.166 A 
HETATM   23  N   UNL     1      21.497  45.687  46.397  1.00  0.00    -0.131 NA
HETATM   24  N   UNL     1      22.596  45.874  47.180  1.00  0.00    -0.122 NA
BRANCH  21  25
HETATM   25  C   UNL     1      20.528  48.611  48.233  1.00  0.00     0.043 A 
HETATM   26  C   UNL     1      20.733  49.871  47.654  1.00  0.00     0.032 A 
HETATM   27  C   UNL     1      20.125  51.001  48.206  1.00  0.00     0.026 A 
HETATM   28  C   UNL     1      19.319  50.874  49.334  1.00  0.00     0.034 A 
HETATM   29 CL   UNL     1      18.569  52.264  50.012  1.00  0.00    -0.084 Cl
HETATM   30  C   UNL     1      19.120  49.624  49.920  1.00  0.00     0.026 A 
HETATM   31  C   UNL     1      19.724  48.487  49.373  1.00  0.00     0.032 A 
ENDBRANCH  21  25
BRANCH  22  32
HETATM   32  C   UNL     1      19.333  46.834  45.917  1.00  0.00     0.254 C 
HETATM   33  C   UNL     1      19.535  46.804  44.399  1.00  0.00     0.049 C 
BRANCH  32  34
HETATM   34  N   UNL     1      18.203  45.841  46.283  1.00  0.00    -0.068 N 
HETATM   35  H   UNL     1      18.550  44.911  46.019  1.00  0.00     0.279 HD
HETATM   36  C   UNL     1      17.859  45.752  47.750  1.00  0.00     0.270 C 
HETATM   37  C   UNL     1      16.957  46.064  45.462  1.00  0.00     0.270 C 
ENDBRANCH  32  34
ENDBRANCH  22  32
ENDBRANCH   1  20
TORSDOF 10
ENDMDL
MODEL 7
REMARK VINA RESULT:      -7.6      3.582      6.051
REMARK  10 active torsions:
REMARK  status: ('A' for Active; 'I' for Inactive)
REMARK    1  A    between atoms: C_2  and  C_3 
REMARK    2  A    between atoms: C_3  and  N_4 
REMARK    3  A    between atoms: C_10  and  C_11 
REMARK    4  A    between atoms: C_11  and  C_12 
REMARK    5  A    between atoms: C_12  and  S_13 
REMARK    6  A    between atoms: S_13  and  C_14 
REMARK    7  A    between atoms: N_15  and  C_16 
REMARK    8  A    between atoms: C_23  and  C_24 
REMARK    9  A    between atoms: C_24  and  N_25 
REMARK   10  A    between atoms: C_33  and  N_34 
ROOT
HETATM    1  S   UNL     1      26.390  44.692  49.643  1.00  0.00    -0.082 SA
ENDROOT
BRANCH   1   2
HETATM    2  C   UNL     1      25.381  45.836  50.636  1.00  0.00     0.166 C 
BRANCH   2   3
HETATM    3  C   UNL     1      25.061  45.225  51.996  1.00  0.00     0.177 C 
HETATM    4  O   UNL     1      24.035  44.562  52.196  1.00  0.00    -0.291 OA
BRANCH   3   5
HETATM    5  C   UNL     1      26.062  45.400  53.097  1.00  0.00     0.117 A 
HETATM    6  C   UNL     1      26.263  46.729  53.702  1.00  0.00     0.266 A 
HETATM    7  N   UNL     1      27.263  46.838  54.610  1.00  0.00    -0.274 N 
HETATM    8  O   UNL     1      25.550  47.684  53.406  1.00  0.00    -0.267 OA
HETATM    9  C   UNL     1      28.044  45.815  55.055  1.00  0.00     0.330 A 
HETATM   10  H   UNL     1      27.425  47.740  55.033  1.00  0.00     0.173 HD
HETATM   11  N   UNL     1      27.786  44.561  54.503  1.00  0.00    -0.289 N 
HETATM   12  O   UNL     1      28.909  46.047  55.896  1.00  0.00    -0.246 OA
HETATM   13  C   UNL     1      26.804  44.350  53.528  1.00  0.00     0.103 A 
BRANCH  11  14
HETATM   14  C   UNL     1      28.667  43.468  54.942  1.00  0.00     0.135 C 
BRANCH  14  15
HETATM   15  C   UNL     1      30.039  43.458  54.255  1.00  0.00     0.016 C 
HETATM   16  C   UNL     1      30.073  42.610  52.993  1.00  0.00     0.006 C 
ENDBRANCH  14  15
ENDBRANCH  11  14
BRANCH  13  17
HETATM   17  N   UNL     1      26.611  43.073  53.007  1.00  0.00    -0.287 NA
HETATM   18  H   UNL     1      25.763  43.017  52.429  1.00  0.00     0.125 HD
HETATM   19  H   UNL     1      26.567  42.359  53.729  1.00  0.00     0.125 HD
ENDBRANCH  13  17
ENDBRANCH   3   5
ENDBRANCH   2   3
ENDBRANCH   1   2
BRANCH   1  20
HETATM   20  C   UNL     1      25.155  43.709  48.929  1.00  0.00     0.196 A 
HETATM   21  N   UNL     1      25.270  42.353  48.679  1.00  0.00    -0.274 N 
HETATM   22  C   UNL     1      24.115  42.045  47.958  1.00  0.00     0.166 A 
HETATM   23  N   UNL     1      23.409  43.145  47.784  1.00  0.00    -0.131 NA
HETATM   24  N   UNL     1      24.057  44.180  48.388  1.00  0.00    -0.122 NA
BRANCH  21  25
HETATM   25  C   UNL     1      26.295  41.466  49.093  1.00  0.00     0.043 A 
HETATM   26  C   UNL     1      26.179  40.788  50.314  1.00  0.00     0.032 A 
HETATM   27  C   UNL     1      27.179  39.902  50.720  1.00  0.00     0.026 A 
HETATM   28  C   UNL     1      28.293  39.697  49.912  1.00  0.00     0.034 A 
HETATM   29 CL   UNL     1      29.523  38.605  50.410  1.00  0.00    -0.084 Cl
HETATM   30  C   UNL     1      28.420  40.376  48.700  1.00  0.00     0.026 A 
HETATM   31  C   UNL     1      27.423  41.264  48.286  1.00  0.00     0.032 A 
ENDBRANCH  21  25
BRANCH  22  32
HETATM   32  C   UNL     1      23.667  40.675  47.539  1.00  0.00     0.254 C 
HETATM   33  C   UNL     1      22.143  40.578  47.414  1.00  0.00     0.049 C 
BRANCH  32  34
HETATM   34  N   UNL     1      24.303  40.149  46.228  1.00  0.00    -0.068 N 
HETATM   35  H   UNL     1      23.523  39.798  45.660  1.00  0.00     0.279 HD
HETATM   36  C   UNL     1      24.999  41.184  45.379  1.00  0.00     0.270 C 
HETATM   37  C   UNL     1      25.208  38.966  46.465  1.00  0.00     0.270 C 
ENDBRANCH  32  34
ENDBRANCH  22  32
ENDBRANCH   1  20
TORSDOF 10
ENDMDL
MODEL 8
REMARK VINA RESULT:      -7.5      9.783     12.145
REMARK  10 active torsions:
REMARK  status: ('A' for Active; 'I' for Inactive)
REMARK    1  A    between atoms: C_2  and  C_3 
REMARK    2  A    between atoms: C_3  and  N_4 
REMARK    3  A    between atoms: C_10  and  C_11 
REMARK    4  A    between atoms: C_11  and  C_12 
REMARK    5  A    between atoms: C_12  and  S_13 
REMARK    6  A    between atoms: S_13  and  C_14 
REMARK    7  A    between atoms: N_15  and  C_16 
REMARK    8  A    between atoms: C_23  and  C_24 
REMARK    9  A    between atoms: C_24  and  N_25 
REMARK   10  A    between atoms: C_33  and  N_34 
ROOT
HETATM    1  S   UNL     1      27.089  49.164  37.980  1.00  0.00    -0.082 SA
ENDROOT
BRANCH   1   2
HETATM    2  C   UNL     1      27.062  50.524  39.189  1.00  0.00     0.166 C 
BRANCH   2   3
HETATM    3  C   UNL     1      28.121  51.566  38.846  1.00  0.00     0.177 C 
HETATM    4  O   UNL     1      28.019  52.311  37.862  1.00  0.00    -0.291 OA
BRANCH   3   5
HETATM    5  C   UNL     1      29.288  51.713  39.774  1.00  0.00     0.117 A 
HETATM    6  C   UNL     1      29.090  52.286  41.118  1.00  0.00     0.266 A 
HETATM    7  N   UNL     1      30.205  52.496  41.860  1.00  0.00    -0.274 N 
HETATM    8  O   UNL     1      27.969  52.546  41.546  1.00  0.00    -0.267 OA
HETATM    9  C   UNL     1      31.473  52.161  41.495  1.00  0.00     0.330 A 
HETATM   10  H   UNL     1      30.096  52.895  42.780  1.00  0.00     0.173 HD
HETATM   11  N   UNL     1      31.614  51.568  40.241  1.00  0.00    -0.289 N 
HETATM   12  O   UNL     1      32.398  52.393  42.270  1.00  0.00    -0.246 OA
HETATM   13  C   UNL     1      30.532  51.345  39.381  1.00  0.00     0.103 A 
BRANCH  11  14
HETATM   14  C   UNL     1      32.991  51.258  39.824  1.00  0.00     0.135 C 
BRANCH  14  15
HETATM   15  C   UNL     1      33.739  52.447  39.209  1.00  0.00     0.016 C 
HETATM   16  C   UNL     1      35.162  52.595  39.726  1.00  0.00     0.006 C 
ENDBRANCH  14  15
ENDBRANCH  11  14
BRANCH  13  17
HETATM   17  N   UNL     1      30.748  50.763  38.134  1.00  0.00    -0.287 NA
HETATM   18  H   UNL     1      31.173  51.422  37.471  1.00  0.00     0.125 HD
HETATM   19  H   UNL     1      29.897  50.385  37.728  1.00  0.00     0.125 HD
ENDBRANCH  13  17
ENDBRANCH   3   5
ENDBRANCH   2   3
ENDBRANCH   1   2
BRANCH   1  20
HETATM   20  C   UNL     1      26.561  47.843  38.968  1.00  0.00     0.196 A 
HETATM   21  N   UNL     1      27.349  47.185  39.894  1.00  0.00    -0.274 N 
HETATM   22  C   UNL     1      26.558  46.110  40.307  1.00  0.00     0.166 A 
HETATM   23  N   UNL     1      25.417  46.137  39.646  1.00  0.00    -0.131 NA
HETATM   24  N   UNL     1      25.419  47.215  38.812  1.00  0.00    -0.122 NA
BRANCH  21  25
HETATM   25  C   UNL     1      28.643  47.535  40.356  1.00  0.00     0.043 A 
HETATM   26  C   UNL     1      28.782  48.292  41.528  1.00  0.00     0.032 A 
HETATM   27  C   UNL     1      30.054  48.628  41.997  1.00  0.00     0.026 A 
HETATM   28  C   UNL     1      31.183  48.214  41.295  1.00  0.00     0.034 A 
HETATM   29 CL   UNL     1      32.748  48.626  41.872  1.00  0.00    -0.084 Cl
HETATM   30  C   UNL     1      31.050  47.470  40.123  1.00  0.00     0.026 A 
HETATM   31  C   UNL     1      29.780  47.128  39.648  1.00  0.00     0.032 A 
ENDBRANCH  21  25
BRANCH  22  32
HETATM   32  C   UNL     1      26.880  45.139  41.405  1.00  0.00     0.254 C 
HETATM   33  C   UNL     1      25.736  45.010  42.416  1.00  0.00     0.049 C 
BRANCH  32  34
HETATM   34  N   UNL     1      27.277  43.720  40.929  1.00  0.00    -0.068 N 
HETATM   35  H   UNL     1      27.888  43.340  41.661  1.00  0.00     0.279 HD
HETATM   36  C   UNL     1      26.141  42.736  40.787  1.00  0.00     0.270 C 
HETATM   37  C   UNL     1      28.109  43.750  39.671  1.00  0.00     0.270 C 
ENDBRANCH  32  34
ENDBRANCH  22  32
ENDBRANCH   1  20
TORSDOF 10
ENDMDL
MODEL 9
REMARK VINA RESULT:      -7.4     10.714     12.231
REMARK  10 active torsions:
REMARK  status: ('A' for Active; 'I' for Inactive)
REMARK    1  A    between atoms: C_2  and  C_3 
REMARK    2  A    between atoms: C_3  and  N_4 
REMARK    3  A    between atoms: C_10  and  C_11 
REMARK    4  A    between atoms: C_11  and  C_12 
REMARK    5  A    between atoms: C_12  and  S_13 
REMARK    6  A    between atoms: S_13  and  C_14 
REMARK    7  A    between atoms: N_15  and  C_16 
REMARK    8  A    between atoms: C_23  and  C_24 
REMARK    9  A    between atoms: C_24  and  N_25 
REMARK   10  A    between atoms: C_33  and  N_34 
ROOT
HETATM    1  S   UNL     1      26.925  50.247  39.826  1.00  0.00    -0.082 SA
ENDROOT
BRANCH   1   2
HETATM    2  C   UNL     1      28.118  50.404  38.461  1.00  0.00     0.166 C 
BRANCH   2   3
HETATM    3  C   UNL     1      28.799  51.767  38.499  1.00  0.00     0.177 C 
HETATM    4  O   UNL     1      28.278  52.780  38.014  1.00  0.00    -0.291 OA
BRANCH   3   5
HETATM    5  C   UNL     1      30.120  51.872  39.200  1.00  0.00     0.117 A 
HETATM    6  C   UNL     1      31.360  51.511  38.489  1.00  0.00     0.266 A 
HETATM    7  N   UNL     1      32.502  51.519  39.218  1.00  0.00    -0.274 N 
HETATM    8  O   UNL     1      31.356  51.231  37.294  1.00  0.00    -0.267 OA
HETATM    9  C   UNL     1      32.607  51.896  40.522  1.00  0.00     0.330 A 
HETATM   10  H   UNL     1      33.363  51.268  38.755  1.00  0.00     0.173 HD
HETATM   11  N   UNL     1      31.423  52.287  41.145  1.00  0.00    -0.289 N 
HETATM   12  O   UNL     1      33.710  51.872  41.063  1.00  0.00    -0.246 OA
HETATM   13  C   UNL     1      30.184  52.275  40.493  1.00  0.00     0.103 A 
BRANCH  11  14
HETATM   14  C   UNL     1      31.528  52.640  42.570  1.00  0.00     0.135 C 
BRANCH  14  15
HETATM   15  C   UNL     1      31.912  51.464  43.476  1.00  0.00     0.016 C 
HETATM   16  C   UNL     1      32.853  51.857  44.605  1.00  0.00     0.006 C 
ENDBRANCH  14  15
ENDBRANCH  11  14
BRANCH  13  17
HETATM   17  N   UNL     1      29.037  52.662  41.182  1.00  0.00    -0.287 NA
HETATM   18  H   UNL     1      29.157  53.568  41.651  1.00  0.00     0.125 HD
HETATM   19  H   UNL     1      28.740  51.971  41.866  1.00  0.00     0.125 HD
ENDBRANCH  13  17
ENDBRANCH   3   5
ENDBRANCH   2   3
ENDBRANCH   1   2
BRANCH   1  20
HETATM   20  C   UNL     1      26.717  48.529  39.879  1.00  0.00     0.196 A 
HETATM   21  N   UNL     1      27.739  47.614  40.058  1.00  0.00    -0.274 N 
HETATM   22  C   UNL     1      27.123  46.377  39.862  1.00  0.00     0.166 A 
HETATM   23  N   UNL     1      25.852  46.571  39.566  1.00  0.00    -0.131 NA
HETATM   24  N   UNL     1      25.601  47.910  39.575  1.00  0.00    -0.122 NA
BRANCH  21  25
HETATM   25  C   UNL     1      29.091  47.863  40.404  1.00  0.00     0.043 A 
HETATM   26  C   UNL     1      29.407  48.335  41.686  1.00  0.00     0.032 A 
HETATM   27  C   UNL     1      30.738  48.567  42.038  1.00  0.00     0.026 A 
HETATM   28  C   UNL     1      31.751  48.334  41.111  1.00  0.00     0.034 A 
HETATM   29 CL   UNL     1      33.389  48.619  41.544  1.00  0.00    -0.084 Cl
HETATM   30  C   UNL     1      31.443  47.874  39.831  1.00  0.00     0.026 A 
HETATM   31  C   UNL     1      30.112  47.637  39.472  1.00  0.00     0.032 A 
ENDBRANCH  21  25
BRANCH  22  32
HETATM   32  C   UNL     1      27.750  45.029  40.066  1.00  0.00     0.254 C 
HETATM   33  C   UNL     1      26.987  44.185  41.093  1.00  0.00     0.049 C 
BRANCH  32  34
HETATM   34  N   UNL     1      27.930  44.188  38.777  1.00  0.00    -0.068 N 
HETATM   35  H   UNL     1      27.556  44.763  38.013  1.00  0.00     0.279 HD
HETATM   36  C   UNL     1      29.356  43.872  38.396  1.00  0.00     0.270 C 
HETATM   37  C   UNL     1      27.097  42.930  38.793  1.00  0.00     0.270 C 
ENDBRANCH  32  34
ENDBRANCH  22  32
ENDBRANCH   1  20
TORSDOF 10
ENDMDL
MODEL 10
REMARK VINA RESULT:      -7.3      4.589      8.558
REMARK  10 active torsions:
REMARK  status: ('A' for Active; 'I' for Inactive)
REMARK    1  A    between atoms: C_2  and  C_3 
REMARK    2  A    between atoms: C_3  and  N_4 
REMARK    3  A    between atoms: C_10  and  C_11 
REMARK    4  A    between atoms: C_11  and  C_12 
REMARK    5  A    between atoms: C_12  and  S_13 
REMARK    6  A    between atoms: S_13  and  C_14 
REMARK    7  A    between atoms: N_15  and  C_16 
REMARK    8  A    between atoms: C_23  and  C_24 
REMARK    9  A    between atoms: C_24  and  N_25 
REMARK   10  A    between atoms: C_33  and  N_34 
ROOT
HETATM    1  S   UNL     1      24.735  45.602  51.040  1.00  0.00    -0.082 SA
ENDROOT
BRANCH   1   2
HETATM    2  C   UNL     1      25.940  44.327  51.527  1.00  0.00     0.166 C 
BRANCH   2   3
HETATM    3  C   UNL     1      25.992  44.191  53.045  1.00  0.00     0.177 C 
HETATM    4  O   UNL     1      24.967  44.166  53.740  1.00  0.00    -0.291 OA
BRANCH   3   5
HETATM    5  C   UNL     1      27.335  44.031  53.690  1.00  0.00     0.117 A 
HETATM    6  C   UNL     1      28.040  42.739  53.606  1.00  0.00     0.266 A 
HETATM    7  N   UNL     1      29.194  42.631  54.308  1.00  0.00    -0.274 N 
HETATM    8  O   UNL     1      27.609  41.816  52.922  1.00  0.00    -0.267 OA
HETATM    9  C   UNL     1      29.784  43.629  55.022  1.00  0.00     0.330 A 
HETATM   10  H   UNL     1      29.692  41.754  54.272  1.00  0.00     0.173 HD
HETATM   11  N   UNL     1      29.117  44.853  55.031  1.00  0.00    -0.289 N 
HETATM   12  O   UNL     1      30.842  43.402  55.603  1.00  0.00    -0.246 OA
HETATM   13  C   UNL     1      27.899  45.058  54.373  1.00  0.00     0.103 A 
BRANCH  11  14
HETATM   14  C   UNL     1      29.725  45.915  55.849  1.00  0.00     0.135 C 
BRANCH  14  15
HETATM   15  C   UNL     1      29.249  45.928  57.307  1.00  0.00     0.016 C 
HETATM   16  C   UNL     1      30.354  45.611  58.303  1.00  0.00     0.006 C 
ENDBRANCH  14  15
ENDBRANCH  11  14
BRANCH  13  17
HETATM   17  N   UNL     1      27.278  46.303  54.437  1.00  0.00    -0.287 NA
HETATM   18  H   UNL     1      27.941  47.051  54.676  1.00  0.00     0.125 HD
HETATM   19  H   UNL     1      26.506  46.321  55.097  1.00  0.00     0.125 HD
ENDBRANCH  13  17
ENDBRANCH   3   5
ENDBRANCH   2   3
ENDBRANCH   1   2
BRANCH   1  20
HETATM   20  C   UNL     1      24.181  44.963  49.529  1.00  0.00     0.196 A 
HETATM   21  N   UNL     1      23.290  45.595  48.682  1.00  0.00    -0.274 N 
HETATM   22  C   UNL     1      23.023  44.641  47.699  1.00  0.00     0.166 A 
HETATM   23  N   UNL     1      23.689  43.537  47.978  1.00  0.00    -0.131 NA
HETATM   24  N   UNL     1      24.409  43.738  49.117  1.00  0.00    -0.122 NA
BRANCH  21  25
HETATM   25  C   UNL     1      22.790  46.920  48.761  1.00  0.00     0.043 A 
HETATM   26  C   UNL     1      21.406  47.142  48.775  1.00  0.00     0.032 A 
HETATM   27  C   UNL     1      20.908  48.444  48.868  1.00  0.00     0.026 A 
HETATM   28  C   UNL     1      21.789  49.520  48.941  1.00  0.00     0.034 A 
HETATM   29 CL   UNL     1      21.176  51.121  49.056  1.00  0.00    -0.084 Cl
HETATM   30  C   UNL     1      23.167  49.306  48.916  1.00  0.00     0.026 A 
HETATM   31  C   UNL     1      23.674  48.005  48.825  1.00  0.00     0.032 A 
ENDBRANCH  21  25
BRANCH  22  32
HETATM   32  C   UNL     1      22.210  44.848  46.454  1.00  0.00     0.254 C 
HETATM   33  C   UNL     1      23.006  44.534  45.184  1.00  0.00     0.049 C 
BRANCH  32  34
HETATM   34  N   UNL     1      20.876  44.063  46.404  1.00  0.00    -0.068 N 
HETATM   35  H   UNL     1      20.786  43.604  47.318  1.00  0.00     0.279 HD
HETATM   36  C   UNL     1      19.630  44.900  46.239  1.00  0.00     0.270 C 
HETATM   37  C   UNL     1      20.903  42.951  45.385  1.00  0.00     0.270 C 
ENDBRANCH  32  34
ENDBRANCH  22  32
ENDBRANCH   1  20
TORSDOF 10
ENDMDL
