MODEL 1
REMARK VINA RESULT:      -8.9      0.000      0.000
REMARK  8 active torsions:
REMARK  status: ('A' for Active; 'I' for Inactive)
REMARK    1  A    between atoms: C_2  and  C_3 
REMARK    2  A    between atoms: C_3  and  C_4 
REMARK    3  A    between atoms: C_4  and  N_5 
REMARK       I    between atoms: N_5  and  C_6 
REMARK    4  A    between atoms: C_6  and  C_7 
REMARK    5  A    between atoms: C_14  and  S_15 
REMARK    6  A    between atoms: S_15  and  N_16 
REMARK    7  A    between atoms: N_16  and  C_17 
REMARK    8  A    between atoms: C_19  and  O_20 
ROOT
HETATM    1  C   UNL     1      25.500  45.093  52.278  1.00  0.00     0.098 A 
HETATM    2  C   UNL     1      25.383  46.498  51.793  1.00  0.00     0.201 A 
HETATM    3  O   UNL     1      25.935  47.432  52.369  1.00  0.00    -0.286 OA
HETATM    4  C   UNL     1      24.556  46.756  50.582  1.00  0.00     0.043 A 
HETATM    5  C   UNL     1      23.915  45.675  49.953  1.00  0.00     0.046 A 
HETATM    6  N   UNL     1      24.050  44.387  50.483  1.00  0.00    -0.364 N 
HETATM    7  C   UNL     1      24.419  48.059  50.093  1.00  0.00     0.043 A 
HETATM    8  C   UNL     1      23.609  48.281  48.977  1.00  0.00     0.081 A 
HETATM    9  C   UNL     1      22.963  47.218  48.337  1.00  0.00     0.027 A 
HETATM   10  C   UNL     1      23.114  45.918  48.833  1.00  0.00     0.032 A 
HETATM   11  C   UNL     1      24.834  44.155  51.584  1.00  0.00     0.109 A 
HETATM   12  H   UNL     1      23.668  43.593  49.980  1.00  0.00     0.165 HD
ENDROOT
BRANCH   8  13
HETATM   13  S   UNL     1      23.445  49.940  48.352  1.00  0.00     0.263 S 
HETATM   14  O   UNL     1      23.302  50.811  49.498  1.00  0.00    -0.200 OA
HETATM   15  O   UNL     1      24.485  50.154  47.369  1.00  0.00    -0.200 OA
BRANCH  13  16
HETATM   16  N   UNL     1      21.939  49.900  47.587  1.00  0.00    -0.281 N 
HETATM   17  H   UNL     1      21.994  50.176  46.609  1.00  0.00     0.179 HD
BRANCH  16  18
HETATM   18  C   UNL     1      20.786  50.297  48.321  1.00  0.00     0.045 A 
HETATM   19  C   UNL     1      20.056  49.340  49.029  1.00  0.00     0.066 A 
HETATM   20  C   UNL     1      18.932  49.721  49.761  1.00  0.00     0.070 A 
HETATM   21  C   UNL     1      18.572  51.071  49.807  1.00  0.00     0.037 A 
HETATM   22  C   UNL     1      19.310  52.028  49.111  1.00  0.00     0.005 A 
HETATM   23  C   UNL     1      20.419  51.642  48.361  1.00  0.00     0.030 A 
BRANCH  20  24
HETATM   24  O   UNL     1      18.116  48.885  50.473  1.00  0.00    -0.356 OA
HETATM   25  C   UNL     1      18.576  48.488  51.761  1.00  0.00     0.210 C 
ENDBRANCH  20  24
ENDBRANCH  16  18
ENDBRANCH  13  16
ENDBRANCH   8  13
BRANCH   1  26
HETATM   26  C   UNL     1      26.279  44.673  53.480  1.00  0.00     0.257 C 
HETATM   27  N   UNL     1      27.634  44.867  53.397  1.00  0.00    -0.357 N 
HETATM   28  H   UNL     1      28.019  45.244  52.530  1.00  0.00     0.162 HD
HETATM   29  O   UNL     1      25.728  44.201  54.470  1.00  0.00    -0.267 OA
BRANCH  27  30
HETATM   30  C   UNL     1      28.539  44.568  54.484  1.00  0.00     0.123 C 
BRANCH  30  31
HETATM   31  C   UNL     1      29.390  43.333  54.201  1.00  0.00     0.019 C 
BRANCH  31  32
HETATM   32  C   UNL     1      30.629  43.302  55.096  1.00  0.00    -0.003 C 
HETATM   33  C   UNL     1      30.623  44.442  56.101  1.00  0.00     0.005 C 
ENDBRANCH  31  32
ENDBRANCH  30  31
ENDBRANCH  27  30
ENDBRANCH   1  26
TORSDOF 8
ENDMDL
MODEL 2
REMARK VINA RESULT:      -8.8      2.619      9.255
REMARK  8 active torsions:
REMARK  status: ('A' for Active; 'I' for Inactive)
REMARK    1  A    between atoms: C_2  and  C_3 
REMARK    2  A    between atoms: C_3  and  C_4 
REMARK    3  A    between atoms: C_4  and  N_5 
REMARK       I    between atoms: N_5  and  C_6 
REMARK    4  A    between atoms: C_6  and  C_7 
REMARK    5  A    between atoms: C_14  and  S_15 
REMARK    6  A    between atoms: S_15  and  N_16 
REMARK    7  A    between atoms: N_16  and  C_17 
REMARK    8  A    between atoms: C_19  and  O_20 
ROOT
HETATM    1  C   UNL     1      23.265  47.504  49.127  1.00  0.00     0.098 A 
HETATM    2  C   UNL     1      24.454  47.013  49.882  1.00  0.00     0.201 A 
HETATM    3  O   UNL     1      25.364  47.765  50.221  1.00  0.00    -0.286 OA
HETATM    4  C   UNL     1      24.527  45.563  50.211  1.00  0.00     0.043 A 
HETATM    5  C   UNL     1      23.484  44.717  49.794  1.00  0.00     0.046 A 
HETATM    6  N   UNL     1      22.414  45.246  49.065  1.00  0.00    -0.364 N 
HETATM    7  C   UNL     1      25.624  45.060  50.917  1.00  0.00     0.043 A 
HETATM    8  C   UNL     1      25.688  43.690  51.182  1.00  0.00     0.081 A 
HETATM    9  C   UNL     1      24.660  42.833  50.776  1.00  0.00     0.027 A 
HETATM   10  C   UNL     1      23.564  43.350  50.075  1.00  0.00     0.032 A 
HETATM   11  C   UNL     1      22.342  46.588  48.788  1.00  0.00     0.109 A 
HETATM   12  H   UNL     1      21.617  44.660  48.845  1.00  0.00     0.165 HD
ENDROOT
BRANCH   8  13
HETATM   13  S   UNL     1      27.082  43.056  52.090  1.00  0.00     0.263 S 
HETATM   14  O   UNL     1      27.051  41.615  51.959  1.00  0.00    -0.200 OA
HETATM   15  O   UNL     1      28.250  43.821  51.713  1.00  0.00    -0.200 OA
BRANCH  13  16
HETATM   16  N   UNL     1      26.669  43.401  53.691  1.00  0.00    -0.281 N 
HETATM   17  H   UNL     1      25.710  43.137  53.910  1.00  0.00     0.179 HD
BRANCH  16  18
HETATM   18  C   UNL     1      27.180  44.586  54.292  1.00  0.00     0.045 A 
HETATM   19  C   UNL     1      28.435  44.561  54.906  1.00  0.00     0.066 A 
HETATM   20  C   UNL     1      28.950  45.720  55.487  1.00  0.00     0.070 A 
HETATM   21  C   UNL     1      28.215  46.906  55.412  1.00  0.00     0.037 A 
HETATM   22  C   UNL     1      26.968  46.933  54.786  1.00  0.00     0.005 A 
HETATM   23  C   UNL     1      26.445  45.768  54.228  1.00  0.00     0.030 A 
BRANCH  20  24
HETATM   24  O   UNL     1      30.147  45.826  56.140  1.00  0.00    -0.356 OA
HETATM   25  C   UNL     1      30.094  45.897  57.562  1.00  0.00     0.210 C 
ENDBRANCH  20  24
ENDBRANCH  16  18
ENDBRANCH  13  16
ENDBRANCH   8  13
BRANCH   1  26
HETATM   26  C   UNL     1      23.050  48.921  48.713  1.00  0.00     0.257 C 
HETATM   27  N   UNL     1      22.265  49.665  49.555  1.00  0.00    -0.357 N 
HETATM   28  H   UNL     1      21.860  49.208  50.373  1.00  0.00     0.162 HD
HETATM   29  O   UNL     1      23.559  49.376  47.692  1.00  0.00    -0.267 OA
BRANCH  27  30
HETATM   30  C   UNL     1      21.992  51.069  49.341  1.00  0.00     0.123 C 
BRANCH  30  31
HETATM   31  C   UNL     1      20.724  51.290  48.521  1.00  0.00     0.019 C 
BRANCH  31  32
HETATM   32  C   UNL     1      19.555  51.697  49.417  1.00  0.00    -0.003 C 
HETATM   33  C   UNL     1      18.503  52.479  48.647  1.00  0.00     0.005 C 
ENDBRANCH  31  32
ENDBRANCH  30  31
ENDBRANCH  27  30
ENDBRANCH   1  26
TORSDOF 8
ENDMDL
MODEL 3
REMARK VINA RESULT:      -8.7      0.975      1.647
REMARK  8 active torsions:
REMARK  status: ('A' for Active; 'I' for Inactive)
REMARK    1  A    between atoms: C_2  and  C_3 
REMARK    2  A    between atoms: C_3  and  C_4 
REMARK    3  A    between atoms: C_4  and  N_5 
REMARK       I    between atoms: N_5  and  C_6 
REMARK    4  A    between atoms: C_6  and  C_7 
REMARK    5  A    between atoms: C_14  and  S_15 
REMARK    6  A    between atoms: S_15  and  N_16 
REMARK    7  A    between atoms: N_16  and  C_17 
REMARK    8  A    between atoms: C_19  and  O_20 
ROOT
HETATM    1  C   UNL     1      25.522  45.020  52.169  1.00  0.00     0.098 A 
HETATM    2  C   UNL     1      25.375  46.431  51.709  1.00  0.00     0.201 A 
HETATM    3  O   UNL     1      25.925  47.364  52.289  1.00  0.00    -0.286 OA
HETATM    4  C   UNL     1      24.521  46.696  50.519  1.00  0.00     0.043 A 
HETATM    5  C   UNL     1      23.883  45.616  49.885  1.00  0.00     0.046 A 
HETATM    6  N   UNL     1      24.046  44.322  50.391  1.00  0.00    -0.364 N 
HETATM    7  C   UNL     1      24.355  48.004  50.054  1.00  0.00     0.043 A 
HETATM    8  C   UNL     1      23.519  48.233  48.958  1.00  0.00     0.081 A 
HETATM    9  C   UNL     1      22.876  47.171  48.314  1.00  0.00     0.027 A 
HETATM   10  C   UNL     1      23.055  45.865  48.786  1.00  0.00     0.032 A 
HETATM   11  C   UNL     1      24.855  44.084  51.473  1.00  0.00     0.109 A 
HETATM   12  H   UNL     1      23.666  43.531  49.883  1.00  0.00     0.165 HD
ENDROOT
BRANCH   8  13
HETATM   13  S   UNL     1      23.319  49.898  48.363  1.00  0.00     0.263 S 
HETATM   14  O   UNL     1      23.257  50.757  49.526  1.00  0.00    -0.200 OA
HETATM   15  O   UNL     1      24.290  50.121  47.314  1.00  0.00    -0.200 OA
BRANCH  13  16
HETATM   16  N   UNL     1      21.765  49.872  47.703  1.00  0.00    -0.281 N 
HETATM   17  H   UNL     1      21.740  50.244  46.755  1.00  0.00     0.179 HD
BRANCH  16  18
HETATM   18  C   UNL     1      20.654  50.147  48.550  1.00  0.00     0.045 A 
HETATM   19  C   UNL     1      20.015  51.387  48.468  1.00  0.00     0.066 A 
HETATM   20  C   UNL     1      18.919  51.661  49.285  1.00  0.00     0.070 A 
HETATM   21  C   UNL     1      18.448  50.671  50.153  1.00  0.00     0.037 A 
HETATM   22  C   UNL     1      19.079  49.428  50.223  1.00  0.00     0.005 A 
HETATM   23  C   UNL     1      20.188  49.165  49.423  1.00  0.00     0.030 A 
BRANCH  20  24
HETATM   24  O   UNL     1      18.223  52.837  49.325  1.00  0.00    -0.356 OA
HETATM   25  C   UNL     1      16.842  52.751  49.662  1.00  0.00     0.210 C 
ENDBRANCH  20  24
ENDBRANCH  16  18
ENDBRANCH  13  16
ENDBRANCH   8  13
BRANCH   1  26
HETATM   26  C   UNL     1      26.331  44.592  53.347  1.00  0.00     0.257 C 
HETATM   27  N   UNL     1      27.672  44.868  53.269  1.00  0.00    -0.357 N 
HETATM   28  H   UNL     1      28.030  45.306  52.419  1.00  0.00     0.162 HD
HETATM   29  O   UNL     1      25.814  44.045  54.317  1.00  0.00    -0.267 OA
BRANCH  27  30
HETATM   30  C   UNL     1      28.599  44.574  54.339  1.00  0.00     0.123 C 
BRANCH  30  31
HETATM   31  C   UNL     1      28.776  45.756  55.289  1.00  0.00     0.019 C 
BRANCH  31  32
HETATM   32  C   UNL     1      30.040  45.598  56.132  1.00  0.00    -0.003 C 
HETATM   33  C   UNL     1      30.722  44.264  55.877  1.00  0.00     0.005 C 
ENDBRANCH  31  32
ENDBRANCH  30  31
ENDBRANCH  27  30
ENDBRANCH   1  26
TORSDOF 8
ENDMDL
MODEL 4
REMARK VINA RESULT:      -8.5      1.371      1.995
REMARK  8 active torsions:
REMARK  status: ('A' for Active; 'I' for Inactive)
REMARK    1  A    between atoms: C_2  and  C_3 
REMARK    2  A    between atoms: C_3  and  C_4 
REMARK    3  A    between atoms: C_4  and  N_5 
REMARK       I    between atoms: N_5  and  C_6 
REMARK    4  A    between atoms: C_6  and  C_7 
REMARK    5  A    between atoms: C_14  and  S_15 
REMARK    6  A    between atoms: S_15  and  N_16 
REMARK    7  A    between atoms: N_16  and  C_17 
REMARK    8  A    between atoms: C_19  and  O_20 
ROOT
HETATM    1  C   UNL     1      25.985  44.626  52.628  1.00  0.00     0.098 A 
HETATM    2  C   UNL     1      25.737  46.019  52.158  1.00  0.00     0.201 A 
HETATM    3  O   UNL     1      26.237  46.992  52.716  1.00  0.00    -0.286 OA
HETATM    4  C   UNL     1      24.841  46.215  50.985  1.00  0.00     0.043 A 
HETATM    5  C   UNL     1      24.261  45.089  50.376  1.00  0.00     0.046 A 
HETATM    6  N   UNL     1      24.519  43.814  50.891  1.00  0.00    -0.364 N 
HETATM    7  C   UNL     1      24.580  47.504  50.511  1.00  0.00     0.043 A 
HETATM    8  C   UNL     1      23.708  47.666  49.432  1.00  0.00     0.081 A 
HETATM    9  C   UNL     1      23.122  46.557  48.813  1.00  0.00     0.027 A 
HETATM   10  C   UNL     1      23.396  45.271  49.293  1.00  0.00     0.032 A 
HETATM   11  C   UNL     1      25.366  43.640  51.956  1.00  0.00     0.109 A 
HETATM   12  H   UNL     1      24.181  42.994  50.399  1.00  0.00     0.165 HD
ENDROOT
BRANCH   8  13
HETATM   13  S   UNL     1      23.388  49.308  48.825  1.00  0.00     0.263 S 
HETATM   14  O   UNL     1      24.603  50.071  49.010  1.00  0.00    -0.200 OA
HETATM   15  O   UNL     1      22.760  49.194  47.527  1.00  0.00    -0.200 OA
BRANCH  13  16
HETATM   16  N   UNL     1      22.272  49.905  49.945  1.00  0.00    -0.281 N 
HETATM   17  H   UNL     1      22.483  49.611  50.897  1.00  0.00     0.179 HD
BRANCH  16  18
HETATM   18  C   UNL     1      20.902  49.992  49.569  1.00  0.00     0.045 A 
HETATM   19  C   UNL     1      20.333  51.244  49.322  1.00  0.00     0.066 A 
HETATM   20  C   UNL     1      18.994  51.338  48.941  1.00  0.00     0.070 A 
HETATM   21  C   UNL     1      18.247  50.169  48.774  1.00  0.00     0.037 A 
HETATM   22  C   UNL     1      18.820  48.919  49.008  1.00  0.00     0.005 A 
HETATM   23  C   UNL     1      20.151  48.828  49.411  1.00  0.00     0.030 A 
BRANCH  20  24
HETATM   24  O   UNL     1      18.310  52.497  48.696  1.00  0.00    -0.356 OA
HETATM   25  C   UNL     1      17.228  52.797  49.572  1.00  0.00     0.210 C 
ENDBRANCH  20  24
ENDBRANCH  16  18
ENDBRANCH  13  16
ENDBRANCH   8  13
BRANCH   1  26
HETATM   26  C   UNL     1      26.845  44.265  53.792  1.00  0.00     0.257 C 
HETATM   27  N   UNL     1      28.154  44.665  53.701  1.00  0.00    -0.357 N 
HETATM   28  H   UNL     1      28.458  45.141  52.851  1.00  0.00     0.162 HD
HETATM   29  O   UNL     1      26.394  43.663  54.763  1.00  0.00    -0.267 OA
BRANCH  27  30
HETATM   30  C   UNL     1      29.118  44.448  54.756  1.00  0.00     0.123 C 
BRANCH  30  31
HETATM   31  C   UNL     1      29.960  43.197  54.518  1.00  0.00     0.019 C 
BRANCH  31  32
HETATM   32  C   UNL     1      29.965  42.812  53.040  1.00  0.00    -0.003 C 
HETATM   33  C   UNL     1      29.228  41.505  52.798  1.00  0.00     0.005 C 
ENDBRANCH  31  32
ENDBRANCH  30  31
ENDBRANCH  27  30
ENDBRANCH   1  26
TORSDOF 8
ENDMDL
MODEL 5
REMARK VINA RESULT:      -8.2      2.850      3.738
REMARK  8 active torsions:
REMARK  status: ('A' for Active; 'I' for Inactive)
REMARK    1  A    between atoms: C_2  and  C_3 
REMARK    2  A    between atoms: C_3  and  C_4 
REMARK    3  A    between atoms: C_4  and  N_5 
REMARK       I    between atoms: N_5  and  C_6 
REMARK    4  A    between atoms: C_6  and  C_7 
REMARK    5  A    between atoms: C_14  and  S_15 
REMARK    6  A    between atoms: S_15  and  N_16 
REMARK    7  A    between atoms: N_16  and  C_17 
REMARK    8  A    between atoms: C_19  and  O_20 
ROOT
HETATM    1  C   UNL     1      26.235  46.471  49.910  1.00  0.00     0.098 A 
HETATM    2  C   UNL     1      24.765  46.721  49.911  1.00  0.00     0.201 A 
HETATM    3  O   UNL     1      23.962  45.874  50.296  1.00  0.00    -0.286 OA
HETATM    4  C   UNL     1      24.277  48.035  49.412  1.00  0.00     0.043 A 
HETATM    5  C   UNL     1      25.212  48.980  48.955  1.00  0.00     0.046 A 
HETATM    6  N   UNL     1      26.574  48.663  48.960  1.00  0.00    -0.364 N 
HETATM    7  C   UNL     1      22.906  48.312  49.394  1.00  0.00     0.043 A 
HETATM    8  C   UNL     1      22.469  49.538  48.888  1.00  0.00     0.081 A 
HETATM    9  C   UNL     1      23.385  50.491  48.429  1.00  0.00     0.027 A 
HETATM   10  C   UNL     1      24.755  50.204  48.458  1.00  0.00     0.032 A 
HETATM   11  C   UNL     1      27.018  47.459  49.445  1.00  0.00     0.109 A 
HETATM   12  H   UNL     1      27.258  49.373  48.721  1.00  0.00     0.165 HD
ENDROOT
BRANCH   8  13
HETATM   13  S   UNL     1      20.724  49.890  48.877  1.00  0.00     0.263 S 
HETATM   14  O   UNL     1      20.534  51.107  49.635  1.00  0.00    -0.200 OA
HETATM   15  O   UNL     1      20.250  49.769  47.515  1.00  0.00    -0.200 OA
BRANCH  13  16
HETATM   16  N   UNL     1      20.088  48.637  49.814  1.00  0.00    -0.281 N 
HETATM   17  H   UNL     1      20.759  48.280  50.491  1.00  0.00     0.179 HD
BRANCH  16  18
HETATM   18  C   UNL     1      19.208  47.701  49.201  1.00  0.00     0.045 A 
HETATM   19  C   UNL     1      19.731  46.550  48.605  1.00  0.00     0.066 A 
HETATM   20  C   UNL     1      18.875  45.621  48.013  1.00  0.00     0.070 A 
HETATM   21  C   UNL     1      17.495  45.837  48.059  1.00  0.00     0.037 A 
HETATM   22  C   UNL     1      16.973  46.979  48.667  1.00  0.00     0.005 A 
HETATM   23  C   UNL     1      17.831  47.918  49.237  1.00  0.00     0.030 A 
BRANCH  20  24
HETATM   24  O   UNL     1      19.256  44.473  47.375  1.00  0.00    -0.356 OA
HETATM   25  C   UNL     1      20.655  44.279  47.191  1.00  0.00     0.210 C 
ENDBRANCH  20  24
ENDBRANCH  16  18
ENDBRANCH  13  16
ENDBRANCH   8  13
BRANCH   1  26
HETATM   26  C   UNL     1      26.880  45.205  50.367  1.00  0.00     0.257 C 
HETATM   27  N   UNL     1      26.906  45.016  51.724  1.00  0.00    -0.357 N 
HETATM   28  H   UNL     1      26.524  45.748  52.325  1.00  0.00     0.162 HD
HETATM   29  O   UNL     1      27.338  44.393  49.568  1.00  0.00    -0.267 OA
BRANCH  27  30
HETATM   30  C   UNL     1      27.442  43.824  52.343  1.00  0.00     0.123 C 
BRANCH  30  31
HETATM   31  C   UNL     1      28.433  44.151  53.457  1.00  0.00     0.019 C 
BRANCH  31  32
HETATM   32  C   UNL     1      29.577  43.138  53.490  1.00  0.00    -0.003 C 
HETATM   33  C   UNL     1      30.332  43.186  54.807  1.00  0.00     0.005 C 
ENDBRANCH  31  32
ENDBRANCH  30  31
ENDBRANCH  27  30
ENDBRANCH   1  26
TORSDOF 8
ENDMDL
MODEL 6
REMARK VINA RESULT:      -8.1      2.694      3.537
REMARK  8 active torsions:
REMARK  status: ('A' for Active; 'I' for Inactive)
REMARK    1  A    between atoms: C_2  and  C_3 
REMARK    2  A    between atoms: C_3  and  C_4 
REMARK    3  A    between atoms: C_4  and  N_5 
REMARK       I    between atoms: N_5  and  C_6 
REMARK    4  A    between atoms: C_6  and  C_7 
REMARK    5  A    between atoms: C_14  and  S_15 
REMARK    6  A    between atoms: S_15  and  N_16 
REMARK    7  A    between atoms: N_16  and  C_17 
REMARK    8  A    between atoms: C_19  and  O_20 
ROOT
HETATM    1  C   UNL     1      26.362  46.349  50.081  1.00  0.00     0.098 A 
HETATM    2  C   UNL     1      24.902  46.652  50.043  1.00  0.00     0.201 A 
HETATM    3  O   UNL     1      24.062  45.851  50.444  1.00  0.00    -0.286 OA
HETATM    4  C   UNL     1      24.472  47.963  49.484  1.00  0.00     0.043 A 
HETATM    5  C   UNL     1      25.450  48.854  49.009  1.00  0.00     0.046 A 
HETATM    6  N   UNL     1      26.799  48.488  49.053  1.00  0.00    -0.364 N 
HETATM    7  C   UNL     1      23.113  48.288  49.427  1.00  0.00     0.043 A 
HETATM    8  C   UNL     1      22.732  49.508  48.865  1.00  0.00     0.081 A 
HETATM    9  C   UNL     1      23.690  50.408  48.388  1.00  0.00     0.027 A 
HETATM   10  C   UNL     1      25.048  50.074  48.455  1.00  0.00     0.032 A 
HETATM   11  C   UNL     1      27.189  47.289  49.593  1.00  0.00     0.109 A 
HETATM   12  H   UNL     1      27.513  49.164  48.800  1.00  0.00     0.165 HD
ENDROOT
BRANCH   8  13
HETATM   13  S   UNL     1      21.001  49.922  48.805  1.00  0.00     0.263 S 
HETATM   14  O   UNL     1      20.844  51.179  49.504  1.00  0.00    -0.200 OA
HETATM   15  O   UNL     1      20.546  49.757  47.442  1.00  0.00    -0.200 OA
BRANCH  13  16
HETATM   16  N   UNL     1      20.303  48.737  49.786  1.00  0.00    -0.281 N 
HETATM   17  H   UNL     1      20.969  48.339  50.446  1.00  0.00     0.179 HD
BRANCH  16  18
HETATM   18  C   UNL     1      19.331  47.864  49.221  1.00  0.00     0.045 A 
HETATM   19  C   UNL     1      18.003  48.285  49.120  1.00  0.00     0.066 A 
HETATM   20  C   UNL     1      17.045  47.442  48.557  1.00  0.00     0.070 A 
HETATM   21  C   UNL     1      17.438  46.194  48.064  1.00  0.00     0.037 A 
HETATM   22  C   UNL     1      18.768  45.780  48.154  1.00  0.00     0.005 A 
HETATM   23  C   UNL     1      19.718  46.615  48.739  1.00  0.00     0.030 A 
BRANCH  20  24
HETATM   24  O   UNL     1      15.713  47.718  48.422  1.00  0.00    -0.356 OA
HETATM   25  C   UNL     1      15.376  48.994  47.886  1.00  0.00     0.210 C 
ENDBRANCH  20  24
ENDBRANCH  16  18
ENDBRANCH  13  16
ENDBRANCH   8  13
BRANCH   1  26
HETATM   26  C   UNL     1      26.951  45.080  50.599  1.00  0.00     0.257 C 
HETATM   27  N   UNL     1      26.828  44.885  51.951  1.00  0.00    -0.357 N 
HETATM   28  H   UNL     1      26.385  45.615  52.509  1.00  0.00     0.162 HD
HETATM   29  O   UNL     1      27.492  44.270  49.851  1.00  0.00    -0.267 OA
BRANCH  27  30
HETATM   30  C   UNL     1      27.292  43.689  52.618  1.00  0.00     0.123 C 
BRANCH  30  31
HETATM   31  C   UNL     1      28.144  44.009  53.845  1.00  0.00     0.019 C 
BRANCH  31  32
HETATM   32  C   UNL     1      27.605  45.233  54.583  1.00  0.00    -0.003 C 
HETATM   33  C   UNL     1      28.728  46.117  55.099  1.00  0.00     0.005 C 
ENDBRANCH  31  32
ENDBRANCH  30  31
ENDBRANCH  27  30
ENDBRANCH   1  26
TORSDOF 8
ENDMDL
MODEL 7
REMARK VINA RESULT:      -8.0      2.649      9.575
REMARK  8 active torsions:
REMARK  status: ('A' for Active; 'I' for Inactive)
REMARK    1  A    between atoms: C_2  and  C_3 
REMARK    2  A    between atoms: C_3  and  C_4 
REMARK    3  A    between atoms: C_4  and  N_5 
REMARK       I    between atoms: N_5  and  C_6 
REMARK    4  A    between atoms: C_6  and  C_7 
REMARK    5  A    between atoms: C_14  and  S_15 
REMARK    6  A    between atoms: S_15  and  N_16 
REMARK    7  A    between atoms: N_16  and  C_17 
REMARK    8  A    between atoms: C_19  and  O_20 
ROOT
HETATM    1  C   UNL     1      21.313  46.919  48.292  1.00  0.00     0.098 A 
HETATM    2  C   UNL     1      22.723  46.775  48.754  1.00  0.00     0.201 A 
HETATM    3  O   UNL     1      23.420  47.750  49.024  1.00  0.00    -0.286 OA
HETATM    4  C   UNL     1      23.288  45.403  48.870  1.00  0.00     0.043 A 
HETATM    5  C   UNL     1      22.479  44.303  48.534  1.00  0.00     0.046 A 
HETATM    6  N   UNL     1      21.173  44.518  48.081  1.00  0.00    -0.364 N 
HETATM    7  C   UNL     1      24.607  45.223  49.298  1.00  0.00     0.043 A 
HETATM    8  C   UNL     1      25.126  43.927  49.364  1.00  0.00     0.081 A 
HETATM    9  C   UNL     1      24.336  42.821  49.034  1.00  0.00     0.027 A 
HETATM   10  C   UNL     1      23.016  43.015  48.612  1.00  0.00     0.032 A 
HETATM   11  C   UNL     1      20.652  45.785  48.001  1.00  0.00     0.109 A 
HETATM   12  H   UNL     1      20.557  43.728  47.928  1.00  0.00     0.165 HD
ENDROOT
BRANCH   8  13
HETATM   13  S   UNL     1      26.802  43.702  49.920  1.00  0.00     0.263 S 
HETATM   14  O   UNL     1      27.315  42.527  49.250  1.00  0.00    -0.200 OA
HETATM   15  O   UNL     1      27.481  44.976  49.831  1.00  0.00    -0.200 OA
BRANCH  13  16
HETATM   16  N   UNL     1      26.600  43.278  51.543  1.00  0.00    -0.281 N 
HETATM   17  H   UNL     1      25.693  43.564  51.908  1.00  0.00     0.179 HD
BRANCH  16  18
HETATM   18  C   UNL     1      27.719  43.360  52.419  1.00  0.00     0.045 A 
HETATM   19  C   UNL     1      27.701  44.270  53.478  1.00  0.00     0.066 A 
HETATM   20  C   UNL     1      28.788  44.349  54.348  1.00  0.00     0.070 A 
HETATM   21  C   UNL     1      29.870  43.484  54.170  1.00  0.00     0.037 A 
HETATM   22  C   UNL     1      29.881  42.565  53.119  1.00  0.00     0.005 A 
HETATM   23  C   UNL     1      28.805  42.504  52.237  1.00  0.00     0.030 A 
BRANCH  20  24
HETATM   24  O   UNL     1      28.909  45.210  55.404  1.00  0.00    -0.356 OA
HETATM   25  C   UNL     1      28.551  46.568  55.165  1.00  0.00     0.210 C 
ENDBRANCH  20  24
ENDBRANCH  16  18
ENDBRANCH  13  16
ENDBRANCH   8  13
BRANCH   1  26
HETATM   26  C   UNL     1      20.607  48.221  48.114  1.00  0.00     0.257 C 
HETATM   27  N   UNL     1      21.414  49.290  47.821  1.00  0.00    -0.357 N 
HETATM   28  H   UNL     1      22.423  49.141  47.778  1.00  0.00     0.162 HD
HETATM   29  O   UNL     1      19.386  48.309  48.211  1.00  0.00    -0.267 OA
BRANCH  27  30
HETATM   30  C   UNL     1      20.900  50.617  47.563  1.00  0.00     0.123 C 
BRANCH  30  31
HETATM   31  C   UNL     1      20.506  51.341  48.848  1.00  0.00     0.019 C 
BRANCH  31  32
HETATM   32  C   UNL     1      19.316  52.270  48.612  1.00  0.00    -0.003 C 
HETATM   33  C   UNL     1      18.305  52.187  49.744  1.00  0.00     0.005 C 
ENDBRANCH  31  32
ENDBRANCH  30  31
ENDBRANCH  27  30
ENDBRANCH   1  26
TORSDOF 8
ENDMDL
MODEL 8
REMARK VINA RESULT:      -8.0      2.547      8.851
REMARK  8 active torsions:
REMARK  status: ('A' for Active; 'I' for Inactive)
REMARK    1  A    between atoms: C_2  and  C_3 
REMARK    2  A    between atoms: C_3  and  C_4 
REMARK    3  A    between atoms: C_4  and  N_5 
REMARK       I    between atoms: N_5  and  C_6 
REMARK    4  A    between atoms: C_6  and  C_7 
REMARK    5  A    between atoms: C_14  and  S_15 
REMARK    6  A    between atoms: S_15  and  N_16 
REMARK    7  A    between atoms: N_16  and  C_17 
REMARK    8  A    between atoms: C_19  and  O_20 
ROOT
HETATM    1  C   UNL     1      22.215  49.960  48.475  1.00  0.00     0.098 A 
HETATM    2  C   UNL     1      22.517  48.577  48.945  1.00  0.00     0.201 A 
HETATM    3  O   UNL     1      21.629  47.759  49.170  1.00  0.00    -0.286 OA
HETATM    4  C   UNL     1      23.943  48.203  49.154  1.00  0.00     0.043 A 
HETATM    5  C   UNL     1      24.941  49.162  48.911  1.00  0.00     0.046 A 
HETATM    6  N   UNL     1      24.579  50.448  48.498  1.00  0.00    -0.364 N 
HETATM    7  C   UNL     1      24.271  46.917  49.594  1.00  0.00     0.043 A 
HETATM    8  C   UNL     1      25.613  46.600  49.818  1.00  0.00     0.081 A 
HETATM    9  C   UNL     1      26.621  47.541  49.582  1.00  0.00     0.027 A 
HETATM   10  C   UNL     1      26.279  48.823  49.135  1.00  0.00     0.032 A 
HETATM   11  C   UNL     1      23.265  50.777  48.283  1.00  0.00     0.109 A 
HETATM   12  H   UNL     1      25.297  51.113  48.231  1.00  0.00     0.165 HD
ENDROOT
BRANCH   8  13
HETATM   13  S   UNL     1      26.028  44.959  50.369  1.00  0.00     0.263 S 
HETATM   14  O   UNL     1      25.209  44.040  49.610  1.00  0.00    -0.200 OA
HETATM   15  O   UNL     1      27.470  44.842  50.390  1.00  0.00    -0.200 OA
BRANCH  13  16
HETATM   16  N   UNL     1      25.433  44.938  51.950  1.00  0.00    -0.281 N 
HETATM   17  H   UNL     1      24.430  45.108  51.989  1.00  0.00     0.179 HD
BRANCH  16  18
HETATM   18  C   UNL     1      26.236  45.482  52.993  1.00  0.00     0.045 A 
HETATM   19  C   UNL     1      26.010  46.791  53.425  1.00  0.00     0.066 A 
HETATM   20  C   UNL     1      26.783  47.328  54.454  1.00  0.00     0.070 A 
HETATM   21  C   UNL     1      27.753  46.531  55.068  1.00  0.00     0.037 A 
HETATM   22  C   UNL     1      27.968  45.219  54.644  1.00  0.00     0.005 A 
HETATM   23  C   UNL     1      27.211  44.692  53.600  1.00  0.00     0.030 A 
BRANCH  20  24
HETATM   24  O   UNL     1      26.685  48.598  54.951  1.00  0.00    -0.356 OA
HETATM   25  C   UNL     1      26.212  48.726  56.288  1.00  0.00     0.210 C 
ENDBRANCH  20  24
ENDBRANCH  16  18
ENDBRANCH  13  16
ENDBRANCH   8  13
BRANCH   1  26
HETATM   26  C   UNL     1      20.843  50.491  48.230  1.00  0.00     0.257 C 
HETATM   27  N   UNL     1      19.910  49.557  47.858  1.00  0.00    -0.357 N 
HETATM   28  H   UNL     1      20.211  48.588  47.741  1.00  0.00     0.162 HD
HETATM   29  O   UNL     1      20.580  51.682  48.369  1.00  0.00    -0.267 OA
BRANCH  27  30
HETATM   30  C   UNL     1      18.519  49.881  47.630  1.00  0.00     0.123 C 
BRANCH  30  31
HETATM   31  C   UNL     1      17.635  49.475  48.807  1.00  0.00     0.019 C 
BRANCH  31  32
HETATM   32  C   UNL     1      18.221  48.273  49.545  1.00  0.00    -0.003 C 
HETATM   33  C   UNL     1      18.641  48.634  50.961  1.00  0.00     0.005 C 
ENDBRANCH  31  32
ENDBRANCH  30  31
ENDBRANCH  27  30
ENDBRANCH   1  26
TORSDOF 8
ENDMDL
MODEL 9
REMARK VINA RESULT:      -7.9      1.936      2.348
REMARK  8 active torsions:
REMARK  status: ('A' for Active; 'I' for Inactive)
REMARK    1  A    between atoms: C_2  and  C_3 
REMARK    2  A    between atoms: C_3  and  C_4 
REMARK    3  A    between atoms: C_4  and  N_5 
REMARK       I    between atoms: N_5  and  C_6 
REMARK    4  A    between atoms: C_6  and  C_7 
REMARK    5  A    between atoms: C_14  and  S_15 
REMARK    6  A    between atoms: S_15  and  N_16 
REMARK    7  A    between atoms: N_16  and  C_17 
REMARK    8  A    between atoms: C_19  and  O_20 
ROOT
HETATM    1  C   UNL     1      25.427  44.783  49.923  1.00  0.00     0.098 A 
HETATM    2  C   UNL     1      25.123  46.224  50.156  1.00  0.00     0.201 A 
HETATM    3  O   UNL     1      25.792  46.913  50.922  1.00  0.00    -0.286 OA
HETATM    4  C   UNL     1      23.962  46.820  49.442  1.00  0.00     0.043 A 
HETATM    5  C   UNL     1      23.197  46.007  48.587  1.00  0.00     0.046 A 
HETATM    6  N   UNL     1      23.528  44.656  48.440  1.00  0.00    -0.364 N 
HETATM    7  C   UNL     1      23.640  48.168  49.632  1.00  0.00     0.043 A 
HETATM    8  C   UNL     1      22.524  48.696  48.978  1.00  0.00     0.081 A 
HETATM    9  C   UNL     1      21.751  47.902  48.124  1.00  0.00     0.027 A 
HETATM   10  C   UNL     1      22.087  46.556  47.938  1.00  0.00     0.032 A 
HETATM   11  C   UNL     1      24.614  44.120  49.083  1.00  0.00     0.109 A 
HETATM   12  H   UNL     1      23.039  44.089  47.755  1.00  0.00     0.165 HD
ENDROOT
BRANCH   8  13
HETATM   13  S   UNL     1      22.124  50.414  49.215  1.00  0.00     0.263 S 
HETATM   14  O   UNL     1      23.221  51.005  49.950  1.00  0.00    -0.200 OA
HETATM   15  O   UNL     1      21.691  50.955  47.944  1.00  0.00    -0.200 OA
BRANCH  13  16
HETATM   16  N   UNL     1      20.814  50.347  50.279  1.00  0.00    -0.281 N 
HETATM   17  H   UNL     1      20.923  49.618  50.982  1.00  0.00     0.179 HD
BRANCH  16  18
HETATM   18  C   UNL     1      19.505  50.584  49.773  1.00  0.00     0.045 A 
HETATM   19  C   UNL     1      18.806  49.544  49.155  1.00  0.00     0.066 A 
HETATM   20  C   UNL     1      17.518  49.764  48.667  1.00  0.00     0.070 A 
HETATM   21  C   UNL     1      16.927  51.019  48.838  1.00  0.00     0.037 A 
HETATM   22  C   UNL     1      17.621  52.053  49.467  1.00  0.00     0.005 A 
HETATM   23  C   UNL     1      18.917  51.838  49.933  1.00  0.00     0.030 A 
BRANCH  20  24
HETATM   24  O   UNL     1      16.737  48.846  48.021  1.00  0.00    -0.356 OA
HETATM   25  C   UNL     1      15.350  49.150  47.912  1.00  0.00     0.210 C 
ENDBRANCH  20  24
ENDBRANCH  16  18
ENDBRANCH  13  16
ENDBRANCH   8  13
BRANCH   1  26
HETATM   26  C   UNL     1      26.546  44.037  50.570  1.00  0.00     0.257 C 
HETATM   27  N   UNL     1      26.501  43.985  51.940  1.00  0.00    -0.357 N 
HETATM   28  H   UNL     1      25.746  44.475  52.421  1.00  0.00     0.162 HD
HETATM   29  O   UNL     1      27.429  43.501  49.907  1.00  0.00    -0.267 OA
BRANCH  27  30
HETATM   30  C   UNL     1      27.471  43.261  52.732  1.00  0.00     0.123 C 
BRANCH  30  31
HETATM   31  C   UNL     1      28.256  44.183  53.663  1.00  0.00     0.019 C 
BRANCH  31  32
HETATM   32  C   UNL     1      29.464  43.462  54.259  1.00  0.00    -0.003 C 
HETATM   33  C   UNL     1      30.287  42.766  53.187  1.00  0.00     0.005 C 
ENDBRANCH  31  32
ENDBRANCH  30  31
ENDBRANCH  27  30
ENDBRANCH   1  26
TORSDOF 8
ENDMDL
MODEL 10
REMARK VINA RESULT:      -7.9      2.642      3.815
REMARK  8 active torsions:
REMARK  status: ('A' for Active; 'I' for Inactive)
REMARK    1  A    between atoms: C_2  and  C_3 
REMARK    2  A    between atoms: C_3  and  C_4 
REMARK    3  A    between atoms: C_4  and  N_5 
REMARK       I    between atoms: N_5  and  C_6 
REMARK    4  A    between atoms: C_6  and  C_7 
REMARK    5  A    between atoms: C_14  and  S_15 
REMARK    6  A    between atoms: S_15  and  N_16 
REMARK    7  A    between atoms: N_16  and  C_17 
REMARK    8  A    between atoms: C_19  and  O_20 
ROOT
HETATM    1  C   UNL     1      25.929  47.066  49.738  1.00  0.00     0.098 A 
HETATM    2  C   UNL     1      24.441  47.061  49.647  1.00  0.00     0.201 A 
HETATM    3  O   UNL     1      23.773  46.081  49.969  1.00  0.00    -0.286 OA
HETATM    4  C   UNL     1      23.765  48.284  49.133  1.00  0.00     0.043 A 
HETATM    5  C   UNL     1      24.550  49.385  48.749  1.00  0.00     0.046 A 
HETATM    6  N   UNL     1      25.943  49.305  48.838  1.00  0.00    -0.364 N 
HETATM    7  C   UNL     1      22.371  48.322  49.030  1.00  0.00     0.043 A 
HETATM    8  C   UNL     1      21.761  49.467  48.511  1.00  0.00     0.081 A 
HETATM    9  C   UNL     1      22.526  50.573  48.125  1.00  0.00     0.027 A 
HETATM   10  C   UNL     1      23.920  50.524  48.239  1.00  0.00     0.032 A 
HETATM   11  C   UNL     1      26.557  48.184  49.336  1.00  0.00     0.109 A 
HETATM   12  H   UNL     1      26.507  50.127  48.653  1.00  0.00     0.165 HD
ENDROOT
BRANCH   8  13
HETATM   13  S   UNL     1      19.986  49.515  48.391  1.00  0.00     0.263 S 
HETATM   14  O   UNL     1      19.633  48.928  47.117  1.00  0.00    -0.200 OA
HETATM   15  O   UNL     1      19.438  49.010  49.631  1.00  0.00    -0.200 OA
BRANCH  13  16
HETATM   16  N   UNL     1      19.668  51.170  48.263  1.00  0.00    -0.281 N 
HETATM   17  H   UNL     1      20.358  51.736  48.752  1.00  0.00     0.179 HD
BRANCH  16  18
HETATM   18  C   UNL     1      18.316  51.613  48.284  1.00  0.00     0.045 A 
HETATM   19  C   UNL     1      17.779  52.133  49.464  1.00  0.00     0.066 A 
HETATM   20  C   UNL     1      16.459  52.581  49.491  1.00  0.00     0.070 A 
HETATM   21  C   UNL     1      15.698  52.538  48.320  1.00  0.00     0.037 A 
HETATM   22  C   UNL     1      16.239  52.030  47.138  1.00  0.00     0.005 A 
HETATM   23  C   UNL     1      17.551  51.561  47.119  1.00  0.00     0.030 A 
BRANCH  20  24
HETATM   24  O   UNL     1      15.805  53.085  50.581  1.00  0.00    -0.356 OA
HETATM   25  C   UNL     1      14.393  53.232  50.468  1.00  0.00     0.210 C 
ENDBRANCH  20  24
ENDBRANCH  16  18
ENDBRANCH  13  16
ENDBRANCH   8  13
BRANCH   1  26
HETATM   26  C   UNL     1      26.752  45.919  50.220  1.00  0.00     0.257 C 
HETATM   27  N   UNL     1      26.499  45.513  51.505  1.00  0.00    -0.357 N 
HETATM   28  H   UNL     1      25.807  46.029  52.050  1.00  0.00     0.162 HD
HETATM   29  O   UNL     1      27.585  45.378  49.497  1.00  0.00    -0.267 OA
BRANCH  27  30
HETATM   30  C   UNL     1      27.164  44.386  52.119  1.00  0.00     0.123 C 
BRANCH  30  31
HETATM   31  C   UNL     1      27.431  44.615  53.605  1.00  0.00     0.019 C 
BRANCH  31  32
HETATM   32  C   UNL     1      28.836  44.151  53.988  1.00  0.00    -0.003 C 
HETATM   33  C   UNL     1      29.423  43.217  52.942  1.00  0.00     0.005 C 
ENDBRANCH  31  32
ENDBRANCH  30  31
ENDBRANCH  27  30
ENDBRANCH   1  26
TORSDOF 8
ENDMDL
