MODEL 1
REMARK VINA RESULT:      -8.9      0.000      0.000
REMARK  8 active torsions:
REMARK  status: ('A' for Active; 'I' for Inactive)
REMARK    1  A    between atoms: O_2  and  C_3 
REMARK    2  A    between atoms: C_10  and  C_11 
REMARK    3  A    between atoms: N_12  and  N_13 
REMARK       I    between atoms: N_13  and  C_14 
REMARK    4  A    between atoms: C_14  and  C_15 
REMARK    5  A    between atoms: N_18  and  C_19 
REMARK    6  A    between atoms: C_23  and  N_24 
REMARK    7  A    between atoms: C_25  and  C_26 
REMARK    8  A    between atoms: C_26  and  N_27 
ROOT
HETATM    1  C   UNL     1      22.300  47.462  48.424  1.00  0.00     0.176 C 
HETATM    2  N   UNL     1      22.522  46.865  47.219  1.00  0.00    -0.124 NA
HETATM    3  N   UNL     1      21.376  46.814  46.568  1.00  0.00    -0.058 NA
HETATM    4  N   UNL     1      20.385  47.301  47.361  1.00  0.00    -0.191 N 
HETATM    5  C   UNL     1      20.967  47.851  48.511  1.00  0.00     0.102 C 
ENDROOT
BRANCH   1   6
HETATM    6  C   UNL     1      23.349  47.640  49.418  1.00  0.00     0.294 C 
HETATM    7  N   UNL     1      23.818  46.463  49.966  1.00  0.00    -0.242 N 
HETATM    8  H   UNL     1      23.425  45.569  49.677  1.00  0.00     0.192 HD
HETATM    9  O   UNL     1      23.754  48.770  49.693  1.00  0.00    -0.264 OA
BRANCH   7  10
HETATM   10  N   UNL     1      24.805  46.507  50.904  1.00  0.00    -0.183 NA
HETATM   11  C   UNL     1      24.876  45.484  51.697  1.00  0.00     0.153 C 
BRANCH  11  12
HETATM   12  C   UNL     1      25.898  45.409  52.763  1.00  0.00     0.020 A 
HETATM   13  C   UNL     1      26.652  44.239  52.939  1.00  0.00     0.101 A 
HETATM   14  C   UNL     1      27.668  44.215  53.906  1.00  0.00     0.069 A 
HETATM   15 CL   UNL     1      28.708  42.850  54.099  1.00  0.00    -0.081 Cl
HETATM   16  C   UNL     1      27.886  45.323  54.729  1.00  0.00     0.050 A 
HETATM   17  C   UNL     1      27.104  46.463  54.570  1.00  0.00     0.036 A 
HETATM   18 CL   UNL     1      27.372  47.829  55.582  1.00  0.00    -0.084 Cl
HETATM   19  C   UNL     1      26.118  46.518  53.590  1.00  0.00     0.039 A 
BRANCH  13  20
HETATM   20  O   UNL     1      26.433  43.169  52.108  1.00  0.00    -0.353 OA
HETATM   21  C   UNL     1      27.331  43.196  50.994  1.00  0.00     0.210 C 
ENDBRANCH  13  20
ENDBRANCH  11  12
ENDBRANCH   7  10
ENDBRANCH   1   6
BRANCH   5  22
HETATM   22  C   UNL     1      20.190  48.561  49.567  1.00  0.00     0.296 C 
BRANCH  22  23
HETATM   23  N   UNL     1      19.329  49.726  49.100  1.00  0.00    -0.066 N 
HETATM   24  H   UNL     1      19.403  49.728  48.061  1.00  0.00     0.280 HD
HETATM   25  C   UNL     1      17.874  49.531  49.438  1.00  0.00     0.235 C 
HETATM   26  C   UNL     1      16.972  50.532  48.727  1.00  0.00     0.028 C 
HETATM   27  C   UNL     1      17.045  51.933  49.323  1.00  0.00     0.002 C 
HETATM   28  C   UNL     1      18.163  52.806  48.768  1.00  0.00     0.002 C 
HETATM   29  C   UNL     1      19.530  52.157  48.570  1.00  0.00     0.028 C 
HETATM   30  C   UNL     1      19.899  51.055  49.553  1.00  0.00     0.235 C 
ENDBRANCH  22  23
ENDBRANCH   5  22
BRANCH   4  31
HETATM   31  C   UNL     1      19.018  47.188  47.008  1.00  0.00     0.229 A 
HETATM   32  N   UNL     1      18.467  48.065  46.167  1.00  0.00    -0.081 NA
HETATM   33  O   UNL     1      17.132  47.659  46.089  1.00  0.00    -0.103 OA
HETATM   34  N   UNL     1      16.899  46.545  46.884  1.00  0.00    -0.083 NA
HETATM   35  C   UNL     1      18.065  46.257  47.458  1.00  0.00     0.201 A 
BRANCH  35  36
HETATM   36  N   UNL     1      18.262  45.237  48.309  1.00  0.00    -0.379 N 
HETATM   37  H   UNL     1      18.098  44.283  47.996  1.00  0.00     0.158 HD
HETATM   38  H   UNL     1      18.284  45.348  49.321  1.00  0.00     0.158 HD
ENDBRANCH  35  36
ENDBRANCH   4  31
TORSDOF 8
ENDMDL
MODEL 2
REMARK VINA RESULT:      -8.7      3.979     10.058
REMARK  8 active torsions:
REMARK  status: ('A' for Active; 'I' for Inactive)
REMARK    1  A    between atoms: O_2  and  C_3 
REMARK    2  A    between atoms: C_10  and  C_11 
REMARK    3  A    between atoms: N_12  and  N_13 
REMARK       I    between atoms: N_13  and  C_14 
REMARK    4  A    between atoms: C_14  and  C_15 
REMARK    5  A    between atoms: N_18  and  C_19 
REMARK    6  A    between atoms: C_23  and  N_24 
REMARK    7  A    between atoms: C_25  and  C_26 
REMARK    8  A    between atoms: C_26  and  N_27 
ROOT
HETATM    1  C   UNL     1      25.608  45.379  50.208  1.00  0.00     0.176 C 
HETATM    2  N   UNL     1      26.216  44.808  49.130  1.00  0.00    -0.124 NA
HETATM    3  N   UNL     1      26.998  43.838  49.564  1.00  0.00    -0.058 NA
HETATM    4  N   UNL     1      26.971  43.813  50.924  1.00  0.00    -0.191 N 
HETATM    5  C   UNL     1      25.983  44.703  51.365  1.00  0.00     0.102 C 
ENDROOT
BRANCH   1   6
HETATM    6  C   UNL     1      24.707  46.517  50.090  1.00  0.00     0.294 C 
HETATM    7  N   UNL     1      23.707  46.355  49.152  1.00  0.00    -0.242 N 
HETATM    8  H   UNL     1      23.650  45.498  48.605  1.00  0.00     0.192 HD
HETATM    9  O   UNL     1      24.866  47.507  50.804  1.00  0.00    -0.264 OA
BRANCH   7  10
HETATM   10  N   UNL     1      22.802  47.354  48.958  1.00  0.00    -0.183 NA
HETATM   11  C   UNL     1      21.890  47.125  48.065  1.00  0.00     0.153 C 
BRANCH  11  12
HETATM   12  C   UNL     1      20.851  48.130  47.754  1.00  0.00     0.020 A 
HETATM   13  C   UNL     1      19.719  47.769  47.008  1.00  0.00     0.101 A 
HETATM   14  C   UNL     1      18.710  48.718  46.788  1.00  0.00     0.069 A 
HETATM   15 CL   UNL     1      17.240  48.312  45.977  1.00  0.00    -0.081 Cl
HETATM   16  C   UNL     1      18.858  50.027  47.254  1.00  0.00     0.050 A 
HETATM   17  C   UNL     1      20.005  50.382  47.958  1.00  0.00     0.036 A 
HETATM   18 CL   UNL     1      20.188  51.994  48.532  1.00  0.00    -0.084 Cl
HETATM   19  C   UNL     1      20.999  49.443  48.218  1.00  0.00     0.039 A 
BRANCH  13  20
HETATM   20  O   UNL     1      19.586  46.473  46.576  1.00  0.00    -0.353 OA
HETATM   21  C   UNL     1      18.808  45.705  47.500  1.00  0.00     0.210 C 
ENDBRANCH  13  20
ENDBRANCH  11  12
ENDBRANCH   7  10
ENDBRANCH   1   6
BRANCH   5  22
HETATM   22  C   UNL     1      25.607  44.870  52.798  1.00  0.00     0.296 C 
BRANCH  22  23
HETATM   23  N   UNL     1      26.629  45.566  53.685  1.00  0.00    -0.066 N 
HETATM   24  H   UNL     1      27.478  45.682  53.092  1.00  0.00     0.280 HD
HETATM   25  C   UNL     1      26.185  46.946  54.093  1.00  0.00     0.235 C 
HETATM   26  C   UNL     1      27.310  47.756  54.726  1.00  0.00     0.028 C 
HETATM   27  C   UNL     1      27.641  47.313  56.146  1.00  0.00     0.002 C 
HETATM   28  C   UNL     1      28.643  46.169  56.241  1.00  0.00     0.002 C 
HETATM   29  C   UNL     1      28.480  45.009  55.264  1.00  0.00     0.028 C 
HETATM   30  C   UNL     1      27.055  44.683  54.840  1.00  0.00     0.235 C 
ENDBRANCH  22  23
ENDBRANCH   5  22
BRANCH   4  31
HETATM   31  C   UNL     1      27.862  43.010  51.677  1.00  0.00     0.229 A 
HETATM   32  N   UNL     1      28.999  43.527  52.147  1.00  0.00    -0.081 NA
HETATM   33  O   UNL     1      29.612  42.450  52.793  1.00  0.00    -0.103 OA
HETATM   34  N   UNL     1      28.836  41.303  52.704  1.00  0.00    -0.083 NA
HETATM   35  C   UNL     1      27.755  41.647  52.007  1.00  0.00     0.201 A 
BRANCH  35  36
HETATM   36  N   UNL     1      26.750  40.811  51.700  1.00  0.00    -0.379 N 
HETATM   37  H   UNL     1      26.146  41.021  50.910  1.00  0.00     0.158 HD
HETATM   38  H   UNL     1      26.362  40.137  52.357  1.00  0.00     0.158 HD
ENDBRANCH  35  36
ENDBRANCH   4  31
TORSDOF 8
ENDMDL
MODEL 3
REMARK VINA RESULT:      -8.7      6.456      8.837
REMARK  8 active torsions:
REMARK  status: ('A' for Active; 'I' for Inactive)
REMARK    1  A    between atoms: O_2  and  C_3 
REMARK    2  A    between atoms: C_10  and  C_11 
REMARK    3  A    between atoms: N_12  and  N_13 
REMARK       I    between atoms: N_13  and  C_14 
REMARK    4  A    between atoms: C_14  and  C_15 
REMARK    5  A    between atoms: N_18  and  C_19 
REMARK    6  A    between atoms: C_23  and  N_24 
REMARK    7  A    between atoms: C_25  and  C_26 
REMARK    8  A    between atoms: C_26  and  N_27 
ROOT
HETATM    1  C   UNL     1      27.895  39.979  50.081  1.00  0.00     0.176 C 
HETATM    2  N   UNL     1      28.309  38.682  50.003  1.00  0.00    -0.124 NA
HETATM    3  N   UNL     1      28.140  38.269  48.761  1.00  0.00    -0.058 NA
HETATM    4  N   UNL     1      27.548  39.256  48.036  1.00  0.00    -0.191 N 
HETATM    5  C   UNL     1      27.500  40.416  48.820  1.00  0.00     0.102 C 
ENDROOT
BRANCH   1   6
HETATM    6  C   UNL     1      27.903  40.732  51.327  1.00  0.00     0.294 C 
HETATM    7  N   UNL     1      29.139  40.808  51.937  1.00  0.00    -0.242 N 
HETATM    8  H   UNL     1      29.947  40.351  51.519  1.00  0.00     0.192 HD
HETATM    9  O   UNL     1      26.865  41.247  51.743  1.00  0.00    -0.264 OA
BRANCH   7  10
HETATM   10  N   UNL     1      29.267  41.492  53.108  1.00  0.00    -0.183 NA
HETATM   11  C   UNL     1      29.574  42.747  52.998  1.00  0.00     0.153 C 
BRANCH  11  12
HETATM   12  C   UNL     1      29.748  43.602  54.192  1.00  0.00     0.020 A 
HETATM   13  C   UNL     1      28.897  44.696  54.408  1.00  0.00     0.101 A 
HETATM   14  C   UNL     1      29.031  45.449  55.585  1.00  0.00     0.069 A 
HETATM   15 CL   UNL     1      27.946  46.736  55.969  1.00  0.00    -0.081 Cl
HETATM   16  C   UNL     1      30.041  45.151  56.502  1.00  0.00     0.050 A 
HETATM   17  C   UNL     1      30.905  44.088  56.255  1.00  0.00     0.036 A 
HETATM   18 CL   UNL     1      32.150  43.720  57.384  1.00  0.00    -0.084 Cl
HETATM   19  C   UNL     1      30.762  43.306  55.112  1.00  0.00     0.039 A 
BRANCH  13  20
HETATM   20  O   UNL     1      27.899  44.958  53.503  1.00  0.00    -0.353 OA
HETATM   21  C   UNL     1      26.676  44.326  53.894  1.00  0.00     0.210 C 
ENDBRANCH  13  20
ENDBRANCH  11  12
ENDBRANCH   7  10
ENDBRANCH   1   6
BRANCH   5  22
HETATM   22  C   UNL     1      27.000  41.728  48.319  1.00  0.00     0.296 C 
BRANCH  22  23
HETATM   23  N   UNL     1      25.801  42.314  49.052  1.00  0.00    -0.066 N 
HETATM   24  H   UNL     1      25.672  41.719  49.896  1.00  0.00     0.280 HD
HETATM   25  C   UNL     1      26.059  43.716  49.537  1.00  0.00     0.235 C 
HETATM   26  C   UNL     1      24.994  44.200  50.513  1.00  0.00     0.028 C 
HETATM   27  C   UNL     1      23.675  44.551  49.835  1.00  0.00     0.002 C 
HETATM   28  C   UNL     1      22.723  43.377  49.644  1.00  0.00     0.002 C 
HETATM   29  C   UNL     1      23.320  42.057  49.167  1.00  0.00     0.028 C 
HETATM   30  C   UNL     1      24.528  42.160  48.245  1.00  0.00     0.235 C 
ENDBRANCH  22  23
ENDBRANCH   5  22
BRANCH   4  31
HETATM   31  C   UNL     1      27.062  39.034  46.724  1.00  0.00     0.229 A 
HETATM   32  N   UNL     1      27.897  39.071  45.684  1.00  0.00    -0.081 NA
HETATM   33  O   UNL     1      27.067  38.844  44.583  1.00  0.00    -0.103 OA
HETATM   34  N   UNL     1      25.747  38.674  44.976  1.00  0.00    -0.083 NA
HETATM   35  C   UNL     1      25.742  38.798  46.301  1.00  0.00     0.201 A 
BRANCH  35  36
HETATM   36  N   UNL     1      24.646  38.698  47.071  1.00  0.00    -0.379 N 
HETATM   37  H   UNL     1      23.728  38.855  46.661  1.00  0.00     0.158 HD
HETATM   38  H   UNL     1      24.667  38.762  48.086  1.00  0.00     0.158 HD
ENDBRANCH  35  36
ENDBRANCH   4  31
TORSDOF 8
ENDMDL
MODEL 4
REMARK VINA RESULT:      -8.6      1.702      2.304
REMARK  8 active torsions:
REMARK  status: ('A' for Active; 'I' for Inactive)
REMARK    1  A    between atoms: O_2  and  C_3 
REMARK    2  A    between atoms: C_10  and  C_11 
REMARK    3  A    between atoms: N_12  and  N_13 
REMARK       I    between atoms: N_13  and  C_14 
REMARK    4  A    between atoms: C_14  and  C_15 
REMARK    5  A    between atoms: N_18  and  C_19 
REMARK    6  A    between atoms: C_23  and  N_24 
REMARK    7  A    between atoms: C_25  and  C_26 
REMARK    8  A    between atoms: C_26  and  N_27 
ROOT
HETATM    1  C   UNL     1      22.355  45.234  48.645  1.00  0.00     0.176 C 
HETATM    2  N   UNL     1      22.045  43.906  48.632  1.00  0.00    -0.124 NA
HETATM    3  N   UNL     1      21.036  43.727  47.801  1.00  0.00    -0.058 NA
HETATM    4  N   UNL     1      20.627  44.933  47.324  1.00  0.00    -0.191 N 
HETATM    5  C   UNL     1      21.541  45.910  47.742  1.00  0.00     0.102 C 
ENDROOT
BRANCH   1   6
HETATM    6  C   UNL     1      23.400  45.787  49.496  1.00  0.00     0.294 C 
HETATM    7  N   UNL     1      23.763  44.975  50.552  1.00  0.00    -0.242 N 
HETATM    8  H   UNL     1      23.304  44.077  50.690  1.00  0.00     0.192 HD
HETATM    9  O   UNL     1      23.890  46.886  49.236  1.00  0.00    -0.264 OA
BRANCH   7  10
HETATM   10  N   UNL     1      24.735  45.389  51.411  1.00  0.00    -0.183 NA
HETATM   11  C   UNL     1      25.286  44.460  52.130  1.00  0.00     0.153 C 
BRANCH  11  12
HETATM   12  C   UNL     1      26.351  44.776  53.106  1.00  0.00     0.020 A 
HETATM   13  C   UNL     1      27.302  43.806  53.454  1.00  0.00     0.101 A 
HETATM   14  C   UNL     1      28.347  44.149  54.325  1.00  0.00     0.069 A 
HETATM   15 CL   UNL     1      29.614  43.040  54.706  1.00  0.00    -0.081 Cl
HETATM   16  C   UNL     1      28.406  45.426  54.889  1.00  0.00     0.050 A 
HETATM   17  C   UNL     1      27.432  46.367  54.566  1.00  0.00     0.036 A 
HETATM   18 CL   UNL     1      27.503  47.940  55.260  1.00  0.00    -0.084 Cl
HETATM   19  C   UNL     1      26.410  46.055  53.674  1.00  0.00     0.039 A 
BRANCH  13  20
HETATM   20  O   UNL     1      27.235  42.564  52.873  1.00  0.00    -0.353 OA
HETATM   21  C   UNL     1      28.104  42.484  51.738  1.00  0.00     0.210 C 
ENDBRANCH  13  20
ENDBRANCH  11  12
ENDBRANCH   7  10
ENDBRANCH   1   6
BRANCH   5  22
HETATM   22  C   UNL     1      21.464  47.340  47.329  1.00  0.00     0.296 C 
BRANCH  22  23
HETATM   23  N   UNL     1      21.090  48.335  48.418  1.00  0.00    -0.066 N 
HETATM   24  H   UNL     1      21.481  47.943  49.300  1.00  0.00     0.280 HD
HETATM   25  C   UNL     1      21.737  49.679  48.209  1.00  0.00     0.235 C 
HETATM   26  C   UNL     1      21.612  50.582  49.430  1.00  0.00     0.028 C 
HETATM   27  C   UNL     1      20.211  51.152  49.612  1.00  0.00     0.002 C 
HETATM   28  C   UNL     1      19.253  50.258  50.389  1.00  0.00     0.002 C 
HETATM   29  C   UNL     1      19.266  48.766  50.067  1.00  0.00     0.028 C 
HETATM   30  C   UNL     1      19.591  48.393  48.627  1.00  0.00     0.235 C 
ENDBRANCH  22  23
ENDBRANCH   5  22
BRANCH   4  31
HETATM   31  C   UNL     1      19.439  45.077  46.567  1.00  0.00     0.229 A 
HETATM   32  N   UNL     1      19.490  45.103  45.234  1.00  0.00    -0.081 NA
HETATM   33  O   UNL     1      18.158  45.285  44.853  1.00  0.00    -0.103 OA
HETATM   34  N   UNL     1      17.325  45.365  45.961  1.00  0.00    -0.083 NA
HETATM   35  C   UNL     1      18.118  45.242  47.022  1.00  0.00     0.201 A 
BRANCH  35  36
HETATM   36  N   UNL     1      17.693  45.267  48.296  1.00  0.00    -0.379 N 
HETATM   37  H   UNL     1      18.273  45.700  49.011  1.00  0.00     0.158 HD
HETATM   38  H   UNL     1      16.979  44.640  48.660  1.00  0.00     0.158 HD
ENDBRANCH  35  36
ENDBRANCH   4  31
TORSDOF 8
ENDMDL
MODEL 5
REMARK VINA RESULT:      -8.6      5.120      6.848
REMARK  8 active torsions:
REMARK  status: ('A' for Active; 'I' for Inactive)
REMARK    1  A    between atoms: O_2  and  C_3 
REMARK    2  A    between atoms: C_10  and  C_11 
REMARK    3  A    between atoms: N_12  and  N_13 
REMARK       I    between atoms: N_13  and  C_14 
REMARK    4  A    between atoms: C_14  and  C_15 
REMARK    5  A    between atoms: N_18  and  C_19 
REMARK    6  A    between atoms: C_23  and  N_24 
REMARK    7  A    between atoms: C_25  and  C_26 
REMARK    8  A    between atoms: C_26  and  N_27 
ROOT
HETATM    1  C   UNL     1      26.577  41.915  50.101  1.00  0.00     0.176 C 
HETATM    2  N   UNL     1      27.087  41.360  48.964  1.00  0.00    -0.124 NA
HETATM    3  N   UNL     1      26.140  41.360  48.046  1.00  0.00    -0.058 NA
HETATM    4  N   UNL     1      24.988  41.839  48.587  1.00  0.00    -0.191 N 
HETATM    5  C   UNL     1      25.270  42.331  49.868  1.00  0.00     0.102 C 
ENDROOT
BRANCH   1   6
HETATM    6  C   UNL     1      27.347  42.030  51.331  1.00  0.00     0.294 C 
HETATM    7  N   UNL     1      28.092  43.188  51.430  1.00  0.00    -0.242 N 
HETATM    8  H   UNL     1      28.081  43.871  50.675  1.00  0.00     0.192 HD
HETATM    9  O   UNL     1      27.287  41.142  52.182  1.00  0.00    -0.264 OA
BRANCH   7  10
HETATM   10  N   UNL     1      28.849  43.405  52.541  1.00  0.00    -0.183 NA
HETATM   11  C   UNL     1      28.305  44.141  53.460  1.00  0.00     0.153 C 
BRANCH  11  12
HETATM   12  C   UNL     1      29.021  44.458  54.714  1.00  0.00     0.020 A 
HETATM   13  C   UNL     1      28.537  45.454  55.573  1.00  0.00     0.101 A 
HETATM   14  C   UNL     1      29.189  45.687  56.793  1.00  0.00     0.069 A 
HETATM   15 CL   UNL     1      28.582  46.818  57.949  1.00  0.00    -0.081 Cl
HETATM   16  C   UNL     1      30.347  44.977  57.121  1.00  0.00     0.050 A 
HETATM   17  C   UNL     1      30.840  44.019  56.240  1.00  0.00     0.036 A 
HETATM   18 CL   UNL     1      32.266  43.143  56.643  1.00  0.00    -0.084 Cl
HETATM   19  C   UNL     1      30.183  43.748  55.044  1.00  0.00     0.039 A 
BRANCH  13  20
HETATM   20  O   UNL     1      27.388  46.126  55.239  1.00  0.00    -0.353 OA
HETATM   21  C   UNL     1      27.684  47.450  54.782  1.00  0.00     0.210 C 
ENDBRANCH  13  20
ENDBRANCH  11  12
ENDBRANCH   7  10
ENDBRANCH   1   6
BRANCH   5  22
HETATM   22  C   UNL     1      24.263  43.017  50.727  1.00  0.00     0.296 C 
BRANCH  22  23
HETATM   23  N   UNL     1      24.362  44.534  50.799  1.00  0.00    -0.066 N 
HETATM   24  H   UNL     1      23.416  44.861  51.083  1.00  0.00     0.280 HD
HETATM   25  C   UNL     1      25.325  44.992  51.862  1.00  0.00     0.235 C 
HETATM   26  C   UNL     1      25.214  46.485  52.143  1.00  0.00     0.028 C 
HETATM   27  C   UNL     1      25.830  47.348  51.048  1.00  0.00     0.002 C 
HETATM   28  C   UNL     1      24.896  47.671  49.889  1.00  0.00     0.002 C 
HETATM   29  C   UNL     1      24.021  46.541  49.354  1.00  0.00     0.028 C 
HETATM   30  C   UNL     1      24.612  45.140  49.433  1.00  0.00     0.235 C 
ENDBRANCH  22  23
ENDBRANCH   5  22
BRANCH   4  31
HETATM   31  C   UNL     1      23.752  41.772  47.900  1.00  0.00     0.229 A 
HETATM   32  N   UNL     1      22.686  41.224  48.486  1.00  0.00    -0.081 NA
HETATM   33  O   UNL     1      21.688  41.309  47.510  1.00  0.00    -0.103 OA
HETATM   34  N   UNL     1      22.168  41.906  46.353  1.00  0.00    -0.083 NA
HETATM   35  C   UNL     1      23.447  42.187  46.590  1.00  0.00     0.201 A 
BRANCH  35  36
HETATM   36  N   UNL     1      24.273  42.776  45.710  1.00  0.00    -0.379 N 
HETATM   37  H   UNL     1      24.271  43.789  45.620  1.00  0.00     0.158 HD
HETATM   38  H   UNL     1      24.694  42.286  44.924  1.00  0.00     0.158 HD
ENDBRANCH  35  36
ENDBRANCH   4  31
TORSDOF 8
ENDMDL
MODEL 6
REMARK VINA RESULT:      -8.4     13.018     14.489
REMARK  8 active torsions:
REMARK  status: ('A' for Active; 'I' for Inactive)
REMARK    1  A    between atoms: O_2  and  C_3 
REMARK    2  A    between atoms: C_10  and  C_11 
REMARK    3  A    between atoms: N_12  and  N_13 
REMARK       I    between atoms: N_13  and  C_14 
REMARK    4  A    between atoms: C_14  and  C_15 
REMARK    5  A    between atoms: N_18  and  C_19 
REMARK    6  A    between atoms: C_23  and  N_24 
REMARK    7  A    between atoms: C_25  and  C_26 
REMARK    8  A    between atoms: C_26  and  N_27 
ROOT
HETATM    1  C   UNL     1      31.340  51.877  42.607  1.00  0.00     0.176 C 
HETATM    2  N   UNL     1      30.514  52.963  42.627  1.00  0.00    -0.124 NA
HETATM    3  N   UNL     1      29.661  52.848  41.626  1.00  0.00    -0.058 NA
HETATM    4  N   UNL     1      29.964  51.739  40.901  1.00  0.00    -0.191 N 
HETATM    5  C   UNL     1      30.953  51.018  41.583  1.00  0.00     0.102 C 
ENDROOT
BRANCH   1   6
HETATM    6  C   UNL     1      32.434  51.707  43.553  1.00  0.00     0.294 C 
HETATM    7  N   UNL     1      33.670  52.080  43.064  1.00  0.00    -0.242 N 
HETATM    8  H   UNL     1      33.762  52.429  42.112  1.00  0.00     0.192 HD
HETATM    9  O   UNL     1      32.211  51.275  44.684  1.00  0.00    -0.264 OA
BRANCH   7  10
HETATM   10  N   UNL     1      34.767  51.967  43.863  1.00  0.00    -0.183 NA
HETATM   11  C   UNL     1      35.875  52.428  43.370  1.00  0.00     0.153 C 
BRANCH  11  12
HETATM   12  C   UNL     1      37.140  52.363  44.132  1.00  0.00     0.020 A 
HETATM   13  C   UNL     1      38.101  51.389  43.826  1.00  0.00     0.101 A 
HETATM   14  C   UNL     1      39.326  51.392  44.511  1.00  0.00     0.069 A 
HETATM   15 CL   UNL     1      40.596  50.294  44.107  1.00  0.00    -0.081 Cl
HETATM   16  C   UNL     1      39.562  52.316  45.531  1.00  0.00     0.050 A 
HETATM   17  C   UNL     1      38.583  53.253  45.852  1.00  0.00     0.036 A 
HETATM   18 CL   UNL     1      38.873  54.393  47.108  1.00  0.00    -0.084 Cl
HETATM   19  C   UNL     1      37.378  53.289  45.156  1.00  0.00     0.039 A 
BRANCH  13  20
HETATM   20  O   UNL     1      37.855  50.502  42.808  1.00  0.00    -0.353 OA
HETATM   21  C   UNL     1      38.371  50.993  41.566  1.00  0.00     0.210 C 
ENDBRANCH  13  20
ENDBRANCH  11  12
ENDBRANCH   7  10
ENDBRANCH   1   6
BRANCH   5  22
HETATM   22  C   UNL     1      31.467  49.695  41.130  1.00  0.00     0.296 C 
BRANCH  22  23
HETATM   23  N   UNL     1      30.451  48.763  40.486  1.00  0.00    -0.066 N 
HETATM   24  H   UNL     1      29.849  49.373  39.895  1.00  0.00     0.280 HD
HETATM   25  C   UNL     1      31.098  47.760  39.568  1.00  0.00     0.235 C 
HETATM   26  C   UNL     1      30.083  47.024  38.701  1.00  0.00     0.028 C 
HETATM   27  C   UNL     1      29.284  45.980  39.471  1.00  0.00     0.002 C 
HETATM   28  C   UNL     1      28.041  46.516  40.171  1.00  0.00     0.002 C 
HETATM   29  C   UNL     1      28.165  47.849  40.903  1.00  0.00     0.028 C 
HETATM   30  C   UNL     1      29.524  48.153  41.518  1.00  0.00     0.235 C 
ENDBRANCH  22  23
ENDBRANCH   5  22
BRANCH   4  31
HETATM   31  C   UNL     1      29.347  51.466  39.656  1.00  0.00     0.229 A 
HETATM   32  N   UNL     1      30.080  51.402  38.543  1.00  0.00    -0.081 NA
HETATM   33  O   UNL     1      29.140  51.153  37.539  1.00  0.00    -0.103 OA
HETATM   34  N   UNL     1      27.857  51.069  38.062  1.00  0.00    -0.083 NA
HETATM   35  C   UNL     1      27.983  51.269  39.371  1.00  0.00     0.201 A 
BRANCH  35  36
HETATM   36  N   UNL     1      26.962  51.266  40.244  1.00  0.00    -0.379 N 
HETATM   37  H   UNL     1      26.269  50.523  40.203  1.00  0.00     0.158 HD
HETATM   38  H   UNL     1      26.660  52.093  40.754  1.00  0.00     0.158 HD
ENDBRANCH  35  36
ENDBRANCH   4  31
TORSDOF 8
ENDMDL
MODEL 7
REMARK VINA RESULT:      -8.3      4.253      9.221
REMARK  8 active torsions:
REMARK  status: ('A' for Active; 'I' for Inactive)
REMARK    1  A    between atoms: O_2  and  C_3 
REMARK    2  A    between atoms: C_10  and  C_11 
REMARK    3  A    between atoms: N_12  and  N_13 
REMARK       I    between atoms: N_13  and  C_14 
REMARK    4  A    between atoms: C_14  and  C_15 
REMARK    5  A    between atoms: N_18  and  C_19 
REMARK    6  A    between atoms: C_23  and  N_24 
REMARK    7  A    between atoms: C_25  and  C_26 
REMARK    8  A    between atoms: C_26  and  N_27 
ROOT
HETATM    1  C   UNL     1      24.046  47.933  49.357  1.00  0.00     0.176 C 
HETATM    2  N   UNL     1      25.128  48.737  49.562  1.00  0.00    -0.124 NA
HETATM    3  N   UNL     1      26.065  48.022  50.154  1.00  0.00    -0.058 NA
HETATM    4  N   UNL     1      25.587  46.776  50.411  1.00  0.00    -0.191 N 
HETATM    5  C   UNL     1      24.338  46.643  49.790  1.00  0.00     0.102 C 
ENDROOT
BRANCH   1   6
HETATM    6  C   UNL     1      22.809  48.418  48.762  1.00  0.00     0.294 C 
HETATM    7  N   UNL     1      22.108  49.307  49.552  1.00  0.00    -0.242 N 
HETATM    8  H   UNL     1      22.460  49.565  50.472  1.00  0.00     0.192 HD
HETATM    9  O   UNL     1      22.475  48.041  47.638  1.00  0.00    -0.264 OA
BRANCH   7  10
HETATM   10  N   UNL     1      20.936  49.830  49.095  1.00  0.00    -0.183 NA
HETATM   11  C   UNL     1      19.884  49.562  49.803  1.00  0.00     0.153 C 
BRANCH  11  12
HETATM   12  C   UNL     1      18.548  50.064  49.414  1.00  0.00     0.020 A 
HETATM   13  C   UNL     1      17.717  49.297  48.586  1.00  0.00     0.101 A 
HETATM   14  C   UNL     1      16.426  49.758  48.290  1.00  0.00     0.069 A 
HETATM   15 CL   UNL     1      15.310  48.812  47.372  1.00  0.00    -0.081 Cl
HETATM   16  C   UNL     1      15.994  50.999  48.764  1.00  0.00     0.050 A 
HETATM   17  C   UNL     1      16.844  51.770  49.552  1.00  0.00     0.036 A 
HETATM   18 CL   UNL     1      16.313  53.298  50.137  1.00  0.00    -0.084 Cl
HETATM   19  C   UNL     1      18.114  51.309  49.887  1.00  0.00     0.039 A 
BRANCH  13  20
HETATM   20  O   UNL     1      18.156  48.072  48.147  1.00  0.00    -0.353 OA
HETATM   21  C   UNL     1      18.632  48.152  46.800  1.00  0.00     0.210 C 
ENDBRANCH  13  20
ENDBRANCH  11  12
ENDBRANCH   7  10
ENDBRANCH   1   6
BRANCH   5  22
HETATM   22  C   UNL     1      23.555  45.375  49.779  1.00  0.00     0.296 C 
BRANCH  22  23
HETATM   23  N   UNL     1      22.834  45.039  48.481  1.00  0.00    -0.066 N 
HETATM   24  H   UNL     1      22.826  45.923  47.931  1.00  0.00     0.280 HD
HETATM   25  C   UNL     1      23.579  44.018  47.663  1.00  0.00     0.235 C 
HETATM   26  C   UNL     1      23.031  43.894  46.247  1.00  0.00     0.028 C 
HETATM   27  C   UNL     1      21.702  43.150  46.182  1.00  0.00     0.002 C 
HETATM   28  C   UNL     1      20.472  44.021  46.399  1.00  0.00     0.002 C 
HETATM   29  C   UNL     1      20.533  45.062  47.513  1.00  0.00     0.028 C 
HETATM   30  C   UNL     1      21.379  44.697  48.726  1.00  0.00     0.235 C 
ENDBRANCH  22  23
ENDBRANCH   5  22
BRANCH   4  31
HETATM   31  C   UNL     1      26.297  45.851  51.214  1.00  0.00     0.229 A 
HETATM   32  N   UNL     1      27.030  44.891  50.646  1.00  0.00    -0.081 NA
HETATM   33  O   UNL     1      27.540  44.175  51.732  1.00  0.00    -0.103 OA
HETATM   34  N   UNL     1      27.107  44.713  52.936  1.00  0.00    -0.083 NA
HETATM   35  C   UNL     1      26.333  45.747  52.616  1.00  0.00     0.201 A 
BRANCH  35  36
HETATM   36  N   UNL     1      25.715  46.539  53.508  1.00  0.00    -0.379 N 
HETATM   37  H   UNL     1      25.559  47.519  53.285  1.00  0.00     0.158 HD
HETATM   38  H   UNL     1      25.645  46.318  54.499  1.00  0.00     0.158 HD
ENDBRANCH  35  36
ENDBRANCH   4  31
TORSDOF 8
ENDMDL
MODEL 8
REMARK VINA RESULT:      -8.3      3.745      6.027
REMARK  8 active torsions:
REMARK  status: ('A' for Active; 'I' for Inactive)
REMARK    1  A    between atoms: O_2  and  C_3 
REMARK    2  A    between atoms: C_10  and  C_11 
REMARK    3  A    between atoms: N_12  and  N_13 
REMARK       I    between atoms: N_13  and  C_14 
REMARK    4  A    between atoms: C_14  and  C_15 
REMARK    5  A    between atoms: N_18  and  C_19 
REMARK    6  A    between atoms: C_23  and  N_24 
REMARK    7  A    between atoms: C_25  and  C_26 
REMARK    8  A    between atoms: C_26  and  N_27 
ROOT
HETATM    1  C   UNL     1      23.505  45.940  49.355  1.00  0.00     0.176 C 
HETATM    2  N   UNL     1      22.975  47.068  48.802  1.00  0.00    -0.124 NA
HETATM    3  N   UNL     1      21.810  46.755  48.268  1.00  0.00    -0.058 NA
HETATM    4  N   UNL     1      21.601  45.418  48.395  1.00  0.00    -0.191 N 
HETATM    5  C   UNL     1      22.610  44.886  49.209  1.00  0.00     0.102 C 
ENDROOT
BRANCH   1   6
HETATM    6  C   UNL     1      24.814  45.920  49.994  1.00  0.00     0.294 C 
HETATM    7  N   UNL     1      24.772  45.821  51.371  1.00  0.00    -0.242 N 
HETATM    8  H   UNL     1      23.878  45.779  51.856  1.00  0.00     0.192 HD
HETATM    9  O   UNL     1      25.836  45.976  49.311  1.00  0.00    -0.264 OA
BRANCH   7  10
HETATM   10  N   UNL     1      25.937  45.789  52.075  1.00  0.00    -0.183 NA
HETATM   11  C   UNL     1      26.110  44.752  52.835  1.00  0.00     0.153 C 
BRANCH  11  12
HETATM   12  C   UNL     1      27.330  44.597  53.657  1.00  0.00     0.020 A 
HETATM   13  C   UNL     1      28.323  43.682  53.281  1.00  0.00     0.101 A 
HETATM   14  C   UNL     1      29.506  43.604  54.033  1.00  0.00     0.069 A 
HETATM   15 CL   UNL     1      30.817  42.582  53.563  1.00  0.00    -0.081 Cl
HETATM   16  C   UNL     1      29.666  44.385  55.179  1.00  0.00     0.050 A 
HETATM   17  C   UNL     1      28.654  45.261  55.563  1.00  0.00     0.036 A 
HETATM   18 CL   UNL     1      28.851  46.225  56.975  1.00  0.00    -0.084 Cl
HETATM   19  C   UNL     1      27.491  45.379  54.808  1.00  0.00     0.039 A 
BRANCH  13  20
HETATM   20  O   UNL     1      28.153  42.937  52.141  1.00  0.00    -0.353 OA
HETATM   21  C   UNL     1      27.839  41.578  52.460  1.00  0.00     0.210 C 
ENDBRANCH  13  20
ENDBRANCH  11  12
ENDBRANCH   7  10
ENDBRANCH   1   6
BRANCH   5  22
HETATM   22  C   UNL     1      22.651  43.460  49.643  1.00  0.00     0.296 C 
BRANCH  22  23
HETATM   23  N   UNL     1      23.707  42.586  48.981  1.00  0.00    -0.066 N 
HETATM   24  H   UNL     1      24.091  43.158  48.200  1.00  0.00     0.280 HD
HETATM   25  C   UNL     1      24.853  42.277  49.907  1.00  0.00     0.235 C 
HETATM   26  C   UNL     1      26.041  41.661  49.178  1.00  0.00     0.028 C 
HETATM   27  C   UNL     1      25.812  40.206  48.784  1.00  0.00     0.002 C 
HETATM   28  C   UNL     1      25.109  40.010  47.447  1.00  0.00     0.002 C 
HETATM   29  C   UNL     1      23.923  40.918  47.136  1.00  0.00     0.028 C 
HETATM   30  C   UNL     1      23.089  41.366  48.328  1.00  0.00     0.235 C 
ENDBRANCH  22  23
ENDBRANCH   5  22
BRANCH   4  31
HETATM   31  C   UNL     1      20.530  44.761  47.742  1.00  0.00     0.229 A 
HETATM   32  N   UNL     1      19.301  44.802  48.259  1.00  0.00    -0.081 NA
HETATM   33  O   UNL     1      18.541  44.032  47.374  1.00  0.00    -0.103 OA
HETATM   34  N   UNL     1      19.322  43.540  46.339  1.00  0.00    -0.083 NA
HETATM   35  C   UNL     1      20.555  43.985  46.568  1.00  0.00     0.201 A 
BRANCH  35  36
HETATM   36  N   UNL     1      21.616  43.725  45.787  1.00  0.00    -0.379 N 
HETATM   37  H   UNL     1      21.798  44.312  44.976  1.00  0.00     0.158 HD
HETATM   38  H   UNL     1      22.090  42.825  45.767  1.00  0.00     0.158 HD
ENDBRANCH  35  36
ENDBRANCH   4  31
TORSDOF 8
ENDMDL
MODEL 9
REMARK VINA RESULT:      -8.2      2.055      3.283
REMARK  8 active torsions:
REMARK  status: ('A' for Active; 'I' for Inactive)
REMARK    1  A    between atoms: O_2  and  C_3 
REMARK    2  A    between atoms: C_10  and  C_11 
REMARK    3  A    between atoms: N_12  and  N_13 
REMARK       I    between atoms: N_13  and  C_14 
REMARK    4  A    between atoms: C_14  and  C_15 
REMARK    5  A    between atoms: N_18  and  C_19 
REMARK    6  A    between atoms: C_23  and  N_24 
REMARK    7  A    between atoms: C_25  and  C_26 
REMARK    8  A    between atoms: C_26  and  N_27 
ROOT
HETATM    1  C   UNL     1      22.846  44.958  49.068  1.00  0.00     0.176 C 
HETATM    2  N   UNL     1      22.488  43.642  49.072  1.00  0.00    -0.124 NA
HETATM    3  N   UNL     1      21.385  43.514  48.359  1.00  0.00    -0.058 NA
HETATM    4  N   UNL     1      20.969  44.741  47.948  1.00  0.00    -0.191 N 
HETATM    5  C   UNL     1      21.959  45.678  48.273  1.00  0.00     0.102 C 
ENDROOT
BRANCH   1   6
HETATM    6  C   UNL     1      24.000  45.460  49.800  1.00  0.00     0.294 C 
HETATM    7  N   UNL     1      24.440  44.625  50.808  1.00  0.00    -0.242 N 
HETATM    8  H   UNL     1      23.960  43.746  50.993  1.00  0.00     0.192 HD
HETATM    9  O   UNL     1      24.506  46.539  49.492  1.00  0.00    -0.264 OA
BRANCH   7  10
HETATM   10  N   UNL     1      25.517  44.990  51.558  1.00  0.00    -0.183 NA
HETATM   11  C   UNL     1      25.799  44.213  52.557  1.00  0.00     0.153 C 
BRANCH  11  12
HETATM   12  C   UNL     1      26.940  44.498  53.453  1.00  0.00     0.020 A 
HETATM   13  C   UNL     1      26.851  45.521  54.408  1.00  0.00     0.101 A 
HETATM   14  C   UNL     1      27.915  45.727  55.298  1.00  0.00     0.069 A 
HETATM   15 CL   UNL     1      27.826  46.891  56.570  1.00  0.00    -0.081 Cl
HETATM   16  C   UNL     1      29.080  44.962  55.194  1.00  0.00     0.050 A 
HETATM   17  C   UNL     1      29.172  43.976  54.215  1.00  0.00     0.036 A 
HETATM   18 CL   UNL     1      30.605  43.033  54.086  1.00  0.00    -0.084 Cl
HETATM   19  C   UNL     1      28.109  43.733  53.349  1.00  0.00     0.039 A 
BRANCH  13  20
HETATM   20  O   UNL     1      25.690  46.248  54.504  1.00  0.00    -0.353 OA
HETATM   21  C   UNL     1      25.861  47.560  53.957  1.00  0.00     0.210 C 
ENDBRANCH  13  20
ENDBRANCH  11  12
ENDBRANCH   7  10
ENDBRANCH   1   6
BRANCH   5  22
HETATM   22  C   UNL     1      21.888  47.117  47.891  1.00  0.00     0.296 C 
BRANCH  22  23
HETATM   23  N   UNL     1      21.299  48.060  48.930  1.00  0.00    -0.066 N 
HETATM   24  H   UNL     1      21.511  47.626  49.852  1.00  0.00     0.280 HD
HETATM   25  C   UNL     1      21.963  49.411  48.916  1.00  0.00     0.235 C 
HETATM   26  C   UNL     1      21.593  50.255  50.129  1.00  0.00     0.028 C 
HETATM   27  C   UNL     1      20.179  50.819  50.058  1.00  0.00     0.002 C 
HETATM   28  C   UNL     1      19.094  49.890  50.587  1.00  0.00     0.002 C 
HETATM   29  C   UNL     1      19.182  48.415  50.205  1.00  0.00     0.028 C 
HETATM   30  C   UNL     1      19.787  48.110  48.841  1.00  0.00     0.235 C 
ENDBRANCH  22  23
ENDBRANCH   5  22
BRANCH   4  31
HETATM   31  C   UNL     1      19.708  44.939  47.335  1.00  0.00     0.229 A 
HETATM   32  N   UNL     1      18.585  44.736  48.025  1.00  0.00    -0.081 NA
HETATM   33  O   UNL     1      17.572  44.994  47.098  1.00  0.00    -0.103 OA
HETATM   34  N   UNL     1      18.099  45.349  45.865  1.00  0.00    -0.083 NA
HETATM   35  C   UNL     1      19.422  45.310  46.008  1.00  0.00     0.201 A 
BRANCH  35  36
HETATM   36  N   UNL     1      20.301  45.591  45.033  1.00  0.00    -0.379 N 
HETATM   37  H   UNL     1      21.120  45.001  44.910  1.00  0.00     0.158 HD
HETATM   38  H   UNL     1      20.374  46.505  44.592  1.00  0.00     0.158 HD
ENDBRANCH  35  36
ENDBRANCH   4  31
TORSDOF 8
ENDMDL
MODEL 10
REMARK VINA RESULT:      -8.2     14.196     15.487
REMARK  8 active torsions:
REMARK  status: ('A' for Active; 'I' for Inactive)
REMARK    1  A    between atoms: O_2  and  C_3 
REMARK    2  A    between atoms: C_10  and  C_11 
REMARK    3  A    between atoms: N_12  and  N_13 
REMARK       I    between atoms: N_13  and  C_14 
REMARK    4  A    between atoms: C_14  and  C_15 
REMARK    5  A    between atoms: N_18  and  C_19 
REMARK    6  A    between atoms: C_23  and  N_24 
REMARK    7  A    between atoms: C_25  and  C_26 
REMARK    8  A    between atoms: C_26  and  N_27 
ROOT
HETATM    1  C   UNL     1      34.564  50.575  41.727  1.00  0.00     0.176 C 
HETATM    2  N   UNL     1      34.925  49.281  41.492  1.00  0.00    -0.124 NA
HETATM    3  N   UNL     1      33.830  48.584  41.259  1.00  0.00    -0.058 NA
HETATM    4  N   UNL     1      32.743  49.387  41.414  1.00  0.00    -0.191 N 
HETATM    5  C   UNL     1      33.186  50.706  41.582  1.00  0.00     0.102 C 
ENDROOT
BRANCH   1   6
HETATM    6  C   UNL     1      35.530  51.611  42.064  1.00  0.00     0.294 C 
HETATM    7  N   UNL     1      36.337  51.306  43.143  1.00  0.00    -0.242 N 
HETATM    8  H   UNL     1      36.222  50.423  43.636  1.00  0.00     0.192 HD
HETATM    9  O   UNL     1      35.585  52.645  41.398  1.00  0.00    -0.264 OA
BRANCH   7  10
HETATM   10  N   UNL     1      37.281  52.201  43.546  1.00  0.00    -0.183 NA
HETATM   11  C   UNL     1      37.070  52.766  44.694  1.00  0.00     0.153 C 
BRANCH  11  12
HETATM   12  C   UNL     1      38.016  53.760  45.246  1.00  0.00     0.020 A 
HETATM   13  C   UNL     1      39.052  53.353  46.098  1.00  0.00     0.101 A 
HETATM   14  C   UNL     1      39.983  54.300  46.550  1.00  0.00     0.069 A 
HETATM   15 CL   UNL     1      41.349  53.849  47.506  1.00  0.00    -0.081 Cl
HETATM   16  C   UNL     1      39.843  55.647  46.206  1.00  0.00     0.050 A 
HETATM   17  C   UNL     1      38.786  56.044  45.393  1.00  0.00     0.036 A 
HETATM   18 CL   UNL     1      38.612  57.703  44.968  1.00  0.00    -0.084 Cl
HETATM   19  C   UNL     1      37.875  55.111  44.904  1.00  0.00     0.039 A 
BRANCH  13  20
HETATM   20  O   UNL     1      39.182  52.021  46.407  1.00  0.00    -0.353 OA
HETATM   21  C   UNL     1      40.206  51.410  45.615  1.00  0.00     0.210 C 
ENDBRANCH  13  20
ENDBRANCH  11  12
ENDBRANCH   7  10
ENDBRANCH   1   6
BRANCH   5  22
HETATM   22  C   UNL     1      32.268  51.875  41.690  1.00  0.00     0.296 C 
BRANCH  22  23
HETATM   23  N   UNL     1      31.096  51.902  40.718  1.00  0.00    -0.066 N 
HETATM   24  H   UNL     1      30.656  50.961  40.787  1.00  0.00     0.280 HD
HETATM   25  C   UNL     1      30.050  52.909  41.114  1.00  0.00     0.235 C 
HETATM   26  C   UNL     1      28.754  52.742  40.330  1.00  0.00     0.028 C 
HETATM   27  C   UNL     1      28.857  53.237  38.892  1.00  0.00     0.002 C 
HETATM   28  C   UNL     1      29.389  52.212  37.899  1.00  0.00     0.002 C 
HETATM   29  C   UNL     1      30.578  51.362  38.336  1.00  0.00     0.028 C 
HETATM   30  C   UNL     1      31.568  52.027  39.283  1.00  0.00     0.235 C 
ENDBRANCH  22  23
ENDBRANCH   5  22
BRANCH   4  31
HETATM   31  C   UNL     1      31.424  48.871  41.424  1.00  0.00     0.229 A 
HETATM   32  N   UNL     1      30.668  48.982  42.517  1.00  0.00    -0.081 NA
HETATM   33  O   UNL     1      29.476  48.343  42.163  1.00  0.00    -0.103 OA
HETATM   34  N   UNL     1      29.533  47.859  40.863  1.00  0.00    -0.083 NA
HETATM   35  C   UNL     1      30.741  48.181  40.407  1.00  0.00     0.201 A 
BRANCH  35  36
HETATM   36  N   UNL     1      31.192  47.887  39.176  1.00  0.00    -0.379 N 
HETATM   37  H   UNL     1      32.122  48.189  38.897  1.00  0.00     0.158 HD
HETATM   38  H   UNL     1      30.582  47.640  38.401  1.00  0.00     0.158 HD
ENDBRANCH  35  36
ENDBRANCH   4  31
TORSDOF 8
ENDMDL
