MODEL 1
REMARK VINA RESULT:     -10.1      0.000      0.000
REMARK  5 active torsions:
REMARK  status: ('A' for Active; 'I' for Inactive)
REMARK    1  A    between atoms: C_7  and  C_8 
REMARK    2  A    between atoms: N_9  and  N_10 
REMARK       I    between atoms: N_10  and  C_11 
REMARK    3  A    between atoms: C_11  and  C_12 
REMARK    4  A    between atoms: C_12  and  N_13 
REMARK       I    between atoms: N_13  and  C_14 
REMARK    5  A    between atoms: C_14  and  C_15 
ROOT
HETATM    1  N   UNL     1      24.742  46.857  51.527  1.00  0.00    -0.246 N 
HETATM    2  C   UNL     1      24.745  47.544  50.322  1.00  0.00     0.255 C 
HETATM    3  O   UNL     1      25.627  48.311  49.936  1.00  0.00    -0.270 OA
HETATM    4  H   UNL     1      23.959  46.233  51.741  1.00  0.00     0.192 HD
ENDROOT
BRANCH   1   5
HETATM    5  N   UNL     1      25.764  47.018  52.414  1.00  0.00    -0.184 NA
HETATM    6  C   UNL     1      26.021  45.995  53.163  1.00  0.00     0.153 C 
BRANCH   6   7
HETATM    7  C   UNL     1      27.077  46.065  54.158  1.00  0.00     0.018 A 
HETATM    8  C   UNL     1      27.251  47.051  55.123  1.00  0.00     0.018 A 
HETATM    9  C   UNL     1      26.464  48.278  55.424  1.00  0.00     0.069 C 
HETATM   10  N   UNL     1      28.364  46.726  55.857  1.00  0.00    -0.358 N 
HETATM   11  H   UNL     1      28.726  47.266  56.631  1.00  0.00     0.166 HD
HETATM   12  C   UNL     1      28.922  45.555  55.403  1.00  0.00     0.043 A 
HETATM   13  C   UNL     1      28.140  45.117  54.334  1.00  0.00     0.004 A 
HETATM   14  C   UNL     1      30.048  44.860  55.859  1.00  0.00     0.030 A 
HETATM   15  C   UNL     1      28.508  43.916  53.689  1.00  0.00     0.014 A 
HETATM   16  C   UNL     1      29.632  43.206  54.133  1.00  0.00     0.001 A 
HETATM   17  C   UNL     1      30.389  43.675  55.202  1.00  0.00     0.002 A 
ENDBRANCH   6   7
ENDBRANCH   1   5
BRANCH   2  18
HETATM   18  C   UNL     1      23.462  47.334  49.518  1.00  0.00     0.227 C 
BRANCH  18  19
HETATM   19  N   UNL     1      22.582  48.492  49.507  1.00  0.00    -0.348 N 
HETATM   20  C   UNL     1      21.283  48.433  49.071  1.00  0.00     0.253 C 
HETATM   21  O   UNL     1      20.830  47.405  48.568  1.00  0.00    -0.268 OA
HETATM   22  H   UNL     1      22.973  49.377  49.811  1.00  0.00     0.163 HD
BRANCH  20  23
HETATM   23  C   UNL     1      20.417  49.642  49.231  1.00  0.00     0.053 A 
HETATM   24  C   UNL     1      19.283  49.743  50.052  1.00  0.00     0.049 A 
HETATM   25 CL   UNL     1      18.717  48.478  51.088  1.00  0.00    -0.083 Cl
HETATM   26  C   UNL     1      18.543  50.935  50.086  1.00  0.00     0.025 A 
HETATM   27  C   UNL     1      18.927  52.032  49.317  1.00  0.00     0.002 A 
HETATM   28  C   UNL     1      20.057  51.949  48.512  1.00  0.00     0.001 A 
HETATM   29  C   UNL     1      20.796  50.765  48.470  1.00  0.00     0.019 A 
ENDBRANCH  20  23
ENDBRANCH  18  19
ENDBRANCH   2  18
TORSDOF 5
ENDMDL
MODEL 2
REMARK VINA RESULT:      -9.8      1.450      1.742
REMARK  5 active torsions:
REMARK  status: ('A' for Active; 'I' for Inactive)
REMARK    1  A    between atoms: C_7  and  C_8 
REMARK    2  A    between atoms: N_9  and  N_10 
REMARK       I    between atoms: N_10  and  C_11 
REMARK    3  A    between atoms: C_11  and  C_12 
REMARK    4  A    between atoms: C_12  and  N_13 
REMARK       I    between atoms: N_13  and  C_14 
REMARK    5  A    between atoms: C_14  and  C_15 
ROOT
HETATM    1  N   UNL     1      25.016  46.360  51.419  1.00  0.00    -0.246 N 
HETATM    2  C   UNL     1      25.177  46.242  50.047  1.00  0.00     0.255 C 
HETATM    3  O   UNL     1      26.252  46.240  49.448  1.00  0.00    -0.270 OA
HETATM    4  H   UNL     1      24.071  46.338  51.812  1.00  0.00     0.192 HD
ENDROOT
BRANCH   1   5
HETATM    5  N   UNL     1      26.100  46.512  52.230  1.00  0.00    -0.184 NA
HETATM    6  C   UNL     1      26.129  45.749  53.275  1.00  0.00     0.153 C 
BRANCH   6   7
HETATM    7  C   UNL     1      27.231  45.843  54.217  1.00  0.00     0.018 A 
HETATM    8  C   UNL     1      27.463  46.865  55.131  1.00  0.00     0.018 A 
HETATM    9  C   UNL     1      26.708  48.116  55.415  1.00  0.00     0.069 C 
HETATM   10  N   UNL     1      28.604  46.552  55.827  1.00  0.00    -0.358 N 
HETATM   11  H   UNL     1      29.008  47.118  56.560  1.00  0.00     0.166 HD
HETATM   12  C   UNL     1      29.123  45.355  55.397  1.00  0.00     0.043 A 
HETATM   13  C   UNL     1      28.287  44.886  54.384  1.00  0.00     0.004 A 
HETATM   14  C   UNL     1      30.259  44.661  55.831  1.00  0.00     0.030 A 
HETATM   15  C   UNL     1      28.608  43.653  53.774  1.00  0.00     0.014 A 
HETATM   16  C   UNL     1      29.740  42.945  54.196  1.00  0.00     0.001 A 
HETATM   17  C   UNL     1      30.552  43.444  55.209  1.00  0.00     0.002 A 
ENDBRANCH   6   7
ENDBRANCH   1   5
BRANCH   2  18
HETATM   18  C   UNL     1      23.846  46.207  49.295  1.00  0.00     0.227 C 
BRANCH  18  19
HETATM   19  N   UNL     1      22.969  47.325  49.606  1.00  0.00    -0.348 N 
HETATM   20  C   UNL     1      22.287  48.023  48.643  1.00  0.00     0.253 C 
HETATM   21  O   UNL     1      22.468  47.795  47.447  1.00  0.00    -0.268 OA
HETATM   22  H   UNL     1      22.895  47.602  50.579  1.00  0.00     0.163 HD
BRANCH  20  23
HETATM   23  C   UNL     1      21.301  49.062  49.074  1.00  0.00     0.053 A 
HETATM   24  C   UNL     1      21.511  50.450  49.074  1.00  0.00     0.049 A 
HETATM   25 CL   UNL     1      22.954  51.215  48.504  1.00  0.00    -0.083 Cl
HETATM   26  C   UNL     1      20.504  51.313  49.533  1.00  0.00     0.025 A 
HETATM   27  C   UNL     1      19.285  50.808  49.984  1.00  0.00     0.002 A 
HETATM   28  C   UNL     1      19.061  49.436  49.975  1.00  0.00     0.001 A 
HETATM   29  C   UNL     1      20.060  48.572  49.523  1.00  0.00     0.019 A 
ENDBRANCH  20  23
ENDBRANCH  18  19
ENDBRANCH   2  18
TORSDOF 5
ENDMDL
MODEL 3
REMARK VINA RESULT:      -9.7      3.533      9.476
REMARK  5 active torsions:
REMARK  status: ('A' for Active; 'I' for Inactive)
REMARK    1  A    between atoms: C_7  and  C_8 
REMARK    2  A    between atoms: N_9  and  N_10 
REMARK       I    between atoms: N_10  and  C_11 
REMARK    3  A    between atoms: C_11  and  C_12 
REMARK    4  A    between atoms: C_12  and  N_13 
REMARK       I    between atoms: N_13  and  C_14 
REMARK    5  A    between atoms: C_14  and  C_15 
ROOT
HETATM    1  N   UNL     1      27.262  44.882  50.123  1.00  0.00    -0.246 N 
HETATM    2  C   UNL     1      26.575  43.678  50.074  1.00  0.00     0.255 C 
HETATM    3  O   UNL     1      25.574  43.449  49.396  1.00  0.00    -0.270 OA
HETATM    4  H   UNL     1      28.093  44.956  50.716  1.00  0.00     0.192 HD
ENDROOT
BRANCH   1   5
HETATM    5  N   UNL     1      26.830  45.951  49.397  1.00  0.00    -0.184 NA
HETATM    6  C   UNL     1      26.260  46.894  50.075  1.00  0.00     0.153 C 
BRANCH   6   7
HETATM    7  C   UNL     1      25.744  48.070  49.397  1.00  0.00     0.018 A 
HETATM    8  C   UNL     1      26.473  49.171  48.962  1.00  0.00     0.018 A 
HETATM    9  C   UNL     1      27.926  49.481  49.051  1.00  0.00     0.069 C 
HETATM   10  N   UNL     1      25.598  50.045  48.367  1.00  0.00    -0.358 N 
HETATM   11  H   UNL     1      25.855  50.931  47.956  1.00  0.00     0.166 HD
HETATM   12  C   UNL     1      24.318  49.548  48.398  1.00  0.00     0.043 A 
HETATM   13  C   UNL     1      24.374  48.311  49.042  1.00  0.00     0.004 A 
HETATM   14  C   UNL     1      23.128  50.096  47.906  1.00  0.00     0.030 A 
HETATM   15  C   UNL     1      23.172  47.587  49.199  1.00  0.00     0.014 A 
HETATM   16  C   UNL     1      21.972  48.121  48.710  1.00  0.00     0.001 A 
HETATM   17  C   UNL     1      21.954  49.358  48.074  1.00  0.00     0.002 A 
ENDBRANCH   6   7
ENDBRANCH   1   5
BRANCH   2  18
HETATM   18  C   UNL     1      27.133  42.638  51.048  1.00  0.00     0.227 C 
BRANCH  18  19
HETATM   19  N   UNL     1      28.042  43.193  52.038  1.00  0.00    -0.348 N 
HETATM   20  C   UNL     1      27.646  43.510  53.313  1.00  0.00     0.253 C 
HETATM   21  O   UNL     1      26.465  43.432  53.647  1.00  0.00    -0.268 OA
HETATM   22  H   UNL     1      28.996  43.373  51.746  1.00  0.00     0.163 HD
BRANCH  20  23
HETATM   23  C   UNL     1      28.684  43.941  54.299  1.00  0.00     0.053 A 
HETATM   24  C   UNL     1      28.769  45.200  54.913  1.00  0.00     0.049 A 
HETATM   25 CL   UNL     1      27.625  46.476  54.676  1.00  0.00    -0.083 Cl
HETATM   26  C   UNL     1      29.817  45.480  55.804  1.00  0.00     0.025 A 
HETATM   27  C   UNL     1      30.779  44.514  56.096  1.00  0.00     0.002 A 
HETATM   28  C   UNL     1      30.697  43.258  55.505  1.00  0.00     0.001 A 
HETATM   29  C   UNL     1      29.659  42.975  54.616  1.00  0.00     0.019 A 
ENDBRANCH  20  23
ENDBRANCH  18  19
ENDBRANCH   2  18
TORSDOF 5
ENDMDL
MODEL 4
REMARK VINA RESULT:      -9.3      3.258      9.924
REMARK  5 active torsions:
REMARK  status: ('A' for Active; 'I' for Inactive)
REMARK    1  A    between atoms: C_7  and  C_8 
REMARK    2  A    between atoms: N_9  and  N_10 
REMARK       I    between atoms: N_10  and  C_11 
REMARK    3  A    between atoms: C_11  and  C_12 
REMARK    4  A    between atoms: C_12  and  N_13 
REMARK       I    between atoms: N_13  and  C_14 
REMARK    5  A    between atoms: C_14  and  C_15 
ROOT
HETATM    1  N   UNL     1      25.391  45.409  50.270  1.00  0.00    -0.246 N 
HETATM    2  C   UNL     1      26.701  44.952  50.253  1.00  0.00     0.255 C 
HETATM    3  O   UNL     1      27.598  45.373  49.524  1.00  0.00    -0.270 OA
HETATM    4  H   UNL     1      24.729  44.992  50.929  1.00  0.00     0.192 HD
ENDROOT
BRANCH   1   5
HETATM    5  N   UNL     1      24.994  46.392  49.414  1.00  0.00    -0.184 NA
HETATM    6  C   UNL     1      24.489  47.446  49.969  1.00  0.00     0.153 C 
BRANCH   6   7
HETATM    7  C   UNL     1      24.014  48.546  49.148  1.00  0.00     0.018 A 
HETATM    8  C   UNL     1      24.789  49.515  48.521  1.00  0.00     0.018 A 
HETATM    9  C   UNL     1      26.262  49.727  48.496  1.00  0.00     0.069 C 
HETATM   10  N   UNL     1      23.941  50.355  47.844  1.00  0.00    -0.358 N 
HETATM   11  H   UNL     1      24.232  51.152  47.293  1.00  0.00     0.166 HD
HETATM   12  C   UNL     1      22.634  49.963  48.007  1.00  0.00     0.043 A 
HETATM   13  C   UNL     1      22.645  48.832  48.824  1.00  0.00     0.004 A 
HETATM   14  C   UNL     1      21.458  50.521  47.493  1.00  0.00     0.030 A 
HETATM   15  C   UNL     1      21.409  48.229  49.142  1.00  0.00     0.014 A 
HETATM   16  C   UNL     1      20.221  48.773  48.636  1.00  0.00     0.001 A 
HETATM   17  C   UNL     1      20.249  49.903  47.824  1.00  0.00     0.002 A 
ENDBRANCH   6   7
ENDBRANCH   1   5
BRANCH   2  18
HETATM   18  C   UNL     1      26.926  43.765  51.191  1.00  0.00     0.227 C 
BRANCH  18  19
HETATM   19  N   UNL     1      27.950  44.001  52.196  1.00  0.00    -0.348 N 
HETATM   20  C   UNL     1      27.653  44.337  53.493  1.00  0.00     0.253 C 
HETATM   21  O   UNL     1      26.493  44.555  53.840  1.00  0.00    -0.268 OA
HETATM   22  H   UNL     1      28.917  43.938  51.899  1.00  0.00     0.163 HD
BRANCH  20  23
HETATM   23  C   UNL     1      28.769  44.419  54.485  1.00  0.00     0.053 A 
HETATM   24  C   UNL     1      29.077  45.525  55.292  1.00  0.00     0.049 A 
HETATM   25 CL   UNL     1      28.161  46.992  55.322  1.00  0.00    -0.083 Cl
HETATM   26  C   UNL     1      30.175  45.475  56.165  1.00  0.00     0.025 A 
HETATM   27  C   UNL     1      30.966  44.330  56.248  1.00  0.00     0.002 A 
HETATM   28  C   UNL     1      30.661  43.222  55.465  1.00  0.00     0.001 A 
HETATM   29  C   UNL     1      29.572  43.267  54.592  1.00  0.00     0.019 A 
ENDBRANCH  20  23
ENDBRANCH  18  19
ENDBRANCH   2  18
TORSDOF 5
ENDMDL
MODEL 5
REMARK VINA RESULT:      -9.2      6.104      8.749
REMARK  5 active torsions:
REMARK  status: ('A' for Active; 'I' for Inactive)
REMARK    1  A    between atoms: C_7  and  C_8 
REMARK    2  A    between atoms: N_9  and  N_10 
REMARK       I    between atoms: N_10  and  C_11 
REMARK    3  A    between atoms: C_11  and  C_12 
REMARK    4  A    between atoms: C_12  and  N_13 
REMARK       I    between atoms: N_13  and  C_14 
REMARK    5  A    between atoms: C_14  and  C_15 
ROOT
HETATM    1  N   UNL     1      26.367  42.969  51.641  1.00  0.00    -0.246 N 
HETATM    2  C   UNL     1      25.076  42.939  51.136  1.00  0.00     0.255 C 
HETATM    3  O   UNL     1      24.098  43.497  51.632  1.00  0.00    -0.270 OA
HETATM    4  H   UNL     1      27.109  42.475  51.137  1.00  0.00     0.192 HD
ENDROOT
BRANCH   1   5
HETATM    5  N   UNL     1      26.639  43.639  52.796  1.00  0.00    -0.184 NA
HETATM    6  C   UNL     1      27.839  44.112  52.899  1.00  0.00     0.153 C 
BRANCH   6   7
HETATM    7  C   UNL     1      28.241  44.826  54.098  1.00  0.00     0.018 A 
HETATM    8  C   UNL     1      27.685  45.997  54.600  1.00  0.00     0.018 A 
HETATM    9  C   UNL     1      26.571  46.846  54.096  1.00  0.00     0.069 C 
HETATM   10  N   UNL     1      28.358  46.320  55.751  1.00  0.00    -0.358 N 
HETATM   11  H   UNL     1      28.161  47.125  56.330  1.00  0.00     0.166 HD
HETATM   12  C   UNL     1      29.336  45.395  56.019  1.00  0.00     0.043 A 
HETATM   13  C   UNL     1      29.292  44.445  54.998  1.00  0.00     0.004 A 
HETATM   14  C   UNL     1      30.244  45.329  57.082  1.00  0.00     0.030 A 
HETATM   15  C   UNL     1      30.209  43.372  55.048  1.00  0.00     0.014 A 
HETATM   16  C   UNL     1      31.125  43.290  56.105  1.00  0.00     0.001 A 
HETATM   17  C   UNL     1      31.140  44.257  57.106  1.00  0.00     0.002 A 
ENDBRANCH   6   7
ENDBRANCH   1   5
BRANCH   2  18
HETATM   18  C   UNL     1      24.941  42.037  49.907  1.00  0.00     0.227 C 
BRANCH  18  19
HETATM   19  N   UNL     1      25.905  40.949  49.873  1.00  0.00    -0.348 N 
HETATM   20  C   UNL     1      27.126  41.059  49.258  1.00  0.00     0.253 C 
HETATM   21  O   UNL     1      27.423  42.064  48.614  1.00  0.00    -0.268 OA
HETATM   22  H   UNL     1      25.631  40.071  50.300  1.00  0.00     0.163 HD
BRANCH  20  23
HETATM   23  C   UNL     1      28.103  39.935  49.399  1.00  0.00     0.053 A 
HETATM   24  C   UNL     1      28.535  39.082  48.371  1.00  0.00     0.049 A 
HETATM   25 CL   UNL     1      28.048  39.229  46.718  1.00  0.00    -0.083 Cl
HETATM   26  C   UNL     1      29.439  38.046  48.650  1.00  0.00     0.025 A 
HETATM   27  C   UNL     1      29.924  37.854  49.943  1.00  0.00     0.002 A 
HETATM   28  C   UNL     1      29.515  38.701  50.966  1.00  0.00     0.001 A 
HETATM   29  C   UNL     1      28.613  39.733  50.696  1.00  0.00     0.019 A 
ENDBRANCH  20  23
ENDBRANCH  18  19
ENDBRANCH   2  18
TORSDOF 5
ENDMDL
MODEL 6
REMARK VINA RESULT:      -8.9      3.352     10.002
REMARK  5 active torsions:
REMARK  status: ('A' for Active; 'I' for Inactive)
REMARK    1  A    between atoms: C_7  and  C_8 
REMARK    2  A    between atoms: N_9  and  N_10 
REMARK       I    between atoms: N_10  and  C_11 
REMARK    3  A    between atoms: C_11  and  C_12 
REMARK    4  A    between atoms: C_12  and  N_13 
REMARK       I    between atoms: N_13  and  C_14 
REMARK    5  A    between atoms: C_14  and  C_15 
ROOT
HETATM    1  N   UNL     1      25.498  44.989  50.562  1.00  0.00    -0.246 N 
HETATM    2  C   UNL     1      25.311  44.248  51.720  1.00  0.00     0.255 C 
HETATM    3  O   UNL     1      24.389  44.390  52.522  1.00  0.00    -0.270 OA
HETATM    4  H   UNL     1      26.297  44.775  49.960  1.00  0.00     0.192 HD
ENDROOT
BRANCH   1   5
HETATM    5  N   UNL     1      24.633  45.991  50.239  1.00  0.00    -0.184 NA
HETATM    6  C   UNL     1      23.835  45.744  49.251  1.00  0.00     0.153 C 
BRANCH   6   7
HETATM    7  C   UNL     1      22.886  46.751  48.810  1.00  0.00     0.018 A 
HETATM    8  C   UNL     1      21.545  46.557  48.499  1.00  0.00     0.018 A 
HETATM    9  C   UNL     1      20.705  45.329  48.512  1.00  0.00     0.069 C 
HETATM   10  N   UNL     1      21.019  47.772  48.137  1.00  0.00    -0.358 N 
HETATM   11  H   UNL     1      20.059  47.929  47.864  1.00  0.00     0.166 HD
HETATM   12  C   UNL     1      21.975  48.756  48.205  1.00  0.00     0.043 A 
HETATM   13  C   UNL     1      23.160  48.148  48.620  1.00  0.00     0.004 A 
HETATM   14  C   UNL     1      21.876  50.125  47.934  1.00  0.00     0.030 A 
HETATM   15  C   UNL     1      24.306  48.958  48.771  1.00  0.00     0.014 A 
HETATM   16  C   UNL     1      24.225  50.332  48.505  1.00  0.00     0.001 A 
HETATM   17  C   UNL     1      23.026  50.903  48.092  1.00  0.00     0.002 A 
ENDBRANCH   6   7
ENDBRANCH   1   5
BRANCH   2  18
HETATM   18  C   UNL     1      26.447  43.257  51.979  1.00  0.00     0.227 C 
BRANCH  18  19
HETATM   19  N   UNL     1      27.210  43.544  53.184  1.00  0.00    -0.348 N 
HETATM   20  C   UNL     1      28.575  43.676  53.183  1.00  0.00     0.253 C 
HETATM   21  O   UNL     1      29.232  43.456  52.167  1.00  0.00    -0.268 OA
HETATM   22  H   UNL     1      26.695  43.616  54.054  1.00  0.00     0.163 HD
BRANCH  20  23
HETATM   23  C   UNL     1      29.253  44.111  54.444  1.00  0.00     0.053 A 
HETATM   24  C   UNL     1      29.009  45.301  55.146  1.00  0.00     0.049 A 
HETATM   25 CL   UNL     1      27.810  46.465  54.697  1.00  0.00    -0.083 Cl
HETATM   26  C   UNL     1      29.741  45.597  56.306  1.00  0.00     0.025 A 
HETATM   27  C   UNL     1      30.710  44.714  56.779  1.00  0.00     0.002 A 
HETATM   28  C   UNL     1      30.951  43.525  56.101  1.00  0.00     0.001 A 
HETATM   29  C   UNL     1      30.228  43.226  54.944  1.00  0.00     0.019 A 
ENDBRANCH  20  23
ENDBRANCH  18  19
ENDBRANCH   2  18
TORSDOF 5
ENDMDL
MODEL 7
REMARK VINA RESULT:      -8.6      2.163      3.139
REMARK  5 active torsions:
REMARK  status: ('A' for Active; 'I' for Inactive)
REMARK    1  A    between atoms: C_7  and  C_8 
REMARK    2  A    between atoms: N_9  and  N_10 
REMARK       I    between atoms: N_10  and  C_11 
REMARK    3  A    between atoms: C_11  and  C_12 
REMARK    4  A    between atoms: C_12  and  N_13 
REMARK       I    between atoms: N_13  and  C_14 
REMARK    5  A    between atoms: C_14  and  C_15 
ROOT
HETATM    1  N   UNL     1      24.244  45.426  50.791  1.00  0.00    -0.246 N 
HETATM    2  C   UNL     1      24.100  45.001  49.478  1.00  0.00     0.255 C 
HETATM    3  O   UNL     1      24.975  44.470  48.796  1.00  0.00    -0.270 OA
HETATM    4  H   UNL     1      23.441  45.846  51.267  1.00  0.00     0.192 HD
ENDROOT
BRANCH   1   5
HETATM    5  N   UNL     1      25.439  45.293  51.431  1.00  0.00    -0.184 NA
HETATM    6  C   UNL     1      25.514  44.317  52.278  1.00  0.00     0.153 C 
BRANCH   6   7
HETATM    7  C   UNL     1      26.736  44.097  53.031  1.00  0.00     0.018 A 
HETATM    8  C   UNL     1      27.573  42.989  52.961  1.00  0.00     0.018 A 
HETATM    9  C   UNL     1      27.485  41.745  52.147  1.00  0.00     0.069 C 
HETATM   10  N   UNL     1      28.615  43.195  53.830  1.00  0.00    -0.358 N 
HETATM   11  H   UNL     1      29.378  42.550  53.982  1.00  0.00     0.166 HD
HETATM   12  C   UNL     1      28.487  44.406  54.464  1.00  0.00     0.043 A 
HETATM   13  C   UNL     1      27.316  44.996  53.988  1.00  0.00     0.004 A 
HETATM   14  C   UNL     1      29.316  45.016  55.413  1.00  0.00     0.030 A 
HETATM   15  C   UNL     1      26.959  46.267  54.491  1.00  0.00     0.014 A 
HETATM   16  C   UNL     1      27.778  46.892  55.440  1.00  0.00     0.001 A 
HETATM   17  C   UNL     1      28.938  46.273  55.893  1.00  0.00     0.002 A 
ENDBRANCH   6   7
ENDBRANCH   1   5
BRANCH   2  18
HETATM   18  C   UNL     1      22.731  45.347  48.890  1.00  0.00     0.227 C 
BRANCH  18  19
HETATM   19  N   UNL     1      22.281  46.693  49.208  1.00  0.00    -0.348 N 
HETATM   20  C   UNL     1      21.844  47.575  48.253  1.00  0.00     0.253 C 
HETATM   21  O   UNL     1      21.910  47.295  47.056  1.00  0.00    -0.268 OA
HETATM   22  H   UNL     1      22.328  46.982  50.179  1.00  0.00     0.163 HD
BRANCH  20  23
HETATM   23  C   UNL     1      21.269  48.883  48.693  1.00  0.00     0.053 A 
HETATM   24  C   UNL     1      21.831  50.150  48.471  1.00  0.00     0.049 A 
HETATM   25 CL   UNL     1      23.285  50.424  47.574  1.00  0.00    -0.083 Cl
HETATM   26  C   UNL     1      21.195  51.298  48.967  1.00  0.00     0.025 A 
HETATM   27  C   UNL     1      19.999  51.199  49.676  1.00  0.00     0.002 A 
HETATM   28  C   UNL     1      19.425  49.951  49.890  1.00  0.00     0.001 A 
HETATM   29  C   UNL     1      20.055  48.804  49.402  1.00  0.00     0.019 A 
ENDBRANCH  20  23
ENDBRANCH  18  19
ENDBRANCH   2  18
TORSDOF 5
ENDMDL
MODEL 8
REMARK VINA RESULT:      -8.6      2.966     10.323
REMARK  5 active torsions:
REMARK  status: ('A' for Active; 'I' for Inactive)
REMARK    1  A    between atoms: C_7  and  C_8 
REMARK    2  A    between atoms: N_9  and  N_10 
REMARK       I    between atoms: N_10  and  C_11 
REMARK    3  A    between atoms: C_11  and  C_12 
REMARK    4  A    between atoms: C_12  and  N_13 
REMARK       I    between atoms: N_13  and  C_14 
REMARK    5  A    between atoms: C_14  and  C_15 
ROOT
HETATM    1  N   UNL     1      22.886  46.704  49.131  1.00  0.00    -0.246 N 
HETATM    2  C   UNL     1      24.013  47.022  49.874  1.00  0.00     0.255 C 
HETATM    3  O   UNL     1      24.461  48.154  50.049  1.00  0.00    -0.270 OA
HETATM    4  H   UNL     1      22.596  45.724  49.063  1.00  0.00     0.192 HD
ENDROOT
BRANCH   1   5
HETATM    5  N   UNL     1      22.183  47.681  48.494  1.00  0.00    -0.184 NA
HETATM    6  C   UNL     1      20.913  47.465  48.367  1.00  0.00     0.153 C 
BRANCH   6   7
HETATM    7  C   UNL     1      20.073  48.434  47.686  1.00  0.00     0.018 A 
HETATM    8  C   UNL     1      19.394  48.254  46.486  1.00  0.00     0.018 A 
HETATM    9  C   UNL     1      19.321  47.085  45.567  1.00  0.00     0.069 C 
HETATM   10  N   UNL     1      18.716  49.415  46.210  1.00  0.00    -0.358 N 
HETATM   11  H   UNL     1      18.133  49.566  45.398  1.00  0.00     0.166 HD
HETATM   12  C   UNL     1      18.928  50.348  47.195  1.00  0.00     0.043 A 
HETATM   13  C   UNL     1      19.779  49.765  48.135  1.00  0.00     0.004 A 
HETATM   14  C   UNL     1      18.430  51.650  47.322  1.00  0.00     0.030 A 
HETATM   15  C   UNL     1      20.149  50.531  49.262  1.00  0.00     0.014 A 
HETATM   16  C   UNL     1      19.660  51.836  49.405  1.00  0.00     0.001 A 
HETATM   17  C   UNL     1      18.814  52.385  48.447  1.00  0.00     0.002 A 
ENDBRANCH   6   7
ENDBRANCH   1   5
BRANCH   2  18
HETATM   18  C   UNL     1      24.739  45.786  50.408  1.00  0.00     0.227 C 
BRANCH  18  19
HETATM   19  N   UNL     1      25.684  46.077  51.474  1.00  0.00    -0.348 N 
HETATM   20  C   UNL     1      25.658  45.433  52.685  1.00  0.00     0.253 C 
HETATM   21  O   UNL     1      24.759  44.639  52.961  1.00  0.00    -0.268 OA
HETATM   22  H   UNL     1      26.363  46.812  51.307  1.00  0.00     0.163 HD
BRANCH  20  23
HETATM   23  C   UNL     1      26.757  45.701  53.663  1.00  0.00     0.053 A 
HETATM   24  C   UNL     1      27.640  44.749  54.196  1.00  0.00     0.049 A 
HETATM   25 CL   UNL     1      27.647  43.076  53.754  1.00  0.00    -0.083 Cl
HETATM   26  C   UNL     1      28.612  45.136  55.131  1.00  0.00     0.025 A 
HETATM   27  C   UNL     1      28.720  46.466  55.535  1.00  0.00     0.002 A 
HETATM   28  C   UNL     1      27.861  47.421  55.003  1.00  0.00     0.001 A 
HETATM   29  C   UNL     1      26.889  47.041  54.075  1.00  0.00     0.019 A 
ENDBRANCH  20  23
ENDBRANCH  18  19
ENDBRANCH   2  18
TORSDOF 5
ENDMDL
MODEL 9
REMARK VINA RESULT:      -8.6      2.172      3.083
REMARK  5 active torsions:
REMARK  status: ('A' for Active; 'I' for Inactive)
REMARK    1  A    between atoms: C_7  and  C_8 
REMARK    2  A    between atoms: N_9  and  N_10 
REMARK       I    between atoms: N_10  and  C_11 
REMARK    3  A    between atoms: C_11  and  C_12 
REMARK    4  A    between atoms: C_12  and  N_13 
REMARK       I    between atoms: N_13  and  C_14 
REMARK    5  A    between atoms: C_14  and  C_15 
ROOT
HETATM    1  N   UNL     1      24.808  47.114  50.807  1.00  0.00    -0.246 N 
HETATM    2  C   UNL     1      23.937  47.332  49.749  1.00  0.00     0.255 C 
HETATM    3  O   UNL     1      23.272  46.469  49.178  1.00  0.00    -0.270 OA
HETATM    4  H   UNL     1      25.303  47.911  51.215  1.00  0.00     0.192 HD
ENDROOT
BRANCH   1   5
HETATM    5  N   UNL     1      25.005  45.854  51.288  1.00  0.00    -0.184 NA
HETATM    6  C   UNL     1      26.169  45.341  51.052  1.00  0.00     0.153 C 
BRANCH   6   7
HETATM    7  C   UNL     1      26.479  43.996  51.502  1.00  0.00     0.018 A 
HETATM    8  C   UNL     1      25.895  42.813  51.063  1.00  0.00     0.018 A 
HETATM    9  C   UNL     1      24.828  42.561  50.057  1.00  0.00     0.069 C 
HETATM   10  N   UNL     1      26.487  41.777  51.742  1.00  0.00    -0.358 N 
HETATM   11  H   UNL     1      26.260  40.800  51.620  1.00  0.00     0.166 HD
HETATM   12  C   UNL     1      27.442  42.247  52.611  1.00  0.00     0.043 A 
HETATM   13  C   UNL     1      27.459  43.637  52.488  1.00  0.00     0.004 A 
HETATM   14  C   UNL     1      28.284  41.549  53.484  1.00  0.00     0.030 A 
HETATM   15  C   UNL     1      28.371  44.364  53.284  1.00  0.00     0.014 A 
HETATM   16  C   UNL     1      29.222  43.681  54.163  1.00  0.00     0.001 A 
HETATM   17  C   UNL     1      29.176  42.294  54.260  1.00  0.00     0.002 A 
ENDBRANCH   6   7
ENDBRANCH   1   5
BRANCH   2  18
HETATM   18  C   UNL     1      23.942  48.784  49.268  1.00  0.00     0.227 C 
BRANCH  18  19
HETATM   19  N   UNL     1      22.680  49.474  49.478  1.00  0.00    -0.348 N 
HETATM   20  C   UNL     1      21.734  49.606  48.493  1.00  0.00     0.253 C 
HETATM   21  O   UNL     1      21.960  49.228  47.344  1.00  0.00    -0.268 OA
HETATM   22  H   UNL     1      22.523  49.893  50.388  1.00  0.00     0.163 HD
BRANCH  20  23
HETATM   23  C   UNL     1      20.411  50.207  48.846  1.00  0.00     0.053 A 
HETATM   24  C   UNL     1      19.304  49.519  49.366  1.00  0.00     0.049 A 
HETATM   25 CL   UNL     1      19.302  47.834  49.757  1.00  0.00    -0.083 Cl
HETATM   26  C   UNL     1      18.108  50.207  49.628  1.00  0.00     0.025 A 
HETATM   27  C   UNL     1      18.006  51.575  49.382  1.00  0.00     0.002 A 
HETATM   28  C   UNL     1      19.101  52.270  48.880  1.00  0.00     0.001 A 
HETATM   29  C   UNL     1      20.292  51.591  48.615  1.00  0.00     0.019 A 
ENDBRANCH  20  23
ENDBRANCH  18  19
ENDBRANCH   2  18
TORSDOF 5
ENDMDL
MODEL 10
REMARK VINA RESULT:      -8.6      3.087      3.919
REMARK  5 active torsions:
REMARK  status: ('A' for Active; 'I' for Inactive)
REMARK    1  A    between atoms: C_7  and  C_8 
REMARK    2  A    between atoms: N_9  and  N_10 
REMARK       I    between atoms: N_10  and  C_11 
REMARK    3  A    between atoms: C_11  and  C_12 
REMARK    4  A    between atoms: C_12  and  N_13 
REMARK       I    between atoms: N_13  and  C_14 
REMARK    5  A    between atoms: C_14  and  C_15 
ROOT
HETATM    1  N   UNL     1      26.544  44.212  51.062  1.00  0.00    -0.246 N 
HETATM    2  C   UNL     1      26.681  42.948  50.508  1.00  0.00     0.255 C 
HETATM    3  O   UNL     1      27.527  42.113  50.827  1.00  0.00    -0.270 OA
HETATM    4  H   UNL     1      25.793  44.823  50.726  1.00  0.00     0.192 HD
ENDROOT
BRANCH   1   5
HETATM    5  N   UNL     1      27.402  44.636  52.032  1.00  0.00    -0.184 NA
HETATM    6  C   UNL     1      26.869  44.867  53.188  1.00  0.00     0.153 C 
BRANCH   6   7
HETATM    7  C   UNL     1      27.690  45.342  54.288  1.00  0.00     0.018 A 
HETATM    8  C   UNL     1      27.502  46.502  55.031  1.00  0.00     0.018 A 
HETATM    9  C   UNL     1      26.465  47.567  54.939  1.00  0.00     0.069 C 
HETATM   10  N   UNL     1      28.497  46.562  55.973  1.00  0.00    -0.358 N 
HETATM   11  H   UNL     1      28.604  47.299  56.656  1.00  0.00     0.166 HD
HETATM   12  C   UNL     1      29.330  45.474  55.871  1.00  0.00     0.043 A 
HETATM   13  C   UNL     1      28.853  44.690  54.820  1.00  0.00     0.004 A 
HETATM   14  C   UNL     1      30.456  45.130  56.628  1.00  0.00     0.030 A 
HETATM   15  C   UNL     1      29.545  43.498  54.512  1.00  0.00     0.014 A 
HETATM   16  C   UNL     1      30.674  43.138  55.260  1.00  0.00     0.001 A 
HETATM   17  C   UNL     1      31.120  43.945  56.301  1.00  0.00     0.002 A 
ENDBRANCH   6   7
ENDBRANCH   1   5
BRANCH   2  18
HETATM   18  C   UNL     1      25.711  42.700  49.352  1.00  0.00     0.227 C 
BRANCH  18  19
HETATM   19  N   UNL     1      25.017  43.896  48.903  1.00  0.00    -0.348 N 
HETATM   20  C   UNL     1      23.896  44.381  49.527  1.00  0.00     0.253 C 
HETATM   21  O   UNL     1      23.363  43.759  50.445  1.00  0.00    -0.268 OA
HETATM   22  H   UNL     1      25.375  44.360  48.075  1.00  0.00     0.163 HD
BRANCH  20  23
HETATM   23  C   UNL     1      23.337  45.694  49.079  1.00  0.00     0.053 A 
HETATM   24  C   UNL     1      22.290  45.878  48.164  1.00  0.00     0.049 A 
HETATM   25 CL   UNL     1      21.403  44.586  47.429  1.00  0.00    -0.083 Cl
HETATM   26  C   UNL     1      21.883  47.173  47.811  1.00  0.00     0.025 A 
HETATM   27  C   UNL     1      22.504  48.291  48.367  1.00  0.00     0.002 A 
HETATM   28  C   UNL     1      23.534  48.121  49.286  1.00  0.00     0.001 A 
HETATM   29  C   UNL     1      23.945  46.835  49.639  1.00  0.00     0.019 A 
ENDBRANCH  20  23
ENDBRANCH  18  19
ENDBRANCH   2  18
TORSDOF 5
ENDMDL
