MODEL 1
REMARK VINA RESULT:      -7.9      0.000      0.000
REMARK  7 active torsions:
REMARK  status: ('A' for Active; 'I' for Inactive)
REMARK    1  A    between atoms: O_2  and  C_3 
REMARK    2  A    between atoms: C_7  and  C_8 
REMARK    3  A    between atoms: C_8  and  C_9 
REMARK       I    between atoms: C_9  and  N_10 
REMARK    4  A    between atoms: N_10  and  C_11 
REMARK    5  A    between atoms: C_11  and  C_12 
REMARK    6  A    between atoms: C_12  and  N_13 
REMARK    7  A    between atoms: C_12  and  C_19 
ROOT
HETATM    1  C   UNL     1      24.617  42.454  49.889  1.00  0.00     0.222 C 
HETATM    2  N   UNL     1      25.164  41.611  50.842  1.00  0.00    -0.358 N 
HETATM    3  O   UNL     1      24.901  42.333  48.704  1.00  0.00    -0.273 OA
HETATM    4  H   UNL     1      25.002  41.830  51.822  1.00  0.00     0.162 HD
ENDROOT
BRANCH   2   5
HETATM    5  C   UNL     1      26.224  40.663  50.515  1.00  0.00     0.160 C 
BRANCH   5   6
HETATM    6  C   UNL     1      27.636  41.294  50.288  1.00  0.00     0.240 C 
BRANCH   6   7
HETATM    7  N   UNL     1      28.632  40.293  49.705  1.00  0.00    -0.061 N 
HETATM    8  H   UNL     1      29.530  40.512  50.159  1.00  0.00     0.280 HD
HETATM    9  C   UNL     1      28.831  40.389  48.200  1.00  0.00     0.236 C 
HETATM   10  C   UNL     1      28.216  39.121  47.650  1.00  0.00     0.029 C 
HETATM   11  C   UNL     1      28.571  38.098  48.701  1.00  0.00     0.029 C 
HETATM   12  C   UNL     1      28.319  38.831  50.006  1.00  0.00     0.236 C 
ENDBRANCH   6   7
BRANCH   6  13
HETATM   13  C   UNL     1      28.105  42.003  51.557  1.00  0.00    -0.004 A 
HETATM   14  C   UNL     1      28.211  43.398  51.714  1.00  0.00     0.042 A 
HETATM   15 CL   UNL     1      27.762  44.512  50.471  1.00  0.00    -0.084 Cl
HETATM   16  C   UNL     1      28.671  43.952  52.913  1.00  0.00     0.024 A 
HETATM   17  C   UNL     1      29.036  43.129  53.975  1.00  0.00     0.002 A 
HETATM   18  C   UNL     1      28.942  41.749  53.843  1.00  0.00     0.001 A 
HETATM   19  C   UNL     1      28.486  41.190  52.648  1.00  0.00     0.011 A 
ENDBRANCH   6  13
ENDBRANCH   5   6
ENDBRANCH   2   5
BRANCH   1  20
HETATM   20  C   UNL     1      23.616  43.449  50.464  1.00  0.00     0.144 C 
BRANCH  20  21
HETATM   21  C   UNL     1      24.193  44.761  50.871  1.00  0.00    -0.014 A 
HETATM   22  C   UNL     1      24.817  45.119  52.110  1.00  0.00     0.006 A 
HETATM   23  C   UNL     1      25.249  46.431  51.961  1.00  0.00     0.088 A 
HETATM   24  C   UNL     1      25.067  44.479  53.337  1.00  0.00     0.017 A 
HETATM   25  C   UNL     1      25.932  47.160  52.935  1.00  0.00     0.074 A 
HETATM   26  O   UNL     1      24.919  46.896  50.726  1.00  0.00    -0.321 OA
HETATM   27  C   UNL     1      26.180  46.502  54.143  1.00  0.00     0.070 A 
HETATM   28  C   UNL     1      25.735  45.191  54.345  1.00  0.00     0.038 A 
HETATM   29  C   UNL     1      24.284  45.890  50.078  1.00  0.00     0.151 A 
BRANCH  27  30
HETATM   30  O   UNL     1      26.833  47.048  55.217  1.00  0.00    -0.356 OA
HETATM   31  C   UNL     1      28.240  46.834  55.270  1.00  0.00     0.210 C 
ENDBRANCH  27  30
ENDBRANCH  20  21
ENDBRANCH   1  20
TORSDOF 7
ENDMDL
MODEL 2
REMARK VINA RESULT:      -7.7     12.199     13.669
REMARK  7 active torsions:
REMARK  status: ('A' for Active; 'I' for Inactive)
REMARK    1  A    between atoms: O_2  and  C_3 
REMARK    2  A    between atoms: C_7  and  C_8 
REMARK    3  A    between atoms: C_8  and  C_9 
REMARK       I    between atoms: C_9  and  N_10 
REMARK    4  A    between atoms: N_10  and  C_11 
REMARK    5  A    between atoms: C_11  and  C_12 
REMARK    6  A    between atoms: C_12  and  N_13 
REMARK    7  A    between atoms: C_12  and  C_19 
ROOT
HETATM    1  C   UNL     1      27.805  51.055  38.556  1.00  0.00     0.222 C 
HETATM    2  N   UNL     1      27.749  50.798  39.916  1.00  0.00    -0.358 N 
HETATM    3  O   UNL     1      27.045  50.490  37.778  1.00  0.00    -0.273 OA
HETATM    4  H   UNL     1      28.481  51.189  40.505  1.00  0.00     0.162 HD
ENDROOT
BRANCH   2   5
HETATM    5  C   UNL     1      26.918  49.734  40.467  1.00  0.00     0.160 C 
BRANCH   5   6
HETATM    6  C   UNL     1      27.535  48.300  40.391  1.00  0.00     0.240 C 
BRANCH   6   7
HETATM    7  N   UNL     1      26.684  47.262  41.122  1.00  0.00    -0.061 N 
HETATM    8  H   UNL     1      26.832  47.451  42.123  1.00  0.00     0.280 HD
HETATM    9  C   UNL     1      27.068  45.814  40.854  1.00  0.00     0.236 C 
HETATM   10  C   UNL     1      25.914  45.254  40.052  1.00  0.00     0.029 C 
HETATM   11  C   UNL     1      24.718  45.934  40.673  1.00  0.00     0.029 C 
HETATM   12  C   UNL     1      25.185  47.366  40.860  1.00  0.00     0.236 C 
ENDBRANCH   6   7
BRANCH   6  13
HETATM   13  C   UNL     1      29.004  48.336  40.809  1.00  0.00    -0.004 A 
HETATM   14  C   UNL     1      30.089  47.969  39.990  1.00  0.00     0.042 A 
HETATM   15 CL   UNL     1      29.889  47.465  38.349  1.00  0.00    -0.084 Cl
HETATM   16  C   UNL     1      31.400  48.019  40.474  1.00  0.00     0.024 A 
HETATM   17  C   UNL     1      31.656  48.433  41.778  1.00  0.00     0.002 A 
HETATM   18  C   UNL     1      30.601  48.798  42.606  1.00  0.00     0.001 A 
HETATM   19  C   UNL     1      29.289  48.748  42.130  1.00  0.00     0.011 A 
ENDBRANCH   6  13
ENDBRANCH   5   6
ENDBRANCH   2   5
BRANCH   1  20
HETATM   20  C   UNL     1      28.826  52.122  38.182  1.00  0.00     0.144 C 
BRANCH  20  21
HETATM   21  C   UNL     1      30.224  51.835  38.610  1.00  0.00    -0.014 A 
HETATM   22  C   UNL     1      30.813  51.989  39.906  1.00  0.00     0.006 A 
HETATM   23  C   UNL     1      32.115  51.517  39.799  1.00  0.00     0.088 A 
HETATM   24  C   UNL     1      30.389  52.470  41.158  1.00  0.00     0.017 A 
HETATM   25  C   UNL     1      33.033  51.468  40.848  1.00  0.00     0.074 A 
HETATM   26  O   UNL     1      32.360  51.102  38.527  1.00  0.00    -0.321 OA
HETATM   27  C   UNL     1      32.588  51.941  42.086  1.00  0.00     0.070 A 
HETATM   28  C   UNL     1      31.294  52.452  42.230  1.00  0.00     0.038 A 
HETATM   29  C   UNL     1      31.222  51.297  37.818  1.00  0.00     0.151 A 
BRANCH  27  30
HETATM   30  O   UNL     1      33.339  51.976  43.232  1.00  0.00    -0.356 OA
HETATM   31  C   UNL     1      32.627  51.806  44.453  1.00  0.00     0.210 C 
ENDBRANCH  27  30
ENDBRANCH  20  21
ENDBRANCH   1  20
TORSDOF 7
ENDMDL
MODEL 3
REMARK VINA RESULT:      -7.6     12.814     14.704
REMARK  7 active torsions:
REMARK  status: ('A' for Active; 'I' for Inactive)
REMARK    1  A    between atoms: O_2  and  C_3 
REMARK    2  A    between atoms: C_7  and  C_8 
REMARK    3  A    between atoms: C_8  and  C_9 
REMARK       I    between atoms: C_9  and  N_10 
REMARK    4  A    between atoms: N_10  and  C_11 
REMARK    5  A    between atoms: C_11  and  C_12 
REMARK    6  A    between atoms: C_12  and  N_13 
REMARK    7  A    between atoms: C_12  and  C_19 
ROOT
HETATM    1  C   UNL     1      31.331  52.880  39.968  1.00  0.00     0.222 C 
HETATM    2  N   UNL     1      32.244  52.013  39.393  1.00  0.00    -0.358 N 
HETATM    3  O   UNL     1      31.705  53.815  40.667  1.00  0.00    -0.273 OA
HETATM    4  H   UNL     1      31.886  51.180  38.932  1.00  0.00     0.162 HD
ENDROOT
BRANCH   2   5
HETATM    5  C   UNL     1      33.665  52.058  39.722  1.00  0.00     0.160 C 
BRANCH   5   6
HETATM    6  C   UNL     1      34.019  51.696  41.201  1.00  0.00     0.240 C 
BRANCH   6   7
HETATM    7  N   UNL     1      35.526  51.579  41.425  1.00  0.00    -0.061 N 
HETATM    8  H   UNL     1      35.801  50.708  40.949  1.00  0.00     0.280 HD
HETATM    9  C   UNL     1      35.951  51.473  42.882  1.00  0.00     0.236 C 
HETATM   10  C   UNL     1      36.658  52.779  43.171  1.00  0.00     0.029 C 
HETATM   11  C   UNL     1      37.381  53.058  41.875  1.00  0.00     0.029 C 
HETATM   12  C   UNL     1      36.352  52.707  40.816  1.00  0.00     0.236 C 
ENDBRANCH   6   7
BRANCH   6  13
HETATM   13  C   UNL     1      33.205  50.485  41.654  1.00  0.00    -0.004 A 
HETATM   14  C   UNL     1      32.230  50.499  42.670  1.00  0.00     0.042 A 
HETATM   15 CL   UNL     1      31.788  51.939  43.517  1.00  0.00    -0.084 Cl
HETATM   16  C   UNL     1      31.551  49.329  43.027  1.00  0.00     0.024 A 
HETATM   17  C   UNL     1      31.830  48.127  42.382  1.00  0.00     0.002 A 
HETATM   18  C   UNL     1      32.790  48.089  41.378  1.00  0.00     0.001 A 
HETATM   19  C   UNL     1      33.473  49.252  41.020  1.00  0.00     0.011 A 
ENDBRANCH   6  13
ENDBRANCH   5   6
ENDBRANCH   2   5
BRANCH   1  20
HETATM   20  C   UNL     1      29.887  52.581  39.584  1.00  0.00     0.144 C 
BRANCH  20  21
HETATM   21  C   UNL     1      29.259  51.448  40.321  1.00  0.00    -0.014 A 
HETATM   22  C   UNL     1      29.328  50.047  40.035  1.00  0.00     0.006 A 
HETATM   23  C   UNL     1      28.638  49.408  41.058  1.00  0.00     0.088 A 
HETATM   24  C   UNL     1      29.899  49.248  39.028  1.00  0.00     0.017 A 
HETATM   25  C   UNL     1      28.483  48.026  41.171  1.00  0.00     0.074 A 
HETATM   26  O   UNL     1      28.145  50.324  41.934  1.00  0.00    -0.321 OA
HETATM   27  C   UNL     1      29.068  47.251  40.167  1.00  0.00     0.070 A 
HETATM   28  C   UNL     1      29.746  47.855  39.103  1.00  0.00     0.038 A 
HETATM   29  C   UNL     1      28.520  51.546  41.485  1.00  0.00     0.151 A 
BRANCH  27  30
HETATM   30  O   UNL     1      29.024  45.882  40.103  1.00  0.00    -0.356 OA
HETATM   31  C   UNL     1      29.539  45.294  38.912  1.00  0.00     0.210 C 
ENDBRANCH  27  30
ENDBRANCH  20  21
ENDBRANCH   1  20
TORSDOF 7
ENDMDL
MODEL 4
REMARK VINA RESULT:      -7.6      4.103      7.548
REMARK  7 active torsions:
REMARK  status: ('A' for Active; 'I' for Inactive)
REMARK    1  A    between atoms: O_2  and  C_3 
REMARK    2  A    between atoms: C_7  and  C_8 
REMARK    3  A    between atoms: C_8  and  C_9 
REMARK       I    between atoms: C_9  and  N_10 
REMARK    4  A    between atoms: N_10  and  C_11 
REMARK    5  A    between atoms: C_11  and  C_12 
REMARK    6  A    between atoms: C_12  and  N_13 
REMARK    7  A    between atoms: C_12  and  C_19 
ROOT
HETATM    1  C   UNL     1      25.475  46.838  51.685  1.00  0.00     0.222 C 
HETATM    2  N   UNL     1      24.474  46.231  50.946  1.00  0.00    -0.358 N 
HETATM    3  O   UNL     1      26.131  47.762  51.217  1.00  0.00    -0.273 OA
HETATM    4  H   UNL     1      24.047  45.389  51.323  1.00  0.00     0.162 HD
ENDROOT
BRANCH   2   5
HETATM    5  C   UNL     1      24.264  46.535  49.534  1.00  0.00     0.160 C 
BRANCH   5   6
HETATM    6  C   UNL     1      22.810  46.965  49.155  1.00  0.00     0.240 C 
BRANCH   6   7
HETATM    7  N   UNL     1      22.216  46.090  48.052  1.00  0.00    -0.061 N 
HETATM    8  H   UNL     1      23.013  45.560  47.671  1.00  0.00     0.280 HD
HETATM    9  C   UNL     1      21.569  46.853  46.906  1.00  0.00     0.236 C 
HETATM   10  C   UNL     1      20.090  46.568  47.043  1.00  0.00     0.029 C 
HETATM   11  C   UNL     1      20.070  45.130  47.500  1.00  0.00     0.029 C 
HETATM   12  C   UNL     1      21.184  45.072  48.528  1.00  0.00     0.236 C 
ENDBRANCH   6   7
BRANCH   6  13
HETATM   13  C   UNL     1      22.760  48.466  48.881  1.00  0.00    -0.004 A 
HETATM   14  C   UNL     1      21.633  49.287  49.072  1.00  0.00     0.042 A 
HETATM   15 CL   UNL     1      20.140  48.688  49.705  1.00  0.00    -0.084 Cl
HETATM   16  C   UNL     1      21.682  50.653  48.773  1.00  0.00     0.024 A 
HETATM   17  C   UNL     1      22.851  51.225  48.277  1.00  0.00     0.002 A 
HETATM   18  C   UNL     1      23.975  50.434  48.078  1.00  0.00     0.001 A 
HETATM   19  C   UNL     1      23.932  49.070  48.372  1.00  0.00     0.011 A 
ENDBRANCH   6  13
ENDBRANCH   5   6
ENDBRANCH   2   5
BRANCH   1  20
HETATM   20  C   UNL     1      25.602  46.289  53.100  1.00  0.00     0.144 C 
BRANCH  20  21
HETATM   21  C   UNL     1      26.729  45.336  53.309  1.00  0.00    -0.014 A 
HETATM   22  C   UNL     1      27.785  45.396  54.275  1.00  0.00     0.006 A 
HETATM   23  C   UNL     1      28.532  44.237  54.105  1.00  0.00     0.088 A 
HETATM   24  C   UNL     1      28.189  46.299  55.275  1.00  0.00     0.017 A 
HETATM   25  C   UNL     1      29.648  43.891  54.866  1.00  0.00     0.074 A 
HETATM   26  O   UNL     1      28.011  43.488  53.096  1.00  0.00    -0.321 OA
HETATM   27  C   UNL     1      30.026  44.796  55.862  1.00  0.00     0.070 A 
HETATM   28  C   UNL     1      29.319  45.988  56.047  1.00  0.00     0.038 A 
HETATM   29  C   UNL     1      26.930  44.154  52.622  1.00  0.00     0.151 A 
BRANCH  27  30
HETATM   30  O   UNL     1      31.091  44.634  56.709  1.00  0.00    -0.356 OA
HETATM   31  C   UNL     1      31.491  43.291  56.963  1.00  0.00     0.210 C 
ENDBRANCH  27  30
ENDBRANCH  20  21
ENDBRANCH   1  20
TORSDOF 7
ENDMDL
MODEL 5
REMARK VINA RESULT:      -7.5     12.378     14.147
REMARK  7 active torsions:
REMARK  status: ('A' for Active; 'I' for Inactive)
REMARK    1  A    between atoms: O_2  and  C_3 
REMARK    2  A    between atoms: C_7  and  C_8 
REMARK    3  A    between atoms: C_8  and  C_9 
REMARK       I    between atoms: C_9  and  N_10 
REMARK    4  A    between atoms: N_10  and  C_11 
REMARK    5  A    between atoms: C_11  and  C_12 
REMARK    6  A    between atoms: C_12  and  N_13 
REMARK    7  A    between atoms: C_12  and  C_19 
ROOT
HETATM    1  C   UNL     1      28.665  51.611  38.382  1.00  0.00     0.222 C 
HETATM    2  N   UNL     1      27.377  51.199  38.677  1.00  0.00    -0.358 N 
HETATM    3  O   UNL     1      29.340  51.019  37.548  1.00  0.00    -0.273 OA
HETATM    4  H   UNL     1      26.905  51.637  39.465  1.00  0.00     0.162 HD
ENDROOT
BRANCH   2   5
HETATM    5  C   UNL     1      26.823  49.957  38.149  1.00  0.00     0.160 C 
BRANCH   5   6
HETATM    6  C   UNL     1      26.677  48.798  39.187  1.00  0.00     0.240 C 
BRANCH   6   7
HETATM    7  N   UNL     1      25.382  48.902  39.993  1.00  0.00    -0.061 N 
HETATM    8  H   UNL     1      25.590  49.565  40.752  1.00  0.00     0.280 HD
HETATM    9  C   UNL     1      24.913  47.599  40.622  1.00  0.00     0.236 C 
HETATM   10  C   UNL     1      23.656  47.236  39.862  1.00  0.00     0.029 C 
HETATM   11  C   UNL     1      23.018  48.582  39.615  1.00  0.00     0.029 C 
HETATM   12  C   UNL     1      24.191  49.460  39.220  1.00  0.00     0.236 C 
ENDBRANCH   6   7
BRANCH   6  13
HETATM   13  C   UNL     1      27.947  48.680  40.026  1.00  0.00    -0.004 A 
HETATM   14  C   UNL     1      29.109  47.984  39.642  1.00  0.00     0.042 A 
HETATM   15 CL   UNL     1      29.261  47.198  38.111  1.00  0.00    -0.084 Cl
HETATM   16  C   UNL     1      30.219  47.918  40.492  1.00  0.00     0.024 A 
HETATM   17  C   UNL     1      30.191  48.540  41.737  1.00  0.00     0.002 A 
HETATM   18  C   UNL     1      29.054  49.231  42.139  1.00  0.00     0.001 A 
HETATM   19  C   UNL     1      27.943  49.298  41.296  1.00  0.00     0.011 A 
ENDBRANCH   6  13
ENDBRANCH   5   6
ENDBRANCH   2   5
BRANCH   1  20
HETATM   20  C   UNL     1      29.087  52.868  39.134  1.00  0.00     0.144 C 
BRANCH  20  21
HETATM   21  C   UNL     1      29.753  52.625  40.446  1.00  0.00    -0.014 A 
HETATM   22  C   UNL     1      31.036  52.044  40.704  1.00  0.00     0.006 A 
HETATM   23  C   UNL     1      31.222  52.110  42.079  1.00  0.00     0.088 A 
HETATM   24  C   UNL     1      32.062  51.474  39.928  1.00  0.00     0.017 A 
HETATM   25  C   UNL     1      32.362  51.667  42.751  1.00  0.00     0.074 A 
HETATM   26  O   UNL     1      30.136  52.676  42.672  1.00  0.00    -0.321 OA
HETATM   27  C   UNL     1      33.373  51.115  41.960  1.00  0.00     0.070 A 
HETATM   28  C   UNL     1      33.214  51.003  40.575  1.00  0.00     0.038 A 
HETATM   29  C   UNL     1      29.258  52.981  41.686  1.00  0.00     0.151 A 
BRANCH  27  30
HETATM   30  O   UNL     1      34.563  50.626  42.433  1.00  0.00    -0.356 OA
HETATM   31  C   UNL     1      35.605  51.580  42.615  1.00  0.00     0.210 C 
ENDBRANCH  27  30
ENDBRANCH  20  21
ENDBRANCH   1  20
TORSDOF 7
ENDMDL
MODEL 6
REMARK VINA RESULT:      -7.4      2.922      6.063
REMARK  7 active torsions:
REMARK  status: ('A' for Active; 'I' for Inactive)
REMARK    1  A    between atoms: O_2  and  C_3 
REMARK    2  A    between atoms: C_7  and  C_8 
REMARK    3  A    between atoms: C_8  and  C_9 
REMARK       I    between atoms: C_9  and  N_10 
REMARK    4  A    between atoms: N_10  and  C_11 
REMARK    5  A    between atoms: C_11  and  C_12 
REMARK    6  A    between atoms: C_12  and  N_13 
REMARK    7  A    between atoms: C_12  and  C_19 
ROOT
HETATM    1  C   UNL     1      28.766  42.131  52.405  1.00  0.00     0.222 C 
HETATM    2  N   UNL     1      29.151  43.375  52.875  1.00  0.00    -0.358 N 
HETATM    3  O   UNL     1      28.882  41.131  53.105  1.00  0.00    -0.273 OA
HETATM    4  H   UNL     1      29.159  44.152  52.218  1.00  0.00     0.162 HD
ENDROOT
BRANCH   2   5
HETATM    5  C   UNL     1      29.863  43.538  54.138  1.00  0.00     0.160 C 
BRANCH   5   6
HETATM    6  C   UNL     1      29.324  44.676  55.065  1.00  0.00     0.240 C 
BRANCH   6   7
HETATM    7  N   UNL     1      29.628  44.415  56.540  1.00  0.00    -0.061 N 
HETATM    8  H   UNL     1      29.057  43.596  56.791  1.00  0.00     0.280 HD
HETATM    9  C   UNL     1      29.259  45.552  57.481  1.00  0.00     0.236 C 
HETATM   10  C   UNL     1      30.585  46.094  57.966  1.00  0.00     0.029 C 
HETATM   11  C   UNL     1      31.426  44.847  58.092  1.00  0.00     0.029 C 
HETATM   12  C   UNL     1      31.081  44.061  56.841  1.00  0.00     0.236 C 
ENDBRANCH   6   7
BRANCH   6  13
HETATM   13  C   UNL     1      27.857  44.958  54.751  1.00  0.00    -0.004 A 
HETATM   14  C   UNL     1      27.311  46.234  54.514  1.00  0.00     0.042 A 
HETATM   15 CL   UNL     1      28.271  47.671  54.500  1.00  0.00    -0.084 Cl
HETATM   16  C   UNL     1      25.946  46.392  54.253  1.00  0.00     0.024 A 
HETATM   17  C   UNL     1      25.101  45.286  54.226  1.00  0.00     0.002 A 
HETATM   18  C   UNL     1      25.616  44.017  54.459  1.00  0.00     0.001 A 
HETATM   19  C   UNL     1      26.978  43.854  54.722  1.00  0.00     0.011 A 
ENDBRANCH   6  13
ENDBRANCH   5   6
ENDBRANCH   2   5
BRANCH   1  20
HETATM   20  C   UNL     1      28.149  42.173  51.013  1.00  0.00     0.144 C 
BRANCH  20  21
HETATM   21  C   UNL     1      26.776  42.749  50.949  1.00  0.00    -0.014 A 
HETATM   22  C   UNL     1      26.386  44.123  50.844  1.00  0.00     0.006 A 
HETATM   23  C   UNL     1      25.000  44.127  50.744  1.00  0.00     0.088 A 
HETATM   24  C   UNL     1      27.051  45.363  50.818  1.00  0.00     0.017 A 
HETATM   25  C   UNL     1      24.215  45.271  50.603  1.00  0.00     0.074 A 
HETATM   26  O   UNL     1      24.524  42.854  50.796  1.00  0.00    -0.321 OA
HETATM   27  C   UNL     1      24.896  46.491  50.568  1.00  0.00     0.070 A 
HETATM   28  C   UNL     1      26.288  46.534  50.694  1.00  0.00     0.038 A 
HETATM   29  C   UNL     1      25.594  42.033  50.920  1.00  0.00     0.151 A 
BRANCH  27  30
HETATM   30  O   UNL     1      24.303  47.720  50.435  1.00  0.00    -0.356 OA
HETATM   31  C   UNL     1      23.488  47.901  49.281  1.00  0.00     0.210 C 
ENDBRANCH  27  30
ENDBRANCH  20  21
ENDBRANCH   1  20
TORSDOF 7
ENDMDL
MODEL 7
REMARK VINA RESULT:      -7.4     12.976     14.955
REMARK  7 active torsions:
REMARK  status: ('A' for Active; 'I' for Inactive)
REMARK    1  A    between atoms: O_2  and  C_3 
REMARK    2  A    between atoms: C_7  and  C_8 
REMARK    3  A    between atoms: C_8  and  C_9 
REMARK       I    between atoms: C_9  and  N_10 
REMARK    4  A    between atoms: N_10  and  C_11 
REMARK    5  A    between atoms: C_11  and  C_12 
REMARK    6  A    between atoms: C_12  and  N_13 
REMARK    7  A    between atoms: C_12  and  C_19 
ROOT
HETATM    1  C   UNL     1      30.884  53.377  40.858  1.00  0.00     0.222 C 
HETATM    2  N   UNL     1      31.205  52.115  41.329  1.00  0.00    -0.358 N 
HETATM    3  O   UNL     1      31.758  54.209  40.643  1.00  0.00    -0.273 OA
HETATM    4  H   UNL     1      30.443  51.505  41.615  1.00  0.00     0.162 HD
ENDROOT
BRANCH   2   5
HETATM    5  C   UNL     1      32.558  51.770  41.754  1.00  0.00     0.160 C 
BRANCH   5   6
HETATM    6  C   UNL     1      33.127  50.444  41.154  1.00  0.00     0.240 C 
BRANCH   6   7
HETATM    7  N   UNL     1      34.258  50.696  40.158  1.00  0.00    -0.061 N 
HETATM    8  H   UNL     1      34.039  50.100  39.347  1.00  0.00     0.280 HD
HETATM    9  C   UNL     1      35.646  50.323  40.656  1.00  0.00     0.236 C 
HETATM   10  C   UNL     1      36.361  51.646  40.822  1.00  0.00     0.029 C 
HETATM   11  C   UNL     1      35.835  52.455  39.661  1.00  0.00     0.029 C 
HETATM   12  C   UNL     1      34.353  52.131  39.649  1.00  0.00     0.236 C 
ENDBRANCH   6   7
BRANCH   6  13
HETATM   13  C   UNL     1      31.987  49.575  40.626  1.00  0.00    -0.004 A 
HETATM   14  C   UNL     1      31.206  48.701  41.407  1.00  0.00     0.042 A 
HETATM   15 CL   UNL     1      31.416  48.539  43.115  1.00  0.00    -0.084 Cl
HETATM   16  C   UNL     1      30.194  47.930  40.825  1.00  0.00     0.024 A 
HETATM   17  C   UNL     1      29.943  48.013  39.458  1.00  0.00     0.002 A 
HETATM   18  C   UNL     1      30.702  48.866  38.667  1.00  0.00     0.001 A 
HETATM   19  C   UNL     1      31.715  49.636  39.242  1.00  0.00     0.011 A 
ENDBRANCH   6  13
ENDBRANCH   5   6
ENDBRANCH   2   5
BRANCH   1  20
HETATM   20  C   UNL     1      29.397  53.563  40.587  1.00  0.00     0.144 C 
BRANCH  20  21
HETATM   21  C   UNL     1      28.805  52.593  39.622  1.00  0.00    -0.014 A 
HETATM   22  C   UNL     1      28.060  51.401  39.894  1.00  0.00     0.006 A 
HETATM   23  C   UNL     1      27.671  50.896  38.659  1.00  0.00     0.088 A 
HETATM   24  C   UNL     1      27.668  50.696  41.046  1.00  0.00     0.017 A 
HETATM   25  C   UNL     1      26.903  49.746  38.476  1.00  0.00     0.074 A 
HETATM   26  O   UNL     1      28.141  51.690  37.660  1.00  0.00    -0.321 OA
HETATM   27  C   UNL     1      26.515  49.067  39.634  1.00  0.00     0.070 A 
HETATM   28  C   UNL     1      26.910  49.525  40.895  1.00  0.00     0.038 A 
HETATM   29  C   UNL     1      28.821  52.706  38.244  1.00  0.00     0.151 A 
BRANCH  27  30
HETATM   30  O   UNL     1      25.762  47.922  39.659  1.00  0.00    -0.356 OA
HETATM   31  C   UNL     1      26.433  46.722  39.288  1.00  0.00     0.210 C 
ENDBRANCH  27  30
ENDBRANCH  20  21
ENDBRANCH   1  20
TORSDOF 7
ENDMDL
MODEL 8
REMARK VINA RESULT:      -7.4      4.615      8.252
REMARK  7 active torsions:
REMARK  status: ('A' for Active; 'I' for Inactive)
REMARK    1  A    between atoms: O_2  and  C_3 
REMARK    2  A    between atoms: C_7  and  C_8 
REMARK    3  A    between atoms: C_8  and  C_9 
REMARK       I    between atoms: C_9  and  N_10 
REMARK    4  A    between atoms: N_10  and  C_11 
REMARK    5  A    between atoms: C_11  and  C_12 
REMARK    6  A    between atoms: C_12  and  N_13 
REMARK    7  A    between atoms: C_12  and  C_19 
ROOT
HETATM    1  C   UNL     1      24.665  47.200  49.954  1.00  0.00     0.222 C 
HETATM    2  N   UNL     1      23.363  47.005  49.526  1.00  0.00    -0.358 N 
HETATM    3  O   UNL     1      25.148  48.326  50.005  1.00  0.00    -0.273 OA
HETATM    4  H   UNL     1      23.049  46.049  49.376  1.00  0.00     0.162 HD
ENDROOT
BRANCH   2   5
HETATM    5  C   UNL     1      22.566  48.087  48.958  1.00  0.00     0.160 C 
BRANCH   5   6
HETATM    6  C   UNL     1      21.020  47.943  49.141  1.00  0.00     0.240 C 
BRANCH   6   7
HETATM    7  N   UNL     1      20.395  47.026  48.091  1.00  0.00    -0.061 N 
HETATM    8  H   UNL     1      19.474  47.441  47.887  1.00  0.00     0.280 HD
HETATM    9  C   UNL     1      20.175  45.591  48.542  1.00  0.00     0.236 C 
HETATM   10  C   UNL     1      21.162  44.779  47.732  1.00  0.00     0.029 C 
HETATM   11  C   UNL     1      21.151  45.482  46.396  1.00  0.00     0.029 C 
HETATM   12  C   UNL     1      21.157  46.952  46.772  1.00  0.00     0.236 C 
ENDBRANCH   6   7
BRANCH   6  13
HETATM   13  C   UNL     1      20.374  49.322  49.258  1.00  0.00    -0.004 A 
HETATM   14  C   UNL     1      19.294  49.642  50.103  1.00  0.00     0.042 A 
HETATM   15 CL   UNL     1      18.581  48.492  51.178  1.00  0.00    -0.084 Cl
HETATM   16  C   UNL     1      18.758  50.934  50.124  1.00  0.00     0.024 A 
HETATM   17  C   UNL     1      19.285  51.928  49.304  1.00  0.00     0.002 A 
HETATM   18  C   UNL     1      20.349  51.636  48.460  1.00  0.00     0.001 A 
HETATM   19  C   UNL     1      20.886  50.348  48.433  1.00  0.00     0.011 A 
ENDBRANCH   6  13
ENDBRANCH   5   6
ENDBRANCH   2   5
BRANCH   1  20
HETATM   20  C   UNL     1      25.357  45.917  50.395  1.00  0.00     0.144 C 
BRANCH  20  21
HETATM   21  C   UNL     1      25.845  45.916  51.804  1.00  0.00    -0.014 A 
HETATM   22  C   UNL     1      26.807  45.050  52.417  1.00  0.00     0.006 A 
HETATM   23  C   UNL     1      26.966  45.507  53.719  1.00  0.00     0.088 A 
HETATM   24  C   UNL     1      27.564  43.934  52.014  1.00  0.00     0.017 A 
HETATM   25  C   UNL     1      27.835  44.950  54.658  1.00  0.00     0.074 A 
HETATM   26  O   UNL     1      26.157  46.578  53.941  1.00  0.00    -0.321 OA
HETATM   27  C   UNL     1      28.585  43.850  54.234  1.00  0.00     0.070 A 
HETATM   28  C   UNL     1      28.434  43.340  52.940  1.00  0.00     0.038 A 
HETATM   29  C   UNL     1      25.487  46.817  52.788  1.00  0.00     0.151 A 
BRANCH  27  30
HETATM   30  O   UNL     1      29.490  43.169  55.007  1.00  0.00    -0.356 OA
HETATM   31  C   UNL     1      30.632  43.906  55.431  1.00  0.00     0.210 C 
ENDBRANCH  27  30
ENDBRANCH  20  21
ENDBRANCH   1  20
TORSDOF 7
ENDMDL
MODEL 9
REMARK VINA RESULT:      -7.3      2.241      3.992
REMARK  7 active torsions:
REMARK  status: ('A' for Active; 'I' for Inactive)
REMARK    1  A    between atoms: O_2  and  C_3 
REMARK    2  A    between atoms: C_7  and  C_8 
REMARK    3  A    between atoms: C_8  and  C_9 
REMARK       I    between atoms: C_9  and  N_10 
REMARK    4  A    between atoms: N_10  and  C_11 
REMARK    5  A    between atoms: C_11  and  C_12 
REMARK    6  A    between atoms: C_12  and  N_13 
REMARK    7  A    between atoms: C_12  and  C_19 
ROOT
HETATM    1  C   UNL     1      27.842  40.917  52.201  1.00  0.00     0.222 C 
HETATM    2  N   UNL     1      26.574  40.853  51.649  1.00  0.00    -0.358 N 
HETATM    3  O   UNL     1      28.839  40.776  51.504  1.00  0.00    -0.273 OA
HETATM    4  H   UNL     1      25.778  40.846  52.283  1.00  0.00     0.162 HD
ENDROOT
BRANCH   2   5
HETATM    5  C   UNL     1      26.354  40.447  50.265  1.00  0.00     0.160 C 
BRANCH   5   6
HETATM    6  C   UNL     1      25.417  41.386  49.437  1.00  0.00     0.240 C 
BRANCH   6   7
HETATM    7  N   UNL     1      25.531  41.139  47.933  1.00  0.00    -0.061 N 
HETATM    8  H   UNL     1      25.452  42.070  47.502  1.00  0.00     0.280 HD
HETATM    9  C   UNL     1      24.443  40.254  47.345  1.00  0.00     0.236 C 
HETATM   10  C   UNL     1      25.156  38.976  46.958  1.00  0.00     0.029 C 
HETATM   11  C   UNL     1      26.492  39.478  46.468  1.00  0.00     0.029 C 
HETATM   12  C   UNL     1      26.862  40.544  47.482  1.00  0.00     0.236 C 
ENDBRANCH   6   7
BRANCH   6  13
HETATM   13  C   UNL     1      25.615  42.838  49.867  1.00  0.00    -0.004 A 
HETATM   14  C   UNL     1      24.583  43.720  50.240  1.00  0.00     0.042 A 
HETATM   15 CL   UNL     1      22.925  43.239  50.306  1.00  0.00    -0.084 Cl
HETATM   16  C   UNL     1      24.866  45.042  50.600  1.00  0.00     0.024 A 
HETATM   17  C   UNL     1      26.177  45.509  50.594  1.00  0.00     0.002 A 
HETATM   18  C   UNL     1      27.212  44.658  50.228  1.00  0.00     0.001 A 
HETATM   19  C   UNL     1      26.936  43.338  49.864  1.00  0.00     0.011 A 
ENDBRANCH   6  13
ENDBRANCH   5   6
ENDBRANCH   2   5
BRANCH   1  20
HETATM   20  C   UNL     1      27.839  41.240  53.690  1.00  0.00     0.144 C 
BRANCH  20  21
HETATM   21  C   UNL     1      28.214  42.642  54.033  1.00  0.00    -0.014 A 
HETATM   22  C   UNL     1      27.368  43.792  54.145  1.00  0.00     0.006 A 
HETATM   23  C   UNL     1      28.187  44.836  54.557  1.00  0.00     0.088 A 
HETATM   24  C   UNL     1      26.002  44.065  53.947  1.00  0.00     0.017 A 
HETATM   25  C   UNL     1      27.751  46.138  54.808  1.00  0.00     0.074 A 
HETATM   26  O   UNL     1      29.469  44.402  54.689  1.00  0.00    -0.321 OA
HETATM   27  C   UNL     1      26.389  46.385  54.616  1.00  0.00     0.070 A 
HETATM   28  C   UNL     1      25.536  45.369  54.173  1.00  0.00     0.038 A 
HETATM   29  C   UNL     1      29.478  43.085  54.371  1.00  0.00     0.151 A 
BRANCH  27  30
HETATM   30  O   UNL     1      25.774  47.595  54.809  1.00  0.00    -0.356 OA
HETATM   31  C   UNL     1      26.470  48.527  55.631  1.00  0.00     0.210 C 
ENDBRANCH  27  30
ENDBRANCH  20  21
ENDBRANCH   1  20
TORSDOF 7
ENDMDL
MODEL 10
REMARK VINA RESULT:      -7.3      3.085      5.848
REMARK  7 active torsions:
REMARK  status: ('A' for Active; 'I' for Inactive)
REMARK    1  A    between atoms: O_2  and  C_3 
REMARK    2  A    between atoms: C_7  and  C_8 
REMARK    3  A    between atoms: C_8  and  C_9 
REMARK       I    between atoms: C_9  and  N_10 
REMARK    4  A    between atoms: N_10  and  C_11 
REMARK    5  A    between atoms: C_11  and  C_12 
REMARK    6  A    between atoms: C_12  and  N_13 
REMARK    7  A    between atoms: C_12  and  C_19 
ROOT
HETATM    1  C   UNL     1      27.164  42.504  52.192  1.00  0.00     0.222 C 
HETATM    2  N   UNL     1      26.619  43.458  53.034  1.00  0.00    -0.358 N 
HETATM    3  O   UNL     1      27.717  41.509  52.645  1.00  0.00    -0.273 OA
HETATM    4  H   UNL     1      26.287  44.326  52.620  1.00  0.00     0.162 HD
ENDROOT
BRANCH   2   5
HETATM    5  C   UNL     1      26.822  43.421  54.478  1.00  0.00     0.160 C 
BRANCH   5   6
HETATM    6  C   UNL     1      27.424  44.723  55.100  1.00  0.00     0.240 C 
BRANCH   6   7
HETATM    7  N   UNL     1      27.242  45.938  54.191  1.00  0.00    -0.061 N 
HETATM    8  H   UNL     1      27.600  45.641  53.272  1.00  0.00     0.280 HD
HETATM    9  C   UNL     1      28.011  47.179  54.618  1.00  0.00     0.236 C 
HETATM   10  C   UNL     1      26.945  48.156  55.062  1.00  0.00     0.029 C 
HETATM   11  C   UNL     1      25.824  47.890  54.088  1.00  0.00     0.029 C 
HETATM   12  C   UNL     1      25.794  46.376  53.991  1.00  0.00     0.236 C 
ENDBRANCH   6   7
BRANCH   6  13
HETATM   13  C   UNL     1      28.859  44.472  55.558  1.00  0.00    -0.004 A 
HETATM   14  C   UNL     1      29.472  45.078  56.671  1.00  0.00     0.042 A 
HETATM   15 CL   UNL     1      28.635  46.172  57.715  1.00  0.00    -0.084 Cl
HETATM   16  C   UNL     1      30.802  44.796  56.998  1.00  0.00     0.024 A 
HETATM   17  C   UNL     1      31.546  43.910  56.224  1.00  0.00     0.002 A 
HETATM   18  C   UNL     1      30.964  43.302  55.119  1.00  0.00     0.001 A 
HETATM   19  C   UNL     1      29.637  43.581  54.786  1.00  0.00     0.011 A 
ENDBRANCH   6  13
ENDBRANCH   5   6
ENDBRANCH   2   5
BRANCH   1  20
HETATM   20  C   UNL     1      26.936  42.798  50.715  1.00  0.00     0.144 C 
BRANCH  20  21
HETATM   21  C   UNL     1      25.755  43.657  50.417  1.00  0.00    -0.014 A 
HETATM   22  C   UNL     1      25.703  45.077  50.243  1.00  0.00     0.006 A 
HETATM   23  C   UNL     1      24.388  45.379  49.910  1.00  0.00     0.088 A 
HETATM   24  C   UNL     1      26.621  46.140  50.327  1.00  0.00     0.017 A 
HETATM   25  C   UNL     1      23.911  46.660  49.634  1.00  0.00     0.074 A 
HETATM   26  O   UNL     1      23.639  44.243  49.883  1.00  0.00    -0.321 OA
HETATM   27  C   UNL     1      24.841  47.700  49.712  1.00  0.00     0.070 A 
HETATM   28  C   UNL     1      26.168  47.444  50.073  1.00  0.00     0.038 A 
HETATM   29  C   UNL     1      24.466  43.214  50.190  1.00  0.00     0.151 A 
BRANCH  27  30
HETATM   30  O   UNL     1      24.565  49.022  49.478  1.00  0.00    -0.356 OA
HETATM   31  C   UNL     1      23.594  49.291  48.471  1.00  0.00     0.210 C 
ENDBRANCH  27  30
ENDBRANCH  20  21
ENDBRANCH   1  20
TORSDOF 7
ENDMDL
