MODEL 1
REMARK VINA RESULT:      -8.3      0.000      0.000
REMARK  5 active torsions:
REMARK  status: ('A' for Active; 'I' for Inactive)
REMARK    1  A    between atoms: O_2  and  C_3 
REMARK    2  A    between atoms: C_5  and  C_6 
REMARK    3  A    between atoms: C_10  and  C_11 
REMARK       I    between atoms: C_11  and  N_12 
REMARK    4  A    between atoms: N_12  and  C_13 
REMARK    5  A    between atoms: C_13  and  C_14 
ROOT
HETATM    1  C   UNL     1      25.128  46.224  51.356  1.00  0.00     0.089 A 
HETATM    2  N   UNL     1      24.320  45.249  50.911  1.00  0.00    -0.174 NA
HETATM    3  N   UNL     1      23.608  45.822  49.928  1.00  0.00    -0.272 N 
HETATM    4  H   UNL     1      22.908  45.271  49.440  1.00  0.00     0.189 HD
HETATM    5  C   UNL     1      23.936  47.126  49.683  1.00  0.00     0.120 A 
HETATM    6  C   UNL     1      24.920  47.416  50.606  1.00  0.00     0.071 A 
ENDROOT
BRANCH   5   7
HETATM    7  C   UNL     1      23.291  47.885  48.645  1.00  0.00     0.269 C 
HETATM    8  N   UNL     1      23.489  49.242  48.710  1.00  0.00    -0.355 N 
HETATM    9  H   UNL     1      24.036  49.630  49.464  1.00  0.00     0.162 HD
HETATM   10  O   UNL     1      22.618  47.350  47.769  1.00  0.00    -0.266 OA
BRANCH   8  11
HETATM   11  C   UNL     1      22.883  50.167  47.774  1.00  0.00     0.128 C 
BRANCH  11  12
HETATM   12  C   UNL     1      21.910  51.123  48.459  1.00  0.00     0.012 C 
HETATM   13  C   UNL     1      20.429  51.019  48.000  1.00  0.00     0.014 C 
HETATM   14  C   UNL     1      19.726  51.711  49.174  1.00  0.00     0.017 C 
HETATM   15  C   UNL     1      19.921  49.613  48.227  1.00  0.00    -0.025 C 
HETATM   16  C   UNL     1      20.275  50.724  50.209  1.00  0.00     0.009 C 
HETATM   17  C   UNL     1      19.840  49.434  49.554  1.00  0.00    -0.026 C 
HETATM   18  C   UNL     1      21.797  50.873  49.997  1.00  0.00     0.015 C 
ENDBRANCH  11  12
ENDBRANCH   8  11
ENDBRANCH   5   7
BRANCH   1  19
HETATM   19  C   UNL     1      26.072  46.005  52.457  1.00  0.00    -0.003 A 
HETATM   20  C   UNL     1      26.221  46.974  53.465  1.00  0.00     0.050 A 
HETATM   21  C   UNL     1      27.105  46.771  54.527  1.00  0.00     0.069 A 
HETATM   22  C   UNL     1      27.850  45.591  54.581  1.00  0.00     0.037 A 
HETATM   23  C   UNL     1      27.720  44.625  53.585  1.00  0.00     0.004 A 
HETATM   24  C   UNL     1      26.834  44.831  52.527  1.00  0.00     0.014 A 
BRANCH  21  25
HETATM   25  O   UNL     1      27.329  47.633  55.566  1.00  0.00    -0.356 OA
HETATM   26  C   UNL     1      26.363  48.659  55.765  1.00  0.00     0.210 C 
ENDBRANCH  21  25
ENDBRANCH   1  19
TORSDOF 5
ENDMDL
MODEL 2
REMARK VINA RESULT:      -8.3      1.149      1.858
REMARK  5 active torsions:
REMARK  status: ('A' for Active; 'I' for Inactive)
REMARK    1  A    between atoms: O_2  and  C_3 
REMARK    2  A    between atoms: C_5  and  C_6 
REMARK    3  A    between atoms: C_10  and  C_11 
REMARK       I    between atoms: C_11  and  N_12 
REMARK    4  A    between atoms: N_12  and  C_13 
REMARK    5  A    between atoms: C_13  and  C_14 
ROOT
HETATM    1  C   UNL     1      25.402  46.304  51.887  1.00  0.00     0.089 A 
HETATM    2  N   UNL     1      24.609  45.283  51.526  1.00  0.00    -0.174 NA
HETATM    3  N   UNL     1      23.896  45.755  50.492  1.00  0.00    -0.272 N 
HETATM    4  H   UNL     1      23.207  45.154  50.052  1.00  0.00     0.189 HD
HETATM    5  C   UNL     1      24.209  47.036  50.132  1.00  0.00     0.120 A 
HETATM    6  C   UNL     1      25.184  47.421  51.031  1.00  0.00     0.071 A 
ENDROOT
BRANCH   5   7
HETATM    7  C   UNL     1      23.561  47.690  49.027  1.00  0.00     0.269 C 
HETATM    8  N   UNL     1      23.844  49.027  48.896  1.00  0.00    -0.355 N 
HETATM    9  H   UNL     1      24.450  49.476  49.567  1.00  0.00     0.162 HD
HETATM   10  O   UNL     1      22.815  47.088  48.260  1.00  0.00    -0.266 OA
BRANCH   8  11
HETATM   11  C   UNL     1      23.250  49.856  47.867  1.00  0.00     0.128 C 
BRANCH  11  12
HETATM   12  C   UNL     1      22.285  50.888  48.446  1.00  0.00     0.012 C 
HETATM   13  C   UNL     1      20.830  50.826  47.905  1.00  0.00     0.014 C 
HETATM   14  C   UNL     1      20.094  51.607  49.000  1.00  0.00     0.017 C 
HETATM   15  C   UNL     1      20.244  49.457  48.168  1.00  0.00    -0.025 C 
HETATM   16  C   UNL     1      20.535  50.651  50.112  1.00  0.00     0.009 C 
HETATM   17  C   UNL     1      20.078  49.349  49.495  1.00  0.00    -0.026 C 
HETATM   18  C   UNL     1      22.072  50.721  49.985  1.00  0.00     0.015 C 
ENDBRANCH  11  12
ENDBRANCH   8  11
ENDBRANCH   5   7
BRANCH   1  19
HETATM   19  C   UNL     1      26.342  46.198  53.007  1.00  0.00    -0.003 A 
HETATM   20  C   UNL     1      26.971  44.973  53.289  1.00  0.00     0.050 A 
HETATM   21  C   UNL     1      27.881  44.862  54.343  1.00  0.00     0.069 A 
HETATM   22  C   UNL     1      28.161  45.984  55.125  1.00  0.00     0.037 A 
HETATM   23  C   UNL     1      27.538  47.203  54.865  1.00  0.00     0.004 A 
HETATM   24  C   UNL     1      26.632  47.310  53.809  1.00  0.00     0.014 A 
BRANCH  21  25
HETATM   25  O   UNL     1      28.560  43.731  54.706  1.00  0.00    -0.356 OA
HETATM   26  C   UNL     1      29.907  43.902  55.131  1.00  0.00     0.210 C 
ENDBRANCH  21  25
ENDBRANCH   1  19
TORSDOF 5
ENDMDL
MODEL 3
REMARK VINA RESULT:      -8.2      2.073      2.652
REMARK  5 active torsions:
REMARK  status: ('A' for Active; 'I' for Inactive)
REMARK    1  A    between atoms: O_2  and  C_3 
REMARK    2  A    between atoms: C_5  and  C_6 
REMARK    3  A    between atoms: C_10  and  C_11 
REMARK       I    between atoms: C_11  and  N_12 
REMARK    4  A    between atoms: N_12  and  C_13 
REMARK    5  A    between atoms: C_13  and  C_14 
ROOT
HETATM    1  C   UNL     1      25.702  47.509  50.722  1.00  0.00     0.089 A 
HETATM    2  N   UNL     1      26.699  48.112  50.057  1.00  0.00    -0.174 NA
HETATM    3  N   UNL     1      26.085  48.835  49.108  1.00  0.00    -0.272 N 
HETATM    4  H   UNL     1      26.648  49.378  48.460  1.00  0.00     0.189 HD
HETATM    5  C   UNL     1      24.721  48.762  49.141  1.00  0.00     0.120 A 
HETATM    6  C   UNL     1      24.444  47.897  50.180  1.00  0.00     0.071 A 
ENDROOT
BRANCH   5   7
HETATM    7  C   UNL     1      23.903  49.496  48.213  1.00  0.00     0.269 C 
HETATM    8  N   UNL     1      22.555  49.460  48.472  1.00  0.00    -0.355 N 
HETATM    9  H   UNL     1      22.213  48.922  49.255  1.00  0.00     0.162 HD
HETATM   10  O   UNL     1      24.383  50.110  47.265  1.00  0.00    -0.266 OA
BRANCH   8  11
HETATM   11  C   UNL     1      21.577  50.106  47.622  1.00  0.00     0.128 C 
BRANCH  11  12
HETATM   12  C   UNL     1      20.850  51.240  48.340  1.00  0.00     0.012 C 
HETATM   13  C   UNL     1      19.384  51.491  47.892  1.00  0.00     0.014 C 
HETATM   14  C   UNL     1      18.860  52.292  49.090  1.00  0.00     0.017 C 
HETATM   15  C   UNL     1      18.568  50.232  48.086  1.00  0.00    -0.025 C 
HETATM   16  C   UNL     1      19.171  51.178  50.094  1.00  0.00     0.009 C 
HETATM   17  C   UNL     1      18.451  50.040  49.409  1.00  0.00    -0.026 C 
HETATM   18  C   UNL     1      20.687  50.980  49.873  1.00  0.00     0.015 C 
ENDBRANCH  11  12
ENDBRANCH   8  11
ENDBRANCH   5   7
BRANCH   1  19
HETATM   19  C   UNL     1      25.958  46.603  51.847  1.00  0.00    -0.003 A 
HETATM   20  C   UNL     1      26.358  45.276  51.609  1.00  0.00     0.050 A 
HETATM   21  C   UNL     1      26.621  44.407  52.672  1.00  0.00     0.069 A 
HETATM   22  C   UNL     1      26.477  44.867  53.982  1.00  0.00     0.037 A 
HETATM   23  C   UNL     1      26.072  46.176  54.234  1.00  0.00     0.004 A 
HETATM   24  C   UNL     1      25.813  47.041  53.170  1.00  0.00     0.014 A 
BRANCH  21  25
HETATM   25  O   UNL     1      27.023  43.104  52.567  1.00  0.00    -0.356 OA
HETATM   26  C   UNL     1      27.806  42.588  53.637  1.00  0.00     0.210 C 
ENDBRANCH  21  25
ENDBRANCH   1  19
TORSDOF 5
ENDMDL
MODEL 4
REMARK VINA RESULT:      -7.8     19.182     21.262
REMARK  5 active torsions:
REMARK  status: ('A' for Active; 'I' for Inactive)
REMARK    1  A    between atoms: O_2  and  C_3 
REMARK    2  A    between atoms: C_5  and  C_6 
REMARK    3  A    between atoms: C_10  and  C_11 
REMARK       I    between atoms: C_11  and  N_12 
REMARK    4  A    between atoms: N_12  and  C_13 
REMARK    5  A    between atoms: C_13  and  C_14 
ROOT
HETATM    1  C   UNL     1      39.236  42.765  63.546  1.00  0.00     0.089 A 
HETATM    2  N   UNL     1      39.950  43.737  62.958  1.00  0.00    -0.174 NA
HETATM    3  N   UNL     1      39.192  44.837  63.082  1.00  0.00    -0.272 N 
HETATM    4  H   UNL     1      39.526  45.714  62.693  1.00  0.00     0.189 HD
HETATM    5  C   UNL     1      38.021  44.639  63.759  1.00  0.00     0.120 A 
HETATM    6  C   UNL     1      38.021  43.293  64.067  1.00  0.00     0.071 A 
ENDROOT
BRANCH   5   7
HETATM    7  C   UNL     1      37.101  45.717  64.008  1.00  0.00     0.269 C 
HETATM    8  N   UNL     1      37.686  46.927  64.287  1.00  0.00    -0.355 N 
HETATM    9  H   UNL     1      38.692  46.996  64.327  1.00  0.00     0.162 HD
HETATM   10  O   UNL     1      35.885  45.558  63.966  1.00  0.00    -0.266 OA
BRANCH   8  11
HETATM   11  C   UNL     1      36.918  48.113  64.603  1.00  0.00     0.128 C 
BRANCH  11  12
HETATM   12  C   UNL     1      37.807  49.337  64.809  1.00  0.00     0.012 C 
HETATM   13  C   UNL     1      37.707  50.015  66.204  1.00  0.00     0.014 C 
HETATM   14  C   UNL     1      39.010  50.823  66.214  1.00  0.00     0.017 C 
HETATM   15  C   UNL     1      38.051  49.014  67.284  1.00  0.00    -0.025 C 
HETATM   16  C   UNL     1      39.892  49.585  66.029  1.00  0.00     0.009 C 
HETATM   17  C   UNL     1      39.361  48.749  67.171  1.00  0.00    -0.026 C 
HETATM   18  C   UNL     1      39.330  49.001  64.715  1.00  0.00     0.015 C 
ENDBRANCH  11  12
ENDBRANCH   8  11
ENDBRANCH   5   7
BRANCH   1  19
HETATM   19  C   UNL     1      39.717  41.381  63.612  1.00  0.00    -0.003 A 
HETATM   20  C   UNL     1      40.668  41.008  64.579  1.00  0.00     0.050 A 
HETATM   21  C   UNL     1      41.123  39.691  64.663  1.00  0.00     0.069 A 
HETATM   22  C   UNL     1      40.627  38.738  63.772  1.00  0.00     0.037 A 
HETATM   23  C   UNL     1      39.691  39.093  62.802  1.00  0.00     0.004 A 
HETATM   24  C   UNL     1      39.238  40.410  62.722  1.00  0.00     0.014 A 
BRANCH  21  25
HETATM   25  O   UNL     1      42.035  39.208  65.562  1.00  0.00    -0.356 OA
HETATM   26  C   UNL     1      43.279  38.762  65.034  1.00  0.00     0.210 C 
ENDBRANCH  21  25
ENDBRANCH   1  19
TORSDOF 5
ENDMDL
MODEL 5
REMARK VINA RESULT:      -7.8      2.219      3.406
REMARK  5 active torsions:
REMARK  status: ('A' for Active; 'I' for Inactive)
REMARK    1  A    between atoms: O_2  and  C_3 
REMARK    2  A    between atoms: C_5  and  C_6 
REMARK    3  A    between atoms: C_10  and  C_11 
REMARK       I    between atoms: C_11  and  N_12 
REMARK    4  A    between atoms: N_12  and  C_13 
REMARK    5  A    between atoms: C_13  and  C_14 
ROOT
HETATM    1  C   UNL     1      27.205  45.158  53.070  1.00  0.00     0.089 A 
HETATM    2  N   UNL     1      26.406  46.085  53.621  1.00  0.00    -0.174 NA
HETATM    3  N   UNL     1      25.537  46.404  52.649  1.00  0.00    -0.272 N 
HETATM    4  H   UNL     1      24.830  47.109  52.832  1.00  0.00     0.189 HD
HETATM    5  C   UNL     1      25.708  45.701  51.490  1.00  0.00     0.120 A 
HETATM    6  C   UNL     1      26.795  44.886  51.734  1.00  0.00     0.071 A 
ENDROOT
BRANCH   5   7
HETATM    7  C   UNL     1      24.847  45.898  50.354  1.00  0.00     0.269 C 
HETATM    8  N   UNL     1      24.413  47.188  50.170  1.00  0.00    -0.355 N 
HETATM    9  H   UNL     1      24.688  47.903  50.826  1.00  0.00     0.162 HD
HETATM   10  O   UNL     1      24.533  44.976  49.608  1.00  0.00    -0.266 OA
BRANCH   8  11
HETATM   11  C   UNL     1      23.508  47.564  49.104  1.00  0.00     0.128 C 
BRANCH  11  12
HETATM   12  C   UNL     1      22.540  48.664  49.534  1.00  0.00     0.012 C 
HETATM   13  C   UNL     1      23.090  50.115  49.452  1.00  0.00     0.014 C 
HETATM   14  C   UNL     1      21.779  50.909  49.466  1.00  0.00     0.017 C 
HETATM   15  C   UNL     1      23.524  50.417  48.035  1.00  0.00    -0.025 C 
HETATM   16  C   UNL     1      21.238  50.227  48.207  1.00  0.00     0.009 C 
HETATM   17  C   UNL     1      22.412  50.474  47.287  1.00  0.00    -0.026 C 
HETATM   18  C   UNL     1      21.270  48.741  48.626  1.00  0.00     0.015 C 
ENDBRANCH  11  12
ENDBRANCH   8  11
ENDBRANCH   5   7
BRANCH   1  19
HETATM   19  C   UNL     1      28.314  44.551  53.813  1.00  0.00    -0.003 A 
HETATM   20  C   UNL     1      28.781  45.146  54.999  1.00  0.00     0.050 A 
HETATM   21  C   UNL     1      29.826  44.569  55.724  1.00  0.00     0.069 A 
HETATM   22  C   UNL     1      30.412  43.390  55.260  1.00  0.00     0.037 A 
HETATM   23  C   UNL     1      29.967  42.793  54.081  1.00  0.00     0.004 A 
HETATM   24  C   UNL     1      28.921  43.372  53.361  1.00  0.00     0.014 A 
BRANCH  21  25
HETATM   25  O   UNL     1      30.358  45.047  56.890  1.00  0.00    -0.356 OA
HETATM   26  C   UNL     1      31.287  44.205  57.563  1.00  0.00     0.210 C 
ENDBRANCH  21  25
ENDBRANCH   1  19
TORSDOF 5
ENDMDL
MODEL 6
REMARK VINA RESULT:      -7.7      6.934      8.792
REMARK  5 active torsions:
REMARK  status: ('A' for Active; 'I' for Inactive)
REMARK    1  A    between atoms: O_2  and  C_3 
REMARK    2  A    between atoms: C_5  and  C_6 
REMARK    3  A    between atoms: C_10  and  C_11 
REMARK       I    between atoms: C_11  and  N_12 
REMARK    4  A    between atoms: N_12  and  C_13 
REMARK    5  A    between atoms: C_13  and  C_14 
ROOT
HETATM    1  C   UNL     1      28.068  43.536  53.429  1.00  0.00     0.089 A 
HETATM    2  N   UNL     1      27.648  42.284  53.666  1.00  0.00    -0.174 NA
HETATM    3  N   UNL     1      27.140  41.869  52.495  1.00  0.00    -0.272 N 
HETATM    4  H   UNL     1      26.742  40.937  52.433  1.00  0.00     0.189 HD
HETATM    5  C   UNL     1      27.238  42.784  51.485  1.00  0.00     0.120 A 
HETATM    6  C   UNL     1      27.834  43.884  52.069  1.00  0.00     0.071 A 
ENDROOT
BRANCH   5   7
HETATM    7  C   UNL     1      26.768  42.495  50.156  1.00  0.00     0.269 C 
HETATM    8  N   UNL     1      26.042  41.335  50.037  1.00  0.00    -0.355 N 
HETATM    9  H   UNL     1      25.898  40.752  50.848  1.00  0.00     0.162 HD
HETATM   10  O   UNL     1      27.000  43.237  49.207  1.00  0.00    -0.266 OA
BRANCH   8  11
HETATM   11  C   UNL     1      25.524  40.863  48.769  1.00  0.00     0.128 C 
BRANCH  11  12
HETATM   12  C   UNL     1      26.127  39.520  48.366  1.00  0.00     0.012 C 
HETATM   13  C   UNL     1      27.135  39.563  47.183  1.00  0.00     0.014 C 
HETATM   14  C   UNL     1      27.857  38.226  47.387  1.00  0.00     0.017 C 
HETATM   15  C   UNL     1      28.278  40.493  47.520  1.00  0.00    -0.025 C 
HETATM   16  C   UNL     1      28.325  38.584  48.800  1.00  0.00     0.009 C 
HETATM   17  C   UNL     1      28.986  39.909  48.498  1.00  0.00    -0.026 C 
HETATM   18  C   UNL     1      26.982  38.874  49.504  1.00  0.00     0.015 C 
ENDBRANCH  11  12
ENDBRANCH   8  11
ENDBRANCH   5   7
BRANCH   1  19
HETATM   19  C   UNL     1      28.685  44.358  54.475  1.00  0.00    -0.003 A 
HETATM   20  C   UNL     1      29.838  43.907  55.142  1.00  0.00     0.050 A 
HETATM   21  C   UNL     1      30.445  44.687  56.129  1.00  0.00     0.069 A 
HETATM   22  C   UNL     1      29.892  45.927  56.456  1.00  0.00     0.037 A 
HETATM   23  C   UNL     1      28.744  46.384  55.811  1.00  0.00     0.004 A 
HETATM   24  C   UNL     1      28.143  45.602  54.824  1.00  0.00     0.014 A 
BRANCH  21  25
HETATM   25  O   UNL     1      31.569  44.361  56.837  1.00  0.00    -0.356 OA
HETATM   26  C   UNL     1      31.750  42.985  57.151  1.00  0.00     0.210 C 
ENDBRANCH  21  25
ENDBRANCH   1  19
TORSDOF 5
ENDMDL
MODEL 7
REMARK VINA RESULT:      -7.7      1.987      3.218
REMARK  5 active torsions:
REMARK  status: ('A' for Active; 'I' for Inactive)
REMARK    1  A    between atoms: O_2  and  C_3 
REMARK    2  A    between atoms: C_5  and  C_6 
REMARK    3  A    between atoms: C_10  and  C_11 
REMARK       I    between atoms: C_11  and  N_12 
REMARK    4  A    between atoms: N_12  and  C_13 
REMARK    5  A    between atoms: C_13  and  C_14 
ROOT
HETATM    1  C   UNL     1      26.416  45.206  53.066  1.00  0.00     0.089 A 
HETATM    2  N   UNL     1      25.450  44.277  53.145  1.00  0.00    -0.174 NA
HETATM    3  N   UNL     1      24.652  44.527  52.095  1.00  0.00    -0.272 N 
HETATM    4  H   UNL     1      23.830  43.949  51.951  1.00  0.00     0.189 HD
HETATM    5  C   UNL     1      25.070  45.562  51.306  1.00  0.00     0.120 A 
HETATM    6  C   UNL     1      26.215  46.027  51.921  1.00  0.00     0.071 A 
ENDROOT
BRANCH   5   7
HETATM    7  C   UNL     1      24.349  45.948  50.123  1.00  0.00     0.269 C 
HETATM    8  N   UNL     1      24.222  47.303  49.937  1.00  0.00    -0.355 N 
HETATM    9  H   UNL     1      24.604  47.937  50.623  1.00  0.00     0.162 HD
HETATM   10  O   UNL     1      23.888  45.122  49.342  1.00  0.00    -0.266 OA
BRANCH   8  11
HETATM   11  C   UNL     1      23.492  47.875  48.825  1.00  0.00     0.128 C 
BRANCH  11  12
HETATM   12  C   UNL     1      22.302  48.712  49.287  1.00  0.00     0.012 C 
HETATM   13  C   UNL     1      22.623  50.184  49.670  1.00  0.00     0.014 C 
HETATM   14  C   UNL     1      21.222  50.801  49.595  1.00  0.00     0.017 C 
HETATM   15  C   UNL     1      23.248  50.894  48.491  1.00  0.00    -0.025 C 
HETATM   16  C   UNL     1      21.028  50.421  48.124  1.00  0.00     0.009 C 
HETATM   17  C   UNL     1      22.292  51.026  47.559  1.00  0.00    -0.026 C 
HETATM   18  C   UNL     1      21.218  48.890  48.176  1.00  0.00     0.015 C 
ENDBRANCH  11  12
ENDBRANCH   8  11
ENDBRANCH   5   7
BRANCH   1  19
HETATM   19  C   UNL     1      27.497  45.285  54.053  1.00  0.00    -0.003 A 
HETATM   20  C   UNL     1      28.452  44.257  54.141  1.00  0.00     0.050 A 
HETATM   21  C   UNL     1      29.496  44.329  55.066  1.00  0.00     0.069 A 
HETATM   22  C   UNL     1      29.585  45.434  55.914  1.00  0.00     0.037 A 
HETATM   23  C   UNL     1      28.641  46.458  55.845  1.00  0.00     0.004 A 
HETATM   24  C   UNL     1      27.601  46.383  54.918  1.00  0.00     0.014 A 
BRANCH  21  25
HETATM   25  O   UNL     1      30.485  43.399  55.239  1.00  0.00    -0.356 OA
HETATM   26  C   UNL     1      31.234  43.478  56.446  1.00  0.00     0.210 C 
ENDBRANCH  21  25
ENDBRANCH   1  19
TORSDOF 5
ENDMDL
MODEL 8
REMARK VINA RESULT:      -7.7      7.079      9.887
REMARK  5 active torsions:
REMARK  status: ('A' for Active; 'I' for Inactive)
REMARK    1  A    between atoms: O_2  and  C_3 
REMARK    2  A    between atoms: C_5  and  C_6 
REMARK    3  A    between atoms: C_10  and  C_11 
REMARK       I    between atoms: C_11  and  N_12 
REMARK    4  A    between atoms: N_12  and  C_13 
REMARK    5  A    between atoms: C_13  and  C_14 
ROOT
HETATM    1  C   UNL     1      28.715  42.467  53.599  1.00  0.00     0.089 A 
HETATM    2  N   UNL     1      27.729  41.620  53.933  1.00  0.00    -0.174 NA
HETATM    3  N   UNL     1      27.511  40.898  52.824  1.00  0.00    -0.272 N 
HETATM    4  H   UNL     1      26.786  40.188  52.831  1.00  0.00     0.189 HD
HETATM    5  C   UNL     1      28.337  41.209  51.780  1.00  0.00     0.120 A 
HETATM    6  C   UNL     1      29.128  42.235  52.257  1.00  0.00     0.071 A 
ENDROOT
BRANCH   5   7
HETATM    7  C   UNL     1      28.260  40.514  50.523  1.00  0.00     0.269 C 
HETATM    8  N   UNL     1      28.462  39.157  50.596  1.00  0.00    -0.355 N 
HETATM    9  H   UNL     1      28.669  38.732  51.487  1.00  0.00     0.162 HD
HETATM   10  O   UNL     1      28.027  41.098  49.469  1.00  0.00    -0.266 OA
BRANCH   8  11
HETATM   11  C   UNL     1      28.461  38.302  49.427  1.00  0.00     0.128 C 
BRANCH  11  12
HETATM   12  C   UNL     1      27.048  38.017  48.924  1.00  0.00     0.012 C 
HETATM   13  C   UNL     1      26.792  38.332  47.424  1.00  0.00     0.014 C 
HETATM   14  C   UNL     1      25.525  37.504  47.180  1.00  0.00     0.017 C 
HETATM   15  C   UNL     1      27.751  37.539  46.564  1.00  0.00    -0.025 C 
HETATM   16  C   UNL     1      26.193  36.185  47.579  1.00  0.00     0.009 C 
HETATM   17  C   UNL     1      27.396  36.249  46.667  1.00  0.00    -0.026 C 
HETATM   18  C   UNL     1      26.668  36.504  49.013  1.00  0.00     0.015 C 
ENDBRANCH  11  12
ENDBRANCH   8  11
ENDBRANCH   5   7
BRANCH   1  19
HETATM   19  C   UNL     1      29.245  43.452  54.547  1.00  0.00    -0.003 A 
HETATM   20  C   UNL     1      28.544  44.646  54.794  1.00  0.00     0.050 A 
HETATM   21  C   UNL     1      29.030  45.585  55.707  1.00  0.00     0.069 A 
HETATM   22  C   UNL     1      30.228  45.331  56.376  1.00  0.00     0.037 A 
HETATM   23  C   UNL     1      30.940  44.157  56.137  1.00  0.00     0.004 A 
HETATM   24  C   UNL     1      30.450  43.220  55.225  1.00  0.00     0.014 A 
BRANCH  21  25
HETATM   25  O   UNL     1      28.435  46.772  56.034  1.00  0.00    -0.356 OA
HETATM   26  C   UNL     1      27.445  47.261  55.137  1.00  0.00     0.210 C 
ENDBRANCH  21  25
ENDBRANCH   1  19
TORSDOF 5
ENDMDL
MODEL 9
REMARK VINA RESULT:      -7.5      7.093      9.203
REMARK  5 active torsions:
REMARK  status: ('A' for Active; 'I' for Inactive)
REMARK    1  A    between atoms: O_2  and  C_3 
REMARK    2  A    between atoms: C_5  and  C_6 
REMARK    3  A    between atoms: C_10  and  C_11 
REMARK       I    between atoms: C_11  and  N_12 
REMARK    4  A    between atoms: N_12  and  C_13 
REMARK    5  A    between atoms: C_13  and  C_14 
ROOT
HETATM    1  C   UNL     1      28.339  43.361  53.311  1.00  0.00     0.089 A 
HETATM    2  N   UNL     1      27.015  43.218  53.475  1.00  0.00    -0.174 NA
HETATM    3  N   UNL     1      26.554  42.903  52.255  1.00  0.00    -0.272 N 
HETATM    4  H   UNL     1      25.557  42.757  52.127  1.00  0.00     0.189 HD
HETATM    5  C   UNL     1      27.524  42.798  51.298  1.00  0.00     0.120 A 
HETATM    6  C   UNL     1      28.698  43.100  51.958  1.00  0.00     0.071 A 
ENDROOT
BRANCH   5   7
HETATM    7  C   UNL     1      27.209  42.441  49.940  1.00  0.00     0.269 C 
HETATM    8  N   UNL     1      27.634  41.193  49.555  1.00  0.00    -0.355 N 
HETATM    9  H   UNL     1      28.147  40.619  50.207  1.00  0.00     0.162 HD
HETATM   10  O   UNL     1      26.601  43.199  49.191  1.00  0.00    -0.266 OA
BRANCH   8  11
HETATM   11  C   UNL     1      27.442  40.681  48.213  1.00  0.00     0.128 C 
BRANCH  11  12
HETATM   12  C   UNL     1      26.893  39.257  48.215  1.00  0.00     0.012 C 
HETATM   13  C   UNL     1      27.814  38.180  47.577  1.00  0.00     0.014 C 
HETATM   14  C   UNL     1      27.206  36.906  48.175  1.00  0.00     0.017 C 
HETATM   15  C   UNL     1      29.145  38.156  48.294  1.00  0.00    -0.025 C 
HETATM   16  C   UNL     1      27.444  37.355  49.619  1.00  0.00     0.009 C 
HETATM   17  C   UNL     1      28.919  37.670  49.524  1.00  0.00    -0.026 C 
HETATM   18  C   UNL     1      26.675  38.693  49.656  1.00  0.00     0.015 C 
ENDBRANCH  11  12
ENDBRANCH   8  11
ENDBRANCH   5   7
BRANCH   1  19
HETATM   19  C   UNL     1      29.223  43.724  54.423  1.00  0.00    -0.003 A 
HETATM   20  C   UNL     1      28.954  44.867  55.197  1.00  0.00     0.050 A 
HETATM   21  C   UNL     1      29.779  45.215  56.269  1.00  0.00     0.069 A 
HETATM   22  C   UNL     1      30.885  44.417  56.568  1.00  0.00     0.037 A 
HETATM   23  C   UNL     1      31.170  43.286  55.805  1.00  0.00     0.004 A 
HETATM   24  C   UNL     1      30.342  42.941  54.736  1.00  0.00     0.014 A 
BRANCH  21  25
HETATM   25  O   UNL     1      29.616  46.293  57.095  1.00  0.00    -0.356 OA
HETATM   26  C   UNL     1      28.430  46.323  57.881  1.00  0.00     0.210 C 
ENDBRANCH  21  25
ENDBRANCH   1  19
TORSDOF 5
ENDMDL
MODEL 10
REMARK VINA RESULT:      -7.5      1.779      2.424
REMARK  5 active torsions:
REMARK  status: ('A' for Active; 'I' for Inactive)
REMARK    1  A    between atoms: O_2  and  C_3 
REMARK    2  A    between atoms: C_5  and  C_6 
REMARK    3  A    between atoms: C_10  and  C_11 
REMARK       I    between atoms: C_11  and  N_12 
REMARK    4  A    between atoms: N_12  and  C_13 
REMARK    5  A    between atoms: C_13  and  C_14 
ROOT
HETATM    1  C   UNL     1      24.459  46.070  50.243  1.00  0.00     0.089 A 
HETATM    2  N   UNL     1      23.391  45.732  49.503  1.00  0.00    -0.174 NA
HETATM    3  N   UNL     1      22.880  46.902  49.090  1.00  0.00    -0.272 N 
HETATM    4  H   UNL     1      22.044  46.900  48.516  1.00  0.00     0.189 HD
HETATM    5  C   UNL     1      23.587  47.998  49.498  1.00  0.00     0.120 A 
HETATM    6  C   UNL     1      24.619  47.484  50.258  1.00  0.00     0.071 A 
ENDROOT
BRANCH   5   7
HETATM    7  C   UNL     1      23.196  49.331  49.124  1.00  0.00     0.269 C 
HETATM    8  N   UNL     1      21.913  49.448  48.649  1.00  0.00    -0.355 N 
HETATM    9  H   UNL     1      21.336  48.624  48.566  1.00  0.00     0.162 HD
HETATM   10  O   UNL     1      23.958  50.287  49.228  1.00  0.00    -0.266 OA
BRANCH   8  11
HETATM   11  C   UNL     1      21.361  50.704  48.186  1.00  0.00     0.128 C 
BRANCH  11  12
HETATM   12  C   UNL     1      20.402  51.320  49.202  1.00  0.00     0.012 C 
HETATM   13  C   UNL     1      19.315  52.263  48.615  1.00  0.00     0.014 C 
HETATM   14  C   UNL     1      18.308  52.278  49.771  1.00  0.00     0.017 C 
HETATM   15  C   UNL     1      18.483  51.514  47.599  1.00  0.00    -0.025 C 
HETATM   16  C   UNL     1      18.100  50.761  49.738  1.00  0.00     0.009 C 
HETATM   17  C   UNL     1      17.762  50.605  48.273  1.00  0.00    -0.026 C 
HETATM   18  C   UNL     1      19.541  50.250  49.948  1.00  0.00     0.015 C 
ENDBRANCH  11  12
ENDBRANCH   8  11
ENDBRANCH   5   7
BRANCH   1  19
HETATM   19  C   UNL     1      25.299  45.061  50.897  1.00  0.00    -0.003 A 
HETATM   20  C   UNL     1      26.194  45.438  51.915  1.00  0.00     0.050 A 
HETATM   21  C   UNL     1      26.987  44.485  52.557  1.00  0.00     0.069 A 
HETATM   22  C   UNL     1      26.890  43.145  52.178  1.00  0.00     0.037 A 
HETATM   23  C   UNL     1      26.014  42.757  51.165  1.00  0.00     0.004 A 
HETATM   24  C   UNL     1      25.222  43.712  50.527  1.00  0.00     0.014 A 
BRANCH  21  25
HETATM   25  O   UNL     1      27.884  44.728  53.562  1.00  0.00    -0.356 OA
HETATM   26  C   UNL     1      27.359  44.811  54.882  1.00  0.00     0.210 C 
ENDBRANCH  21  25
ENDBRANCH   1  19
TORSDOF 5
ENDMDL
