MODEL 1
REMARK VINA RESULT:      -7.9      0.000      0.000
REMARK  5 active torsions:
REMARK  status: ('A' for Active; 'I' for Inactive)
REMARK    1  A    between atoms: C_2  and  O_3 
REMARK    2  A    between atoms: O_3  and  C_4 
REMARK    3  A    between atoms: C_5  and  N_6 
REMARK       I    between atoms: N_6  and  C_7 
REMARK       I    between atoms: C_7  and  N_8 
REMARK    4  A    between atoms: N_8  and  C_9 
REMARK    5  A    between atoms: C_9  and  C_10 
ROOT
HETATM    1  N   UNL     1      26.683  44.915  52.117  1.00  0.00    -0.306 N 
HETATM    2  C   UNL     1      25.352  44.809  52.416  1.00  0.00     0.321 C 
HETATM    3  N   UNL     1      24.526  45.497  51.567  1.00  0.00    -0.337 N 
HETATM    4  O   UNL     1      24.853  44.210  53.361  1.00  0.00    -0.247 OA
HETATM    5  H   UNL     1      26.912  45.849  51.782  1.00  0.00     0.171 HD
HETATM    6  H   UNL     1      23.563  45.355  51.843  1.00  0.00     0.164 HD
ENDROOT
BRANCH   1   7
HETATM    7  C   UNL     1      27.709  44.191  52.756  1.00  0.00     0.069 A 
HETATM    8  C   UNL     1      28.142  44.434  54.068  1.00  0.00     0.096 A 
HETATM    9  C   UNL     1      29.229  43.723  54.588  1.00  0.00     0.039 A 
HETATM   10  C   UNL     1      29.837  42.716  53.838  1.00  0.00     0.003 A 
HETATM   11  C   UNL     1      29.358  42.417  52.566  1.00  0.00     0.002 A 
HETATM   12  C   UNL     1      28.294  43.145  52.030  1.00  0.00     0.032 A 
BRANCH   8  13
HETATM   13  O   UNL     1      27.559  45.329  54.928  1.00  0.00    -0.344 OA
BRANCH  13  14
HETATM   14  C   UNL     1      28.424  46.412  55.305  1.00  0.00     0.121 C 
HETATM   15  C   UNL     1      28.529  46.386  56.827  1.00  0.00     0.040 C 
HETATM   16  C   UNL     1      27.841  47.746  54.843  1.00  0.00     0.040 C 
ENDBRANCH  13  14
ENDBRANCH   8  13
ENDBRANCH   1   7
BRANCH   3  17
HETATM   17  C   UNL     1      24.772  45.670  50.146  1.00  0.00     0.183 C 
BRANCH  17  18
HETATM   18  C   UNL     1      25.358  47.006  49.714  1.00  0.00     0.053 A 
HETATM   19  N   UNL     1      26.708  47.141  49.605  1.00  0.00    -0.264 NA
HETATM   20  C   UNL     1      27.192  48.321  49.153  1.00  0.00     0.118 A 
HETATM   21  C   UNL     1      26.396  49.382  48.773  1.00  0.00     0.043 A 
HETATM   22  C   UNL     1      25.023  49.218  48.873  1.00  0.00     0.037 A 
HETATM   23 CL   UNL     1      23.973  50.496  48.399  1.00  0.00    -0.084 Cl
HETATM   24  C   UNL     1      24.486  48.025  49.343  1.00  0.00     0.052 A 
ENDBRANCH  17  18
ENDBRANCH   3  17
TORSDOF 5
ENDMDL
MODEL 2
REMARK VINA RESULT:      -7.7      1.600      3.225
REMARK  5 active torsions:
REMARK  status: ('A' for Active; 'I' for Inactive)
REMARK    1  A    between atoms: C_2  and  O_3 
REMARK    2  A    between atoms: O_3  and  C_4 
REMARK    3  A    between atoms: C_5  and  N_6 
REMARK       I    between atoms: N_6  and  C_7 
REMARK       I    between atoms: C_7  and  N_8 
REMARK    4  A    between atoms: N_8  and  C_9 
REMARK    5  A    between atoms: C_9  and  C_10 
ROOT
HETATM    1  N   UNL     1      26.769  45.290  52.853  1.00  0.00    -0.306 N 
HETATM    2  C   UNL     1      25.490  44.832  53.007  1.00  0.00     0.321 C 
HETATM    3  N   UNL     1      24.650  45.144  51.971  1.00  0.00    -0.337 N 
HETATM    4  O   UNL     1      25.033  44.225  53.968  1.00  0.00    -0.247 OA
HETATM    5  H   UNL     1      26.782  46.205  52.407  1.00  0.00     0.171 HD
HETATM    6  H   UNL     1      23.732  44.757  52.150  1.00  0.00     0.164 HD
ENDROOT
BRANCH   1   7
HETATM    7  C   UNL     1      27.841  44.979  53.713  1.00  0.00     0.069 A 
HETATM    8  C   UNL     1      28.726  43.909  53.511  1.00  0.00     0.096 A 
HETATM    9  C   UNL     1      29.707  43.624  54.466  1.00  0.00     0.039 A 
HETATM   10  C   UNL     1      29.864  44.444  55.583  1.00  0.00     0.003 A 
HETATM   11  C   UNL     1      29.040  45.554  55.747  1.00  0.00     0.002 A 
HETATM   12  C   UNL     1      28.039  45.825  54.812  1.00  0.00     0.032 A 
BRANCH   8  13
HETATM   13  O   UNL     1      28.728  43.097  52.405  1.00  0.00    -0.344 OA
BRANCH  13  14
HETATM   14  C   UNL     1      27.918  41.920  52.554  1.00  0.00     0.121 C 
HETATM   15  C   UNL     1      28.866  40.725  52.534  1.00  0.00     0.040 C 
HETATM   16  C   UNL     1      26.916  41.814  51.407  1.00  0.00     0.040 C 
ENDBRANCH  13  14
ENDBRANCH   8  13
ENDBRANCH   1   7
BRANCH   3  17
HETATM   17  C   UNL     1      25.059  45.217  50.578  1.00  0.00     0.183 C 
BRANCH  17  18
HETATM   18  C   UNL     1      25.099  46.603  49.953  1.00  0.00     0.053 A 
HETATM   19  N   UNL     1      23.931  47.238  49.659  1.00  0.00    -0.264 NA
HETATM   20  C   UNL     1      24.002  48.497  49.166  1.00  0.00     0.118 A 
HETATM   21  C   UNL     1      25.185  49.179  48.971  1.00  0.00     0.043 A 
HETATM   22  C   UNL     1      26.362  48.522  49.294  1.00  0.00     0.037 A 
HETATM   23 CL   UNL     1      27.871  49.323  49.091  1.00  0.00    -0.084 Cl
HETATM   24  C   UNL     1      26.334  47.224  49.792  1.00  0.00     0.052 A 
ENDBRANCH  17  18
ENDBRANCH   3  17
TORSDOF 5
ENDMDL
MODEL 3
REMARK VINA RESULT:      -7.6      2.071      3.102
REMARK  5 active torsions:
REMARK  status: ('A' for Active; 'I' for Inactive)
REMARK    1  A    between atoms: C_2  and  O_3 
REMARK    2  A    between atoms: O_3  and  C_4 
REMARK    3  A    between atoms: C_5  and  N_6 
REMARK       I    between atoms: N_6  and  C_7 
REMARK       I    between atoms: C_7  and  N_8 
REMARK    4  A    between atoms: N_8  and  C_9 
REMARK    5  A    between atoms: C_9  and  C_10 
ROOT
HETATM    1  N   UNL     1      27.964  43.754  53.259  1.00  0.00    -0.306 N 
HETATM    2  C   UNL     1      27.540  42.472  53.043  1.00  0.00     0.321 C 
HETATM    3  N   UNL     1      26.876  42.287  51.860  1.00  0.00    -0.337 N 
HETATM    4  O   UNL     1      27.663  41.517  53.801  1.00  0.00    -0.247 OA
HETATM    5  H   UNL     1      27.284  44.430  52.912  1.00  0.00     0.171 HD
HETATM    6  H   UNL     1      26.612  41.315  51.767  1.00  0.00     0.164 HD
ENDROOT
BRANCH   1   7
HETATM    7  C   UNL     1      28.783  44.160  54.331  1.00  0.00     0.069 A 
HETATM    8  C   UNL     1      28.456  45.190  55.225  1.00  0.00     0.096 A 
HETATM    9  C   UNL     1      29.372  45.582  56.205  1.00  0.00     0.039 A 
HETATM   10  C   UNL     1      30.581  44.903  56.353  1.00  0.00     0.003 A 
HETATM   11  C   UNL     1      30.877  43.827  55.519  1.00  0.00     0.002 A 
HETATM   12  C   UNL     1      29.978  43.452  54.518  1.00  0.00     0.032 A 
BRANCH   8  13
HETATM   13  O   UNL     1      27.259  45.861  55.236  1.00  0.00    -0.344 OA
BRANCH  13  14
HETATM   14  C   UNL     1      27.303  47.126  54.557  1.00  0.00     0.121 C 
HETATM   15  C   UNL     1      26.771  48.171  55.534  1.00  0.00     0.040 C 
HETATM   16  C   UNL     1      26.430  47.089  53.305  1.00  0.00     0.040 C 
ENDBRANCH  13  14
ENDBRANCH   8  13
ENDBRANCH   1   7
BRANCH   3  17
HETATM   17  C   UNL     1      27.185  42.993  50.628  1.00  0.00     0.183 C 
BRANCH  17  18
HETATM   18  C   UNL     1      26.352  44.229  50.325  1.00  0.00     0.053 A 
HETATM   19  N   UNL     1      25.006  44.195  50.523  1.00  0.00    -0.264 NA
HETATM   20  C   UNL     1      24.304  45.332  50.309  1.00  0.00     0.118 A 
HETATM   21  C   UNL     1      24.878  46.527  49.926  1.00  0.00     0.043 A 
HETATM   22  C   UNL     1      26.252  46.547  49.747  1.00  0.00     0.037 A 
HETATM   23 CL   UNL     1      27.033  48.010  49.288  1.00  0.00    -0.084 Cl
HETATM   24  C   UNL     1      27.008  45.397  49.946  1.00  0.00     0.052 A 
ENDBRANCH  17  18
ENDBRANCH   3  17
TORSDOF 5
ENDMDL
MODEL 4
REMARK VINA RESULT:      -7.6      1.497      3.180
REMARK  5 active torsions:
REMARK  status: ('A' for Active; 'I' for Inactive)
REMARK    1  A    between atoms: C_2  and  O_3 
REMARK    2  A    between atoms: O_3  and  C_4 
REMARK    3  A    between atoms: C_5  and  N_6 
REMARK       I    between atoms: N_6  and  C_7 
REMARK       I    between atoms: C_7  and  N_8 
REMARK    4  A    between atoms: N_8  and  C_9 
REMARK    5  A    between atoms: C_9  and  C_10 
ROOT
HETATM    1  N   UNL     1      26.030  45.884  52.777  1.00  0.00    -0.306 N 
HETATM    2  C   UNL     1      24.994  44.993  52.733  1.00  0.00     0.321 C 
HETATM    3  N   UNL     1      24.322  44.966  51.539  1.00  0.00    -0.337 N 
HETATM    4  O   UNL     1      24.602  44.270  53.641  1.00  0.00    -0.247 OA
HETATM    5  H   UNL     1      25.804  46.737  52.267  1.00  0.00     0.171 HD
HETATM    6  H   UNL     1      23.586  44.273  51.580  1.00  0.00     0.164 HD
ENDROOT
BRANCH   1   7
HETATM    7  C   UNL     1      26.949  45.995  53.839  1.00  0.00     0.069 A 
HETATM    8  C   UNL     1      28.028  45.121  54.039  1.00  0.00     0.096 A 
HETATM    9  C   UNL     1      28.836  45.256  55.173  1.00  0.00     0.039 A 
HETATM   10  C   UNL     1      28.625  46.304  56.068  1.00  0.00     0.003 A 
HETATM   11  C   UNL     1      27.605  47.222  55.832  1.00  0.00     0.002 A 
HETATM   12  C   UNL     1      26.776  47.073  54.718  1.00  0.00     0.032 A 
BRANCH   8  13
HETATM   13  O   UNL     1      28.389  44.118  53.176  1.00  0.00    -0.344 OA
BRANCH  13  14
HETATM   14  C   UNL     1      28.921  42.957  53.834  1.00  0.00     0.121 C 
HETATM   15  C   UNL     1      30.256  42.641  53.164  1.00  0.00     0.040 C 
HETATM   16  C   UNL     1      27.967  41.774  53.682  1.00  0.00     0.040 C 
ENDBRANCH  13  14
ENDBRANCH   8  13
ENDBRANCH   1   7
BRANCH   3  17
HETATM   17  C   UNL     1      24.946  45.170  50.243  1.00  0.00     0.183 C 
BRANCH  17  18
HETATM   18  C   UNL     1      24.986  46.599  49.724  1.00  0.00     0.053 A 
HETATM   19  N   UNL     1      23.818  47.249  49.461  1.00  0.00    -0.264 NA
HETATM   20  C   UNL     1      23.887  48.541  49.066  1.00  0.00     0.118 A 
HETATM   21  C   UNL     1      25.068  49.243  48.940  1.00  0.00     0.043 A 
HETATM   22  C   UNL     1      26.245  48.570  49.230  1.00  0.00     0.037 A 
HETATM   23 CL   UNL     1      27.751  49.393  49.110  1.00  0.00    -0.084 Cl
HETATM   24  C   UNL     1      26.218  47.239  49.628  1.00  0.00     0.052 A 
ENDBRANCH  17  18
ENDBRANCH   3  17
TORSDOF 5
ENDMDL
MODEL 5
REMARK VINA RESULT:      -7.2      5.020      7.225
REMARK  5 active torsions:
REMARK  status: ('A' for Active; 'I' for Inactive)
REMARK    1  A    between atoms: C_2  and  O_3 
REMARK    2  A    between atoms: O_3  and  C_4 
REMARK    3  A    between atoms: C_5  and  N_6 
REMARK       I    between atoms: N_6  and  C_7 
REMARK       I    between atoms: C_7  and  N_8 
REMARK    4  A    between atoms: N_8  and  C_9 
REMARK    5  A    between atoms: C_9  and  C_10 
ROOT
HETATM    1  N   UNL     1      22.941  48.525  49.538  1.00  0.00    -0.306 N 
HETATM    2  C   UNL     1      22.044  47.987  48.657  1.00  0.00     0.321 C 
HETATM    3  N   UNL     1      20.737  48.072  49.058  1.00  0.00    -0.337 N 
HETATM    4  O   UNL     1      22.297  47.424  47.598  1.00  0.00    -0.247 OA
HETATM    5  H   UNL     1      22.661  48.349  50.502  1.00  0.00     0.171 HD
HETATM    6  H   UNL     1      20.138  47.670  48.348  1.00  0.00     0.164 HD
ENDROOT
BRANCH   1   7
HETATM    7  C   UNL     1      24.318  48.681  49.287  1.00  0.00     0.069 A 
HETATM    8  C   UNL     1      25.316  47.864  49.842  1.00  0.00     0.096 A 
HETATM    9  C   UNL     1      26.664  48.150  49.605  1.00  0.00     0.039 A 
HETATM   10  C   UNL     1      27.025  49.196  48.756  1.00  0.00     0.003 A 
HETATM   11  C   UNL     1      26.037  49.960  48.140  1.00  0.00     0.002 A 
HETATM   12  C   UNL     1      24.690  49.698  48.398  1.00  0.00     0.032 A 
BRANCH   8  13
HETATM   13  O   UNL     1      25.076  46.754  50.610  1.00  0.00    -0.344 OA
BRANCH  13  14
HETATM   14  C   UNL     1      26.098  46.498  51.586  1.00  0.00     0.121 C 
HETATM   15  C   UNL     1      26.289  44.985  51.641  1.00  0.00     0.040 C 
HETATM   16  C   UNL     1      25.670  47.021  52.956  1.00  0.00     0.040 C 
ENDBRANCH  13  14
ENDBRANCH   8  13
ENDBRANCH   1   7
BRANCH   3  17
HETATM   17  C   UNL     1      20.184  49.178  49.820  1.00  0.00     0.183 C 
BRANCH  17  18
HETATM   18  C   UNL     1      18.856  49.740  49.336  1.00  0.00     0.053 A 
HETATM   19  N   UNL     1      18.071  48.991  48.514  1.00  0.00    -0.264 NA
HETATM   20  C   UNL     1      16.866  49.493  48.158  1.00  0.00     0.118 A 
HETATM   21  C   UNL     1      16.378  50.705  48.600  1.00  0.00     0.043 A 
HETATM   22  C   UNL     1      17.183  51.445  49.452  1.00  0.00     0.037 A 
HETATM   23 CL   UNL     1      16.628  52.957  50.056  1.00  0.00    -0.084 Cl
HETATM   24  C   UNL     1      18.433  50.970  49.833  1.00  0.00     0.052 A 
ENDBRANCH  17  18
ENDBRANCH   3  17
TORSDOF 5
ENDMDL
MODEL 6
REMARK VINA RESULT:      -7.1     12.018     13.739
REMARK  5 active torsions:
REMARK  status: ('A' for Active; 'I' for Inactive)
REMARK    1  A    between atoms: C_2  and  O_3 
REMARK    2  A    between atoms: O_3  and  C_4 
REMARK    3  A    between atoms: C_5  and  N_6 
REMARK       I    between atoms: N_6  and  C_7 
REMARK       I    between atoms: C_7  and  N_8 
REMARK    4  A    between atoms: N_8  and  C_9 
REMARK    5  A    between atoms: C_9  and  C_10 
ROOT
HETATM    1  N   UNL     1      31.906  49.519  41.288  1.00  0.00    -0.306 N 
HETATM    2  C   UNL     1      32.253  48.238  40.959  1.00  0.00     0.321 C 
HETATM    3  N   UNL     1      31.482  47.679  39.975  1.00  0.00    -0.337 N 
HETATM    4  O   UNL     1      33.133  47.556  41.472  1.00  0.00    -0.247 OA
HETATM    5  H   UNL     1      30.896  49.647  41.258  1.00  0.00     0.171 HD
HETATM    6  H   UNL     1      31.810  46.743  39.777  1.00  0.00     0.164 HD
ENDROOT
BRANCH   1   7
HETATM    7  C   UNL     1      32.633  50.346  42.168  1.00  0.00     0.069 A 
HETATM    8  C   UNL     1      33.943  50.790  41.928  1.00  0.00     0.096 A 
HETATM    9  C   UNL     1      34.617  51.535  42.900  1.00  0.00     0.039 A 
HETATM   10  C   UNL     1      33.968  51.910  44.077  1.00  0.00     0.003 A 
HETATM   11  C   UNL     1      32.642  51.541  44.284  1.00  0.00     0.002 A 
HETATM   12  C   UNL     1      31.975  50.769  43.330  1.00  0.00     0.032 A 
BRANCH   8  13
HETATM   13  O   UNL     1      34.642  50.565  40.770  1.00  0.00    -0.344 OA
BRANCH  13  14
HETATM   14  C   UNL     1      34.805  51.739  39.959  1.00  0.00     0.121 C 
HETATM   15  C   UNL     1      33.562  51.847  39.080  1.00  0.00     0.040 C 
HETATM   16  C   UNL     1      36.053  51.616  39.088  1.00  0.00     0.040 C 
ENDBRANCH  13  14
ENDBRANCH   8  13
ENDBRANCH   1   7
BRANCH   3  17
HETATM   17  C   UNL     1      30.922  48.417  38.855  1.00  0.00     0.183 C 
BRANCH  17  18
HETATM   18  C   UNL     1      29.776  49.367  39.171  1.00  0.00     0.053 A 
HETATM   19  N   UNL     1      28.881  49.036  40.142  1.00  0.00    -0.264 NA
HETATM   20  C   UNL     1      27.915  49.934  40.445  1.00  0.00     0.118 A 
HETATM   21  C   UNL     1      27.802  51.171  39.846  1.00  0.00     0.043 A 
HETATM   22  C   UNL     1      28.734  51.497  38.873  1.00  0.00     0.037 A 
HETATM   23 CL   UNL     1      28.661  53.032  38.099  1.00  0.00    -0.084 Cl
HETATM   24  C   UNL     1      29.736  50.599  38.525  1.00  0.00     0.052 A 
ENDBRANCH  17  18
ENDBRANCH   3  17
TORSDOF 5
ENDMDL
MODEL 7
REMARK VINA RESULT:      -7.0     12.188     14.103
REMARK  5 active torsions:
REMARK  status: ('A' for Active; 'I' for Inactive)
REMARK    1  A    between atoms: C_2  and  O_3 
REMARK    2  A    between atoms: O_3  and  C_4 
REMARK    3  A    between atoms: C_5  and  N_6 
REMARK       I    between atoms: N_6  and  C_7 
REMARK       I    between atoms: C_7  and  N_8 
REMARK    4  A    between atoms: N_8  and  C_9 
REMARK    5  A    between atoms: C_9  and  C_10 
ROOT
HETATM    1  N   UNL     1      34.029  50.573  39.938  1.00  0.00    -0.306 N 
HETATM    2  C   UNL     1      33.442  51.480  39.099  1.00  0.00     0.321 C 
HETATM    3  N   UNL     1      32.434  50.966  38.327  1.00  0.00    -0.337 N 
HETATM    4  O   UNL     1      33.749  52.657  38.953  1.00  0.00    -0.247 OA
HETATM    5  H   UNL     1      34.102  49.657  39.497  1.00  0.00     0.171 HD
HETATM    6  H   UNL     1      32.042  51.699  37.751  1.00  0.00     0.164 HD
ENDROOT
BRANCH   1   7
HETATM    7  C   UNL     1      34.987  50.892  40.921  1.00  0.00     0.069 A 
HETATM    8  C   UNL     1      34.695  51.576  42.111  1.00  0.00     0.096 A 
HETATM    9  C   UNL     1      35.727  51.927  42.986  1.00  0.00     0.039 A 
HETATM   10  C   UNL     1      37.039  51.532  42.725  1.00  0.00     0.003 A 
HETATM   11  C   UNL     1      37.322  50.783  41.586  1.00  0.00     0.002 A 
HETATM   12  C   UNL     1      36.299  50.457  40.692  1.00  0.00     0.032 A 
BRANCH   8  13
HETATM   13  O   UNL     1      33.433  51.929  42.517  1.00  0.00    -0.344 OA
BRANCH  13  14
HETATM   14  C   UNL     1      32.916  51.101  43.571  1.00  0.00     0.121 C 
HETATM   15  C   UNL     1      31.792  50.264  42.966  1.00  0.00     0.040 C 
HETATM   16  C   UNL     1      32.372  51.963  44.708  1.00  0.00     0.040 C 
ENDBRANCH  13  14
ENDBRANCH   8  13
ENDBRANCH   1   7
BRANCH   3  17
HETATM   17  C   UNL     1      31.518  49.925  38.763  1.00  0.00     0.183 C 
BRANCH  17  18
HETATM   18  C   UNL     1      30.063  50.331  38.940  1.00  0.00     0.053 A 
HETATM   19  N   UNL     1      29.099  49.702  38.212  1.00  0.00    -0.264 NA
HETATM   20  C   UNL     1      27.809  50.039  38.443  1.00  0.00     0.118 A 
HETATM   21  C   UNL     1      27.415  50.962  39.390  1.00  0.00     0.043 A 
HETATM   22  C   UNL     1      28.409  51.578  40.134  1.00  0.00     0.037 A 
HETATM   23 CL   UNL     1      27.985  52.726  41.343  1.00  0.00    -0.084 Cl
HETATM   24  C   UNL     1      29.748  51.268  39.919  1.00  0.00     0.052 A 
ENDBRANCH  17  18
ENDBRANCH   3  17
TORSDOF 5
ENDMDL
MODEL 8
REMARK VINA RESULT:      -6.9      4.510      8.866
REMARK  5 active torsions:
REMARK  status: ('A' for Active; 'I' for Inactive)
REMARK    1  A    between atoms: C_2  and  O_3 
REMARK    2  A    between atoms: O_3  and  C_4 
REMARK    3  A    between atoms: C_5  and  N_6 
REMARK       I    between atoms: N_6  and  C_7 
REMARK       I    between atoms: C_7  and  N_8 
REMARK    4  A    between atoms: N_8  and  C_9 
REMARK    5  A    between atoms: C_9  and  C_10 
ROOT
HETATM    1  N   UNL     1      22.712  48.993  49.532  1.00  0.00    -0.306 N 
HETATM    2  C   UNL     1      23.917  48.891  48.895  1.00  0.00     0.321 C 
HETATM    3  N   UNL     1      24.841  48.122  49.553  1.00  0.00    -0.337 N 
HETATM    4  O   UNL     1      24.247  49.434  47.847  1.00  0.00    -0.247 OA
HETATM    5  H   UNL     1      22.833  49.044  50.543  1.00  0.00     0.171 HD
HETATM    6  H   UNL     1      25.695  48.081  49.011  1.00  0.00     0.164 HD
ENDROOT
BRANCH   1   7
HETATM    7  C   UNL     1      21.567  49.611  48.990  1.00  0.00     0.069 A 
HETATM    8  C   UNL     1      20.539  48.920  48.332  1.00  0.00     0.096 A 
HETATM    9  C   UNL     1      19.484  49.628  47.748  1.00  0.00     0.039 A 
HETATM   10  C   UNL     1      19.404  51.014  47.883  1.00  0.00     0.003 A 
HETATM   11  C   UNL     1      20.380  51.696  48.604  1.00  0.00     0.002 A 
HETATM   12  C   UNL     1      21.453  50.997  49.162  1.00  0.00     0.032 A 
BRANCH   8  13
HETATM   13  O   UNL     1      20.462  47.555  48.223  1.00  0.00    -0.344 OA
BRANCH  13  14
HETATM   14  C   UNL     1      20.990  47.046  46.987  1.00  0.00     0.121 C 
HETATM   15  C   UNL     1      19.853  46.300  46.294  1.00  0.00     0.040 C 
HETATM   16  C   UNL     1      22.153  46.094  47.257  1.00  0.00     0.040 C 
ENDBRANCH  13  14
ENDBRANCH   8  13
ENDBRANCH   1   7
BRANCH   3  17
HETATM   17  C   UNL     1      24.515  46.943  50.337  1.00  0.00     0.183 C 
BRANCH  17  18
HETATM   18  C   UNL     1      25.358  46.698  51.579  1.00  0.00     0.053 A 
HETATM   19  N   UNL     1      25.306  47.587  52.610  1.00  0.00    -0.264 NA
HETATM   20  C   UNL     1      26.015  47.304  53.727  1.00  0.00     0.118 A 
HETATM   21  C   UNL     1      26.765  46.158  53.890  1.00  0.00     0.043 A 
HETATM   22  C   UNL     1      26.791  45.256  52.838  1.00  0.00     0.037 A 
HETATM   23 CL   UNL     1      27.692  43.798  52.983  1.00  0.00    -0.084 Cl
HETATM   24  C   UNL     1      26.085  45.515  51.668  1.00  0.00     0.052 A 
ENDBRANCH  17  18
ENDBRANCH   3  17
TORSDOF 5
ENDMDL
MODEL 9
REMARK VINA RESULT:      -6.9     12.256     14.050
REMARK  5 active torsions:
REMARK  status: ('A' for Active; 'I' for Inactive)
REMARK    1  A    between atoms: C_2  and  O_3 
REMARK    2  A    between atoms: O_3  and  C_4 
REMARK    3  A    between atoms: C_5  and  N_6 
REMARK       I    between atoms: N_6  and  C_7 
REMARK       I    between atoms: C_7  and  N_8 
REMARK    4  A    between atoms: N_8  and  C_9 
REMARK    5  A    between atoms: C_9  and  C_10 
ROOT
HETATM    1  N   UNL     1      28.804  50.636  39.202  1.00  0.00    -0.306 N 
HETATM    2  C   UNL     1      29.361  51.632  38.448  1.00  0.00     0.321 C 
HETATM    3  N   UNL     1      29.391  52.856  39.061  1.00  0.00    -0.337 N 
HETATM    4  O   UNL     1      29.785  51.541  37.301  1.00  0.00    -0.247 OA
HETATM    5  H   UNL     1      28.018  50.984  39.748  1.00  0.00     0.171 HD
HETATM    6  H   UNL     1      29.831  53.531  38.449  1.00  0.00     0.164 HD
ENDROOT
BRANCH   1   7
HETATM    7  C   UNL     1      28.786  49.273  38.845  1.00  0.00     0.069 A 
HETATM    8  C   UNL     1      29.862  48.395  39.042  1.00  0.00     0.096 A 
HETATM    9  C   UNL     1      29.785  47.079  38.574  1.00  0.00     0.039 A 
HETATM   10  C   UNL     1      28.613  46.609  37.982  1.00  0.00     0.003 A 
HETATM   11  C   UNL     1      27.514  47.454  37.857  1.00  0.00     0.002 A 
HETATM   12  C   UNL     1      27.597  48.778  38.294  1.00  0.00     0.032 A 
BRANCH   8  13
HETATM   13  O   UNL     1      31.023  48.719  39.696  1.00  0.00    -0.344 OA
BRANCH  13  14
HETATM   14  C   UNL     1      31.217  47.990  40.919  1.00  0.00     0.121 C 
HETATM   15  C   UNL     1      30.488  48.761  42.015  1.00  0.00     0.040 C 
HETATM   16  C   UNL     1      32.705  47.891  41.249  1.00  0.00     0.040 C 
ENDBRANCH  13  14
ENDBRANCH   8  13
ENDBRANCH   1   7
BRANCH   3  17
HETATM   17  C   UNL     1      29.587  53.053  40.487  1.00  0.00     0.183 C 
BRANCH  17  18
HETATM   18  C   UNL     1      30.838  52.435  41.094  1.00  0.00     0.053 A 
HETATM   19  N   UNL     1      31.836  52.004  40.275  1.00  0.00    -0.264 NA
HETATM   20  C   UNL     1      32.963  51.523  40.849  1.00  0.00     0.118 A 
HETATM   21  C   UNL     1      33.166  51.468  42.213  1.00  0.00     0.043 A 
HETATM   22  C   UNL     1      32.146  51.929  43.030  1.00  0.00     0.037 A 
HETATM   23 CL   UNL     1      32.342  51.905  44.739  1.00  0.00    -0.084 Cl
HETATM   24  C   UNL     1      30.967  52.421  42.480  1.00  0.00     0.052 A 
ENDBRANCH  17  18
ENDBRANCH   3  17
TORSDOF 5
ENDMDL
MODEL 10
REMARK VINA RESULT:      -6.9     12.423     14.390
REMARK  5 active torsions:
REMARK  status: ('A' for Active; 'I' for Inactive)
REMARK    1  A    between atoms: C_2  and  O_3 
REMARK    2  A    between atoms: O_3  and  C_4 
REMARK    3  A    between atoms: C_5  and  N_6 
REMARK       I    between atoms: N_6  and  C_7 
REMARK       I    between atoms: C_7  and  N_8 
REMARK    4  A    between atoms: N_8  and  C_9 
REMARK    5  A    between atoms: C_9  and  C_10 
ROOT
HETATM    1  N   UNL     1      27.785  51.272  39.374  1.00  0.00    -0.306 N 
HETATM    2  C   UNL     1      28.618  52.179  38.781  1.00  0.00     0.321 C 
HETATM    3  N   UNL     1      29.032  53.191  39.607  1.00  0.00    -0.337 N 
HETATM    4  O   UNL     1      28.985  52.191  37.612  1.00  0.00    -0.247 OA
HETATM    5  H   UNL     1      27.149  51.727  40.028  1.00  0.00     0.171 HD
HETATM    6  H   UNL     1      29.656  53.807  39.102  1.00  0.00     0.164 HD
ENDROOT
BRANCH   1   7
HETATM    7  C   UNL     1      27.341  50.077  38.773  1.00  0.00     0.069 A 
HETATM    8  C   UNL     1      27.998  48.843  38.898  1.00  0.00     0.096 A 
HETATM    9  C   UNL     1      27.533  47.729  38.193  1.00  0.00     0.039 A 
HETATM   10  C   UNL     1      26.371  47.815  37.425  1.00  0.00     0.003 A 
HETATM   11  C   UNL     1      25.671  49.016  37.362  1.00  0.00     0.002 A 
HETATM   12  C   UNL     1      26.149  50.140  38.040  1.00  0.00     0.032 A 
BRANCH   8  13
HETATM   13  O   UNL     1      29.089  48.619  39.699  1.00  0.00    -0.344 OA
BRANCH  13  14
HETATM   14  C   UNL     1      30.281  48.288  38.968  1.00  0.00     0.121 C 
HETATM   15  C   UNL     1      31.047  47.270  39.808  1.00  0.00     0.040 C 
HETATM   16  C   UNL     1      31.135  49.535  38.750  1.00  0.00     0.040 C 
ENDBRANCH  13  14
ENDBRANCH   8  13
ENDBRANCH   1   7
BRANCH   3  17
HETATM   17  C   UNL     1      29.289  53.034  41.028  1.00  0.00     0.183 C 
BRANCH  17  18
HETATM   18  C   UNL     1      30.482  52.172  41.413  1.00  0.00     0.053 A 
HETATM   19  N   UNL     1      31.739  52.686  41.317  1.00  0.00    -0.264 NA
HETATM   20  C   UNL     1      32.771  51.916  41.731  1.00  0.00     0.118 A 
HETATM   21  C   UNL     1      32.621  50.654  42.268  1.00  0.00     0.043 A 
HETATM   22  C   UNL     1      31.332  50.155  42.375  1.00  0.00     0.037 A 
HETATM   23 CL   UNL     1      31.073  48.595  43.052  1.00  0.00    -0.084 Cl
HETATM   24  C   UNL     1      30.244  50.910  41.950  1.00  0.00     0.052 A 
ENDBRANCH  17  18
ENDBRANCH   3  17
TORSDOF 5
ENDMDL
