MODEL 1
REMARK VINA RESULT:     -10.0      0.000      0.000
REMARK  3 active torsions:
REMARK  status: ('A' for Active; 'I' for Inactive)
REMARK    1  A    between atoms: C_5  and  C_6 
REMARK       I    between atoms: C_6  and  N_7 
REMARK    2  A    between atoms: N_7  and  C_8 
REMARK    3  A    between atoms: C_15  and  C_16 
REMARK       I    between atoms: C_16  and  N_17 
ROOT
HETATM    1  C   UNL     1      27.462  41.944  51.308  1.00  0.00     0.035 A 
HETATM    2  C   UNL     1      28.362  40.876  51.163  1.00  0.00     0.046 A 
HETATM    3  C   UNL     1      27.975  39.735  50.427  1.00  0.00     0.030 A 
HETATM    4  C   UNL     1      26.690  39.680  49.905  1.00  0.00     0.063 A 
HETATM    5  N   UNL     1      26.606  38.472  49.271  1.00  0.00    -0.277 N 
HETATM    6  H   UNL     1      25.804  38.090  48.785  1.00  0.00     0.189 HD
HETATM    7  N   UNL     1      27.738  37.748  49.304  1.00  0.00    -0.168 NA
HETATM    8  C   UNL     1      28.594  38.518  50.014  1.00  0.00     0.156 A 
HETATM    9  C   UNL     1      25.762  40.711  50.060  1.00  0.00     0.034 A 
HETATM   10  C   UNL     1      26.180  41.849  50.762  1.00  0.00     0.032 A 
ENDROOT
BRANCH   1  11
HETATM   11  N   UNL     1      27.914  43.070  52.028  1.00  0.00    -0.326 N 
HETATM   12  C   UNL     1      27.844  43.263  53.402  1.00  0.00     0.240 C 
HETATM   13  O   UNL     1      27.323  42.483  54.200  1.00  0.00    -0.272 OA
HETATM   14  H   UNL     1      28.215  43.863  51.470  1.00  0.00     0.169 HD
BRANCH  12  15
HETATM   15  C   UNL     1      28.492  44.574  53.908  1.00  0.00     0.172 C 
HETATM   16  C   UNL     1      29.458  44.405  55.084  1.00  0.00    -0.029 A 
HETATM   17  C   UNL     1      29.524  45.299  56.175  1.00  0.00    -0.050 A 
HETATM   18  C   UNL     1      30.382  43.338  55.042  1.00  0.00     0.009 A 
HETATM   19  C   UNL     1      30.428  45.047  57.225  1.00  0.00     0.007 A 
HETATM   20  C   UNL     1      28.634  46.515  56.308  1.00  0.00     0.049 C 
HETATM   21  C   UNL     1      31.295  43.960  57.183  1.00  0.00     0.001 A 
HETATM   22  C   UNL     1      31.280  43.110  56.085  1.00  0.00     0.001 A 
HETATM   23  C   UNL     1      28.085  47.046  54.994  1.00  0.00     0.080 C 
HETATM   24  S   UNL     1      27.117  45.751  54.193  1.00  0.00    -0.149 SA
ENDBRANCH  12  15
ENDBRANCH   1  11
BRANCH   8  25
HETATM   25  C   UNL     1      29.979  38.095  50.260  1.00  0.00     0.270 C 
HETATM   26  N   UNL     1      30.871  38.525  49.317  1.00  0.00    -0.365 N 
HETATM   27  H   UNL     1      30.530  39.099  48.554  1.00  0.00     0.159 HD
HETATM   28  H   UNL     1      31.851  38.318  49.421  1.00  0.00     0.159 HD
HETATM   29  O   UNL     1      30.339  37.428  51.225  1.00  0.00    -0.266 OA
ENDBRANCH   8  25
TORSDOF 3
ENDMDL
MODEL 2
REMARK VINA RESULT:      -9.7      5.797      8.138
REMARK  3 active torsions:
REMARK  status: ('A' for Active; 'I' for Inactive)
REMARK    1  A    between atoms: C_5  and  C_6 
REMARK       I    between atoms: C_6  and  N_7 
REMARK    2  A    between atoms: N_7  and  C_8 
REMARK    3  A    between atoms: C_15  and  C_16 
REMARK       I    between atoms: C_16  and  N_17 
ROOT
HETATM    1  C   UNL     1      26.054  47.564  50.167  1.00  0.00     0.035 A 
HETATM    2  C   UNL     1      24.711  47.715  49.788  1.00  0.00     0.046 A 
HETATM    3  C   UNL     1      24.354  48.734  48.877  1.00  0.00     0.030 A 
HETATM    4  C   UNL     1      25.341  49.594  48.416  1.00  0.00     0.063 A 
HETATM    5  N   UNL     1      24.701  50.465  47.579  1.00  0.00    -0.277 N 
HETATM    6  H   UNL     1      25.112  51.239  47.071  1.00  0.00     0.189 HD
HETATM    7  N   UNL     1      23.388  50.226  47.427  1.00  0.00    -0.168 NA
HETATM    8  C   UNL     1      23.160  49.156  48.222  1.00  0.00     0.156 A 
HETATM    9  C   UNL     1      26.679  49.490  48.799  1.00  0.00     0.034 A 
HETATM   10  C   UNL     1      27.016  48.450  49.674  1.00  0.00     0.032 A 
ENDROOT
BRANCH   1  11
HETATM   11  N   UNL     1      26.356  46.512  51.055  1.00  0.00    -0.326 N 
HETATM   12  C   UNL     1      26.044  46.447  52.407  1.00  0.00     0.240 C 
HETATM   13  O   UNL     1      25.488  47.341  53.048  1.00  0.00    -0.272 OA
HETATM   14  H   UNL     1      26.962  45.783  50.692  1.00  0.00     0.169 HD
BRANCH  12  15
HETATM   15  C   UNL     1      26.444  45.126  53.106  1.00  0.00     0.172 C 
HETATM   16  C   UNL     1      27.589  45.249  54.114  1.00  0.00    -0.029 A 
HETATM   17  C   UNL     1      28.621  44.295  54.246  1.00  0.00    -0.050 A 
HETATM   18  C   UNL     1      27.577  46.342  55.010  1.00  0.00     0.009 A 
HETATM   19  C   UNL     1      29.648  44.507  55.184  1.00  0.00     0.007 A 
HETATM   20  C   UNL     1      28.714  43.050  53.391  1.00  0.00     0.049 C 
HETATM   21  C   UNL     1      29.639  45.617  56.023  1.00  0.00     0.001 A 
HETATM   22  C   UNL     1      28.596  46.530  55.944  1.00  0.00     0.001 A 
HETATM   23  C   UNL     1      27.393  42.584  52.801  1.00  0.00     0.080 C 
HETATM   24  S   UNL     1      26.711  43.898  51.772  1.00  0.00    -0.149 SA
ENDBRANCH  12  15
ENDBRANCH   1  11
BRANCH   8  25
HETATM   25  C   UNL     1      21.826  48.547  48.322  1.00  0.00     0.270 C 
HETATM   26  N   UNL     1      21.235  48.696  49.547  1.00  0.00    -0.365 N 
HETATM   27  H   UNL     1      21.730  49.212  50.264  1.00  0.00     0.159 HD
HETATM   28  H   UNL     1      20.302  48.347  49.700  1.00  0.00     0.159 HD
HETATM   29  O   UNL     1      21.259  47.964  47.404  1.00  0.00    -0.266 OA
ENDBRANCH   8  25
TORSDOF 3
ENDMDL
MODEL 3
REMARK VINA RESULT:      -9.1      1.651      2.782
REMARK  3 active torsions:
REMARK  status: ('A' for Active; 'I' for Inactive)
REMARK    1  A    between atoms: C_5  and  C_6 
REMARK       I    between atoms: C_6  and  N_7 
REMARK    2  A    between atoms: N_7  and  C_8 
REMARK    3  A    between atoms: C_15  and  C_16 
REMARK       I    between atoms: C_16  and  N_17 
ROOT
HETATM    1  C   UNL     1      27.862  41.748  51.412  1.00  0.00     0.035 A 
HETATM    2  C   UNL     1      28.319  40.424  51.313  1.00  0.00     0.046 A 
HETATM    3  C   UNL     1      28.230  39.746  50.078  1.00  0.00     0.030 A 
HETATM    4  C   UNL     1      27.644  40.395  49.000  1.00  0.00     0.063 A 
HETATM    5  N   UNL     1      27.685  39.498  47.969  1.00  0.00    -0.277 N 
HETATM    6  H   UNL     1      27.334  39.630  47.028  1.00  0.00     0.189 HD
HETATM    7  N   UNL     1      28.281  38.332  48.272  1.00  0.00    -0.168 NA
HETATM    8  C   UNL     1      28.624  38.472  49.572  1.00  0.00     0.156 A 
HETATM    9  C   UNL     1      27.150  41.699  49.075  1.00  0.00     0.034 A 
HETATM   10  C   UNL     1      27.283  42.365  50.300  1.00  0.00     0.032 A 
ENDROOT
BRANCH   1  11
HETATM   11  N   UNL     1      28.005  42.384  52.662  1.00  0.00    -0.326 N 
HETATM   12  C   UNL     1      29.118  43.079  53.121  1.00  0.00     0.240 C 
HETATM   13  O   UNL     1      30.179  43.199  52.506  1.00  0.00    -0.272 OA
HETATM   14  H   UNL     1      27.262  42.218  53.333  1.00  0.00     0.169 HD
BRANCH  12  15
HETATM   15  C   UNL     1      28.948  43.733  54.513  1.00  0.00     0.172 C 
HETATM   16  C   UNL     1      28.220  45.079  54.510  1.00  0.00    -0.029 A 
HETATM   17  C   UNL     1      28.604  46.177  55.310  1.00  0.00    -0.050 A 
HETATM   18  C   UNL     1      27.058  45.210  53.716  1.00  0.00     0.009 A 
HETATM   19  C   UNL     1      27.889  47.386  55.220  1.00  0.00     0.007 A 
HETATM   20  C   UNL     1      29.790  46.145  56.249  1.00  0.00     0.049 C 
HETATM   21  C   UNL     1      26.776  47.505  54.393  1.00  0.00     0.001 A 
HETATM   22  C   UNL     1      26.353  46.412  53.648  1.00  0.00     0.001 A 
HETATM   23  C   UNL     1      30.193  44.757  56.716  1.00  0.00     0.080 C 
HETATM   24  S   UNL     1      30.612  43.749  55.281  1.00  0.00    -0.149 SA
ENDBRANCH  12  15
ENDBRANCH   1  11
BRANCH   8  25
HETATM   25  C   UNL     1      29.338  37.410  50.294  1.00  0.00     0.270 C 
HETATM   26  N   UNL     1      28.530  36.403  50.747  1.00  0.00    -0.365 N 
HETATM   27  H   UNL     1      27.538  36.449  50.544  1.00  0.00     0.159 HD
HETATM   28  H   UNL     1      28.933  35.609  51.219  1.00  0.00     0.159 HD
HETATM   29  O   UNL     1      30.551  37.389  50.478  1.00  0.00    -0.266 OA
ENDBRANCH   8  25
TORSDOF 3
ENDMDL
MODEL 4
REMARK VINA RESULT:      -8.7      4.477      6.349
REMARK  3 active torsions:
REMARK  status: ('A' for Active; 'I' for Inactive)
REMARK    1  A    between atoms: C_5  and  C_6 
REMARK       I    between atoms: C_6  and  N_7 
REMARK    2  A    between atoms: N_7  and  C_8 
REMARK    3  A    between atoms: C_15  and  C_16 
REMARK       I    between atoms: C_16  and  N_17 
ROOT
HETATM    1  C   UNL     1      25.392  45.697  51.016  1.00  0.00     0.035 A 
HETATM    2  C   UNL     1      24.591  45.044  50.065  1.00  0.00     0.046 A 
HETATM    3  C   UNL     1      23.772  45.805  49.203  1.00  0.00     0.030 A 
HETATM    4  C   UNL     1      23.746  47.185  49.353  1.00  0.00     0.063 A 
HETATM    5  N   UNL     1      22.867  47.636  48.407  1.00  0.00    -0.277 N 
HETATM    6  H   UNL     1      22.593  48.595  48.234  1.00  0.00     0.189 HD
HETATM    7  N   UNL     1      22.346  46.672  47.629  1.00  0.00    -0.168 NA
HETATM    8  C   UNL     1      22.899  45.535  48.109  1.00  0.00     0.156 A 
HETATM    9  C   UNL     1      24.505  47.861  50.309  1.00  0.00     0.034 A 
HETATM   10  C   UNL     1      25.338  47.088  51.129  1.00  0.00     0.032 A 
ENDROOT
BRANCH   1  11
HETATM   11  N   UNL     1      26.212  44.887  51.829  1.00  0.00    -0.326 N 
HETATM   12  C   UNL     1      25.838  44.224  52.991  1.00  0.00     0.240 C 
HETATM   13  O   UNL     1      24.724  44.290  53.515  1.00  0.00    -0.272 OA
HETATM   14  H   UNL     1      27.201  44.885  51.601  1.00  0.00     0.169 HD
BRANCH  12  15
HETATM   15  C   UNL     1      26.945  43.350  53.628  1.00  0.00     0.172 C 
HETATM   16  C   UNL     1      27.989  44.121  54.440  1.00  0.00    -0.029 A 
HETATM   17  C   UNL     1      29.370  43.829  54.412  1.00  0.00    -0.050 A 
HETATM   18  C   UNL     1      27.541  45.133  55.317  1.00  0.00     0.009 A 
HETATM   19  C   UNL     1      30.260  44.610  55.174  1.00  0.00     0.007 A 
HETATM   20  C   UNL     1      29.970  42.730  53.564  1.00  0.00     0.049 C 
HETATM   21  C   UNL     1      29.798  45.635  55.994  1.00  0.00     0.001 A 
HETATM   22  C   UNL     1      28.435  45.889  56.075  1.00  0.00     0.001 A 
HETATM   23  C   UNL     1      29.006  41.614  53.196  1.00  0.00     0.080 C 
HETATM   24  S   UNL     1      27.619  42.311  52.278  1.00  0.00    -0.149 SA
ENDBRANCH  12  15
ENDBRANCH   1  11
BRANCH   8  25
HETATM   25  C   UNL     1      22.606  44.228  47.505  1.00  0.00     0.270 C 
HETATM   26  N   UNL     1      23.524  43.823  46.575  1.00  0.00    -0.365 N 
HETATM   27  H   UNL     1      24.321  44.421  46.390  1.00  0.00     0.159 HD
HETATM   28  H   UNL     1      23.431  42.922  46.136  1.00  0.00     0.159 HD
HETATM   29  O   UNL     1      21.641  43.529  47.797  1.00  0.00    -0.266 OA
ENDBRANCH   8  25
TORSDOF 3
ENDMDL
MODEL 5
REMARK VINA RESULT:      -8.7      5.018      7.281
REMARK  3 active torsions:
REMARK  status: ('A' for Active; 'I' for Inactive)
REMARK    1  A    between atoms: C_5  and  C_6 
REMARK       I    between atoms: C_6  and  N_7 
REMARK    2  A    between atoms: N_7  and  C_8 
REMARK    3  A    between atoms: C_15  and  C_16 
REMARK       I    between atoms: C_16  and  N_17 
ROOT
HETATM    1  C   UNL     1      24.137  44.921  50.427  1.00  0.00     0.035 A 
HETATM    2  C   UNL     1      24.294  46.283  50.121  1.00  0.00     0.046 A 
HETATM    3  C   UNL     1      23.492  46.868  49.118  1.00  0.00     0.030 A 
HETATM    4  C   UNL     1      22.597  46.065  48.424  1.00  0.00     0.063 A 
HETATM    5  N   UNL     1      21.987  46.894  47.524  1.00  0.00    -0.277 N 
HETATM    6  H   UNL     1      21.281  46.644  46.842  1.00  0.00     0.189 HD
HETATM    7  N   UNL     1      22.381  48.177  47.596  1.00  0.00    -0.168 NA
HETATM    8  C   UNL     1      23.310  48.176  48.579  1.00  0.00     0.156 A 
HETATM    9  C   UNL     1      22.440  44.702  48.682  1.00  0.00     0.034 A 
HETATM   10  C   UNL     1      23.221  44.151  49.707  1.00  0.00     0.032 A 
ENDROOT
BRANCH   1  11
HETATM   11  N   UNL     1      24.944  44.398  51.458  1.00  0.00    -0.326 N 
HETATM   12  C   UNL     1      26.325  44.244  51.439  1.00  0.00     0.240 C 
HETATM   13  O   UNL     1      27.052  44.504  50.478  1.00  0.00    -0.272 OA
HETATM   14  H   UNL     1      24.451  43.989  52.245  1.00  0.00     0.169 HD
BRANCH  12  15
HETATM   15  C   UNL     1      26.939  43.706  52.753  1.00  0.00     0.172 C 
HETATM   16  C   UNL     1      27.481  44.780  53.700  1.00  0.00    -0.029 A 
HETATM   17  C   UNL     1      28.683  44.646  54.427  1.00  0.00    -0.050 A 
HETATM   18  C   UNL     1      26.703  45.940  53.912  1.00  0.00     0.009 A 
HETATM   19  C   UNL     1      29.116  45.699  55.255  1.00  0.00     0.007 A 
HETATM   20  C   UNL     1      29.576  43.427  54.338  1.00  0.00     0.049 C 
HETATM   21  C   UNL     1      28.354  46.853  55.409  1.00  0.00     0.001 A 
HETATM   22  C   UNL     1      27.140  46.969  54.746  1.00  0.00     0.001 A 
HETATM   23  C   UNL     1      28.871  42.155  53.899  1.00  0.00     0.080 C 
HETATM   24  S   UNL     1      28.145  42.415  52.268  1.00  0.00    -0.149 SA
ENDBRANCH  12  15
ENDBRANCH   1  11
BRANCH   8  25
HETATM   25  C   UNL     1      23.981  49.413  48.998  1.00  0.00     0.270 C 
HETATM   26  N   UNL     1      25.306  49.473  48.660  1.00  0.00    -0.365 N 
HETATM   27  H   UNL     1      25.709  48.698  48.146  1.00  0.00     0.159 HD
HETATM   28  H   UNL     1      25.841  50.300  48.869  1.00  0.00     0.159 HD
HETATM   29  O   UNL     1      23.429  50.337  49.588  1.00  0.00    -0.266 OA
ENDBRANCH   8  25
TORSDOF 3
ENDMDL
MODEL 6
REMARK VINA RESULT:      -8.5      2.614      3.920
REMARK  3 active torsions:
REMARK  status: ('A' for Active; 'I' for Inactive)
REMARK    1  A    between atoms: C_5  and  C_6 
REMARK       I    between atoms: C_6  and  N_7 
REMARK    2  A    between atoms: N_7  and  C_8 
REMARK    3  A    between atoms: C_15  and  C_16 
REMARK       I    between atoms: C_16  and  N_17 
ROOT
HETATM    1  C   UNL     1      26.746  42.618  50.850  1.00  0.00     0.035 A 
HETATM    2  C   UNL     1      25.725  42.941  49.942  1.00  0.00     0.046 A 
HETATM    3  C   UNL     1      25.152  41.924  49.148  1.00  0.00     0.030 A 
HETATM    4  C   UNL     1      25.650  40.633  49.254  1.00  0.00     0.063 A 
HETATM    5  N   UNL     1      24.921  39.889  48.368  1.00  0.00    -0.277 N 
HETATM    6  H   UNL     1      25.021  38.900  48.172  1.00  0.00     0.189 HD
HETATM    7  N   UNL     1      23.966  40.576  47.720  1.00  0.00    -0.168 NA
HETATM    8  C   UNL     1      24.096  41.836  48.194  1.00  0.00     0.156 A 
HETATM    9  C   UNL     1      26.685  40.286  50.124  1.00  0.00     0.034 A 
HETATM   10  C   UNL     1      27.213  41.304  50.928  1.00  0.00     0.032 A 
ENDROOT
BRANCH   1  11
HETATM   11  N   UNL     1      27.259  43.669  51.638  1.00  0.00    -0.326 N 
HETATM   12  C   UNL     1      26.822  44.055  52.900  1.00  0.00     0.240 C 
HETATM   13  O   UNL     1      25.872  43.553  53.503  1.00  0.00    -0.272 OA
HETATM   14  H   UNL     1      27.938  44.273  51.187  1.00  0.00     0.169 HD
BRANCH  12  15
HETATM   15  C   UNL     1      27.634  45.203  53.547  1.00  0.00     0.172 C 
HETATM   16  C   UNL     1      28.769  44.751  54.469  1.00  0.00    -0.029 A 
HETATM   17  C   UNL     1      29.078  45.381  55.695  1.00  0.00    -0.050 A 
HETATM   18  C   UNL     1      29.597  43.690  54.041  1.00  0.00     0.009 A 
HETATM   19  C   UNL     1      30.124  44.877  56.490  1.00  0.00     0.007 A 
HETATM   20  C   UNL     1      28.308  46.565  56.236  1.00  0.00     0.049 C 
HETATM   21  C   UNL     1      30.896  43.799  56.067  1.00  0.00     0.001 A 
HETATM   22  C   UNL     1      30.639  43.212  54.835  1.00  0.00     0.001 A 
HETATM   23  C   UNL     1      27.584  47.387  55.183  1.00  0.00     0.080 C 
HETATM   24  S   UNL     1      26.410  46.330  54.314  1.00  0.00    -0.149 SA
ENDBRANCH  12  15
ENDBRANCH   1  11
BRANCH   8  25
HETATM   25  C   UNL     1      23.204  42.916  47.751  1.00  0.00     0.270 C 
HETATM   26  N   UNL     1      23.754  43.747  46.814  1.00  0.00    -0.365 N 
HETATM   27  H   UNL     1      24.696  43.556  46.491  1.00  0.00     0.159 HD
HETATM   28  H   UNL     1      23.205  44.494  46.420  1.00  0.00     0.159 HD
HETATM   29  O   UNL     1      22.056  43.076  48.153  1.00  0.00    -0.266 OA
ENDBRANCH   8  25
TORSDOF 3
ENDMDL
MODEL 7
REMARK VINA RESULT:      -8.4      4.340      6.097
REMARK  3 active torsions:
REMARK  status: ('A' for Active; 'I' for Inactive)
REMARK    1  A    between atoms: C_5  and  C_6 
REMARK       I    between atoms: C_6  and  N_7 
REMARK    2  A    between atoms: N_7  and  C_8 
REMARK    3  A    between atoms: C_15  and  C_16 
REMARK       I    between atoms: C_16  and  N_17 
ROOT
HETATM    1  C   UNL     1      24.997  44.164  49.931  1.00  0.00     0.035 A 
HETATM    2  C   UNL     1      23.811  44.836  49.592  1.00  0.00     0.046 A 
HETATM    3  C   UNL     1      22.903  44.236  48.693  1.00  0.00     0.030 A 
HETATM    4  C   UNL     1      23.232  43.011  48.129  1.00  0.00     0.063 A 
HETATM    5  N   UNL     1      22.187  42.698  47.304  1.00  0.00    -0.277 N 
HETATM    6  H   UNL     1      22.092  41.876  46.721  1.00  0.00     0.189 HD
HETATM    7  N   UNL     1      21.188  43.596  47.310  1.00  0.00    -0.168 NA
HETATM    8  C   UNL     1      21.616  44.552  48.167  1.00  0.00     0.156 A 
HETATM    9  C   UNL     1      24.417  42.333  48.420  1.00  0.00     0.034 A 
HETATM   10  C   UNL     1      25.286  42.930  49.343  1.00  0.00     0.032 A 
ENDROOT
BRANCH   1  11
HETATM   11  N   UNL     1      25.851  44.797  50.857  1.00  0.00    -0.326 N 
HETATM   12  C   UNL     1      25.874  44.609  52.234  1.00  0.00     0.240 C 
HETATM   13  O   UNL     1      25.103  43.881  52.860  1.00  0.00    -0.272 OA
HETATM   14  H   UNL     1      26.426  45.549  50.490  1.00  0.00     0.169 HD
BRANCH  12  15
HETATM   15  C   UNL     1      26.978  45.396  52.980  1.00  0.00     0.172 C 
HETATM   16  C   UNL     1      28.161  44.551  53.459  1.00  0.00    -0.029 A 
HETATM   17  C   UNL     1      28.790  44.727  54.711  1.00  0.00    -0.050 A 
HETATM   18  C   UNL     1      28.699  43.589  52.575  1.00  0.00     0.009 A 
HETATM   19  C   UNL     1      29.856  43.884  55.078  1.00  0.00     0.007 A 
HETATM   20  C   UNL     1      28.352  45.763  55.722  1.00  0.00     0.049 C 
HETATM   21  C   UNL     1      30.336  42.910  54.207  1.00  0.00     0.001 A 
HETATM   22  C   UNL     1      29.765  42.770  52.949  1.00  0.00     0.001 A 
HETATM   23  C   UNL     1      27.609  46.951  55.133  1.00  0.00     0.080 C 
HETATM   24  S   UNL     1      26.130  46.361  54.286  1.00  0.00    -0.149 SA
ENDBRANCH  12  15
ENDBRANCH   1  11
BRANCH   8  25
HETATM   25  C   UNL     1      20.788  45.723  48.482  1.00  0.00     0.270 C 
HETATM   26  N   UNL     1      19.711  45.448  49.280  1.00  0.00    -0.365 N 
HETATM   27  H   UNL     1      19.577  44.496  49.600  1.00  0.00     0.159 HD
HETATM   28  H   UNL     1      19.107  46.194  49.584  1.00  0.00     0.159 HD
HETATM   29  O   UNL     1      21.022  46.864  48.094  1.00  0.00    -0.266 OA
ENDBRANCH   8  25
TORSDOF 3
ENDMDL
MODEL 8
REMARK VINA RESULT:      -8.3      5.784      8.717
REMARK  3 active torsions:
REMARK  status: ('A' for Active; 'I' for Inactive)
REMARK    1  A    between atoms: C_5  and  C_6 
REMARK       I    between atoms: C_6  and  N_7 
REMARK    2  A    between atoms: N_7  and  C_8 
REMARK    3  A    between atoms: C_15  and  C_16 
REMARK       I    between atoms: C_16  and  N_17 
ROOT
HETATM    1  C   UNL     1      25.685  46.432  52.262  1.00  0.00     0.035 A 
HETATM    2  C   UNL     1      26.533  45.313  52.243  1.00  0.00     0.046 A 
HETATM    3  C   UNL     1      27.365  45.050  53.353  1.00  0.00     0.030 A 
HETATM    4  C   UNL     1      27.357  45.938  54.419  1.00  0.00     0.063 A 
HETATM    5  N   UNL     1      28.259  45.437  55.316  1.00  0.00    -0.277 N 
HETATM    6  H   UNL     1      28.519  45.835  56.211  1.00  0.00     0.189 HD
HETATM    7  N   UNL     1      28.827  44.278  54.943  1.00  0.00    -0.168 NA
HETATM    8  C   UNL     1      28.282  44.025  53.731  1.00  0.00     0.156 A 
HETATM    9  C   UNL     1      26.551  47.077  54.455  1.00  0.00     0.034 A 
HETATM   10  C   UNL     1      25.706  47.298  53.359  1.00  0.00     0.032 A 
ENDROOT
BRANCH   1  11
HETATM   11  N   UNL     1      24.854  46.628  51.140  1.00  0.00    -0.326 N 
HETATM   12  C   UNL     1      25.074  47.503  50.083  1.00  0.00     0.240 C 
HETATM   13  O   UNL     1      26.023  48.285  49.998  1.00  0.00    -0.272 OA
HETATM   14  H   UNL     1      23.952  46.165  51.168  1.00  0.00     0.169 HD
BRANCH  12  15
HETATM   15  C   UNL     1      24.016  47.442  48.956  1.00  0.00     0.172 C 
HETATM   16  C   UNL     1      23.108  48.670  48.855  1.00  0.00    -0.029 A 
HETATM   17  C   UNL     1      21.722  48.598  48.593  1.00  0.00    -0.050 A 
HETATM   18  C   UNL     1      23.698  49.949  48.961  1.00  0.00     0.009 A 
HETATM   19  C   UNL     1      20.962  49.782  48.544  1.00  0.00     0.007 A 
HETATM   20  C   UNL     1      20.981  47.294  48.397  1.00  0.00     0.049 C 
HETATM   21  C   UNL     1      21.560  51.028  48.700  1.00  0.00     0.001 A 
HETATM   22  C   UNL     1      22.932  51.113  48.897  1.00  0.00     0.001 A 
HETATM   23  C   UNL     1      21.848  46.134  47.935  1.00  0.00     0.080 C 
HETATM   24  S   UNL     1      23.143  45.843  49.155  1.00  0.00    -0.149 SA
ENDBRANCH  12  15
ENDBRANCH   1  11
BRANCH   8  25
HETATM   25  C   UNL     1      28.623  42.812  52.976  1.00  0.00     0.270 C 
HETATM   26  N   UNL     1      29.959  42.672  52.719  1.00  0.00    -0.365 N 
HETATM   27  H   UNL     1      30.597  43.377  53.071  1.00  0.00     0.159 HD
HETATM   28  H   UNL     1      30.296  41.851  52.241  1.00  0.00     0.159 HD
HETATM   29  O   UNL     1      27.809  41.972  52.607  1.00  0.00    -0.266 OA
ENDBRANCH   8  25
TORSDOF 3
ENDMDL
MODEL 9
REMARK VINA RESULT:      -8.3      2.009      2.392
REMARK  3 active torsions:
REMARK  status: ('A' for Active; 'I' for Inactive)
REMARK    1  A    between atoms: C_5  and  C_6 
REMARK       I    between atoms: C_6  and  N_7 
REMARK    2  A    between atoms: N_7  and  C_8 
REMARK    3  A    between atoms: C_15  and  C_16 
REMARK       I    between atoms: C_16  and  N_17 
ROOT
HETATM    1  C   UNL     1      26.645  41.233  50.195  1.00  0.00     0.035 A 
HETATM    2  C   UNL     1      27.437  40.088  50.380  1.00  0.00     0.046 A 
HETATM    3  C   UNL     1      27.215  38.950  49.574  1.00  0.00     0.030 A 
HETATM    4  C   UNL     1      26.183  38.978  48.648  1.00  0.00     0.063 A 
HETATM    5  N   UNL     1      26.204  37.753  48.042  1.00  0.00    -0.277 N 
HETATM    6  H   UNL     1      25.581  37.416  47.318  1.00  0.00     0.189 HD
HETATM    7  N   UNL     1      27.186  36.940  48.469  1.00  0.00    -0.168 NA
HETATM    8  C   UNL     1      27.821  37.669  49.415  1.00  0.00     0.156 A 
HETATM    9  C   UNL     1      25.357  40.089  48.462  1.00  0.00     0.034 A 
HETATM   10  C   UNL     1      25.619  41.220  49.246  1.00  0.00     0.032 A 
ENDROOT
BRANCH   1  11
HETATM   11  N   UNL     1      26.932  42.350  51.007  1.00  0.00    -0.326 N 
HETATM   12  C   UNL     1      27.111  43.662  50.586  1.00  0.00     0.240 C 
HETATM   13  O   UNL     1      27.092  44.037  49.412  1.00  0.00    -0.272 OA
HETATM   14  H   UNL     1      27.140  42.151  51.980  1.00  0.00     0.169 HD
BRANCH  12  15
HETATM   15  C   UNL     1      27.343  44.685  51.724  1.00  0.00     0.172 C 
HETATM   16  C   UNL     1      28.237  44.190  52.864  1.00  0.00    -0.029 A 
HETATM   17  C   UNL     1      27.984  44.458  54.227  1.00  0.00    -0.050 A 
HETATM   18  C   UNL     1      29.416  43.486  52.533  1.00  0.00     0.009 A 
HETATM   19  C   UNL     1      28.848  43.939  55.209  1.00  0.00     0.007 A 
HETATM   20  C   UNL     1      26.791  45.254  54.710  1.00  0.00     0.049 C 
HETATM   21  C   UNL     1      29.979  43.207  54.859  1.00  0.00     0.001 A 
HETATM   22  C   UNL     1      30.269  42.990  53.519  1.00  0.00     0.001 A 
HETATM   23  C   UNL     1      26.209  46.211  53.683  1.00  0.00     0.080 C 
HETATM   24  S   UNL     1      25.684  45.274  52.233  1.00  0.00    -0.149 SA
ENDBRANCH  12  15
ENDBRANCH   1  11
BRANCH   8  25
HETATM   25  C   UNL     1      28.995  37.145  50.125  1.00  0.00     0.270 C 
HETATM   26  N   UNL     1      28.714  36.130  50.998  1.00  0.00    -0.365 N 
HETATM   27  H   UNL     1      27.755  35.812  51.077  1.00  0.00     0.159 HD
HETATM   28  H   UNL     1      29.460  35.679  51.502  1.00  0.00     0.159 HD
HETATM   29  O   UNL     1      30.143  37.547  49.960  1.00  0.00    -0.266 OA
ENDBRANCH   8  25
TORSDOF 3
ENDMDL
MODEL 10
REMARK VINA RESULT:      -8.1      7.942     10.197
REMARK  3 active torsions:
REMARK  status: ('A' for Active; 'I' for Inactive)
REMARK    1  A    between atoms: C_5  and  C_6 
REMARK       I    between atoms: C_6  and  N_7 
REMARK    2  A    between atoms: N_7  and  C_8 
REMARK    3  A    between atoms: C_15  and  C_16 
REMARK       I    between atoms: C_16  and  N_17 
ROOT
HETATM    1  C   UNL     1      23.528  47.059  49.242  1.00  0.00     0.035 A 
HETATM    2  C   UNL     1      23.832  45.695  49.115  1.00  0.00     0.046 A 
HETATM    3  C   UNL     1      25.142  45.244  49.387  1.00  0.00     0.030 A 
HETATM    4  C   UNL     1      26.111  46.177  49.729  1.00  0.00     0.063 A 
HETATM    5  N   UNL     1      27.259  45.457  49.913  1.00  0.00    -0.277 N 
HETATM    6  H   UNL     1      28.173  45.815  50.161  1.00  0.00     0.189 HD
HETATM    7  N   UNL     1      27.113  44.130  49.757  1.00  0.00    -0.168 NA
HETATM    8  C   UNL     1      25.808  43.984  49.434  1.00  0.00     0.156 A 
HETATM    9  C   UNL     1      25.849  47.544  49.832  1.00  0.00     0.034 A 
HETATM   10  C   UNL     1      24.534  47.963  49.593  1.00  0.00     0.032 A 
ENDROOT
BRANCH   1  11
HETATM   11  N   UNL     1      22.196  47.447  48.987  1.00  0.00    -0.326 N 
HETATM   12  C   UNL     1      21.549  47.445  47.757  1.00  0.00     0.240 C 
HETATM   13  O   UNL     1      22.072  47.143  46.683  1.00  0.00    -0.272 OA
HETATM   14  H   UNL     1      21.701  47.877  49.761  1.00  0.00     0.169 HD
BRANCH  12  15
HETATM   15  C   UNL     1      20.058  47.857  47.805  1.00  0.00     0.172 C 
HETATM   16  C   UNL     1      19.790  49.240  48.404  1.00  0.00    -0.029 A 
HETATM   17  C   UNL     1      18.710  49.521  49.269  1.00  0.00    -0.050 A 
HETATM   18  C   UNL     1      20.626  50.311  48.015  1.00  0.00     0.009 A 
HETATM   19  C   UNL     1      18.559  50.819  49.793  1.00  0.00     0.007 A 
HETATM   20  C   UNL     1      17.708  48.478  49.712  1.00  0.00     0.049 C 
HETATM   21  C   UNL     1      19.425  51.846  49.432  1.00  0.00     0.001 A 
HETATM   22  C   UNL     1      20.453  51.595  48.533  1.00  0.00     0.001 A 
HETATM   23  C   UNL     1      17.568  47.293  48.771  1.00  0.00     0.080 C 
HETATM   24  S   UNL     1      19.167  46.474  48.611  1.00  0.00    -0.149 SA
ENDBRANCH  12  15
ENDBRANCH   1  11
BRANCH   8  25
HETATM   25  C   UNL     1      25.221  42.658  49.202  1.00  0.00     0.270 C 
HETATM   26  N   UNL     1      25.556  42.101  47.998  1.00  0.00    -0.365 N 
HETATM   27  H   UNL     1      26.177  42.615  47.383  1.00  0.00     0.159 HD
HETATM   28  H   UNL     1      25.234  41.175  47.765  1.00  0.00     0.159 HD
HETATM   29  O   UNL     1      24.503  42.067  50.002  1.00  0.00    -0.266 OA
ENDBRANCH   8  25
TORSDOF 3
ENDMDL
