MODEL 1
REMARK VINA RESULT:      -8.4      0.000      0.000
REMARK  9 active torsions:
REMARK  status: ('A' for Active; 'I' for Inactive)
REMARK       I    between atoms: C_2  and  N_3 
REMARK    1  A    between atoms: N_3  and  C_4 
REMARK    2  A    between atoms: C_6  and  O_7 
REMARK    3  A    between atoms: O_7  and  C_8 
REMARK    4  A    between atoms: C_8  and  C_9 
REMARK    5  A    between atoms: C_9  and  C_10 
REMARK    6  A    between atoms: C_10  and  C_11 
REMARK    7  A    between atoms: C_11  and  N_12 
REMARK       I    between atoms: N_12  and  C_13 
REMARK    8  A    between atoms: C_13  and  C_14 
REMARK    9  A    between atoms: C_18  and  C_19 
ROOT
HETATM    1  C   UNL     1      24.649  47.728  49.807  1.00  0.00     0.217 C 
ENDROOT
BRANCH   1   2
HETATM    2  C   UNL     1      24.856  46.589  50.792  1.00  0.00    -0.085 C 
BRANCH   2   3
HETATM    3  C   UNL     1      25.033  45.611  51.637  1.00  0.00    -0.078 C 
BRANCH   3   4
HETATM    4  C   UNL     1      25.239  44.473  52.623  1.00  0.00     0.269 C 
BRANCH   4   5
HETATM    5  O   UNL     1      25.205  44.969  53.958  1.00  0.00    -0.339 OA
BRANCH   5   6
HETATM    6  C   UNL     1      26.378  45.511  54.422  1.00  0.00     0.072 A 
HETATM    7  C   UNL     1      27.423  44.803  55.030  1.00  0.00     0.066 A 
HETATM    8  C   UNL     1      28.583  45.460  55.454  1.00  0.00     0.037 A 
HETATM    9  C   UNL     1      28.683  46.844  55.271  1.00  0.00     0.029 A 
HETATM   10  C   UNL     1      27.644  47.556  54.671  1.00  0.00     0.005 A 
HETATM   11  C   UNL     1      26.497  46.889  54.247  1.00  0.00     0.037 A 
BRANCH   8  12
HETATM   12  N   UNL     1      29.679  44.806  56.060  1.00  0.00    -0.327 N 
HETATM   13  C   UNL     1      30.482  43.820  55.513  1.00  0.00     0.218 C 
HETATM   14  C   UNL     1      31.568  43.366  56.456  1.00  0.00     0.117 C 
HETATM   15  O   UNL     1      30.399  43.344  54.385  1.00  0.00    -0.274 OA
HETATM   16  H   UNL     1      29.908  45.110  56.998  1.00  0.00     0.169 HD
ENDBRANCH   8  12
ENDBRANCH   5   6
ENDBRANCH   4   5
ENDBRANCH   3   4
ENDBRANCH   2   3
ENDBRANCH   1   2
BRANCH   1  17
HETATM   17  N   UNL     1      23.301  48.216  49.931  1.00  0.00    -0.345 N 
HETATM   18  C   UNL     1      22.649  48.761  48.856  1.00  0.00     0.270 C 
HETATM   19  O   UNL     1      23.187  48.911  47.764  1.00  0.00    -0.266 OA
HETATM   20  H   UNL     1      22.795  48.012  50.780  1.00  0.00     0.163 HD
BRANCH  18  21
HETATM   21  C   UNL     1      21.281  49.134  49.091  1.00  0.00     0.120 A 
HETATM   22  N   UNL     1      20.392  48.265  49.666  1.00  0.00    -0.272 N 
HETATM   23  H   UNL     1      20.584  47.315  49.971  1.00  0.00     0.189 HD
HETATM   24  N   UNL     1      19.159  48.768  49.832  1.00  0.00    -0.173 NA
HETATM   25  C   UNL     1      19.244  50.007  49.332  1.00  0.00     0.096 A 
HETATM   26  C   UNL     1      20.548  50.280  48.853  1.00  0.00     0.071 A 
BRANCH  25  27
HETATM   27  C   UNL     1      18.069  50.940  49.312  1.00  0.00     0.035 A 
HETATM   28  S   UNL     1      16.540  50.557  48.649  1.00  0.00    -0.100 SA
HETATM   29  C   UNL     1      15.909  52.097  49.047  1.00  0.00     0.050 A 
HETATM   30  C   UNL     1      16.846  52.891  49.672  1.00  0.00     0.008 A 
HETATM   31  C   UNL     1      18.095  52.220  49.826  1.00  0.00     0.022 A 
ENDBRANCH  25  27
ENDBRANCH  18  21
ENDBRANCH   1  17
TORSDOF 9
ENDMDL
MODEL 2
REMARK VINA RESULT:      -8.4      1.582      2.173
REMARK  9 active torsions:
REMARK  status: ('A' for Active; 'I' for Inactive)
REMARK       I    between atoms: C_2  and  N_3 
REMARK    1  A    between atoms: N_3  and  C_4 
REMARK    2  A    between atoms: C_6  and  O_7 
REMARK    3  A    between atoms: O_7  and  C_8 
REMARK    4  A    between atoms: C_8  and  C_9 
REMARK    5  A    between atoms: C_9  and  C_10 
REMARK    6  A    between atoms: C_10  and  C_11 
REMARK    7  A    between atoms: C_11  and  N_12 
REMARK       I    between atoms: N_12  and  C_13 
REMARK    8  A    between atoms: C_13  and  C_14 
REMARK    9  A    between atoms: C_18  and  C_19 
ROOT
HETATM    1  C   UNL     1      25.068  47.462  50.086  1.00  0.00     0.217 C 
ENDROOT
BRANCH   1   2
HETATM    2  C   UNL     1      25.263  46.427  51.182  1.00  0.00    -0.085 C 
BRANCH   2   3
HETATM    3  C   UNL     1      25.432  45.539  52.122  1.00  0.00    -0.078 C 
BRANCH   3   4
HETATM    4  C   UNL     1      25.629  44.504  53.218  1.00  0.00     0.269 C 
BRANCH   4   5
HETATM    5  O   UNL     1      26.475  43.455  52.754  1.00  0.00    -0.339 OA
BRANCH   5   6
HETATM    6  C   UNL     1      27.744  43.439  53.277  1.00  0.00     0.072 A 
HETATM    7  C   UNL     1      28.151  44.066  54.460  1.00  0.00     0.066 A 
HETATM    8  C   UNL     1      29.473  43.970  54.907  1.00  0.00     0.037 A 
HETATM    9  C   UNL     1      30.394  43.243  54.143  1.00  0.00     0.029 A 
HETATM   10  C   UNL     1      29.997  42.619  52.959  1.00  0.00     0.005 A 
HETATM   11  C   UNL     1      28.675  42.716  52.531  1.00  0.00     0.037 A 
BRANCH   8  12
HETATM   12  N   UNL     1      29.946  44.566  56.097  1.00  0.00    -0.327 N 
HETATM   13  C   UNL     1      29.543  45.765  56.658  1.00  0.00     0.218 C 
HETATM   14  C   UNL     1      30.263  46.074  57.947  1.00  0.00     0.117 C 
HETATM   15  O   UNL     1      28.682  46.526  56.231  1.00  0.00    -0.274 OA
HETATM   16  H   UNL     1      30.649  44.041  56.602  1.00  0.00     0.169 HD
ENDBRANCH   8  12
ENDBRANCH   5   6
ENDBRANCH   4   5
ENDBRANCH   3   4
ENDBRANCH   2   3
ENDBRANCH   1   2
BRANCH   1  17
HETATM   17  N   UNL     1      23.706  47.925  50.115  1.00  0.00    -0.345 N 
HETATM   18  C   UNL     1      23.186  48.645  49.071  1.00  0.00     0.270 C 
HETATM   19  O   UNL     1      23.857  48.977  48.099  1.00  0.00    -0.266 OA
HETATM   20  H   UNL     1      23.100  47.580  50.844  1.00  0.00     0.163 HD
BRANCH  18  21
HETATM   21  C   UNL     1      21.791  48.974  49.187  1.00  0.00     0.120 A 
HETATM   22  N   UNL     1      20.848  48.013  49.435  1.00  0.00    -0.272 N 
HETATM   23  H   UNL     1      21.014  47.018  49.555  1.00  0.00     0.189 HD
HETATM   24  N   UNL     1      19.594  48.483  49.529  1.00  0.00    -0.173 NA
HETATM   25  C   UNL     1      19.725  49.799  49.319  1.00  0.00     0.096 A 
HETATM   26  C   UNL     1      21.077  50.154  49.096  1.00  0.00     0.071 A 
BRANCH  25  27
HETATM   27  C   UNL     1      18.547  50.729  49.333  1.00  0.00     0.035 A 
HETATM   28  S   UNL     1      16.998  50.338  48.723  1.00  0.00    -0.100 SA
HETATM   29  C   UNL     1      16.376  51.878  49.134  1.00  0.00     0.050 A 
HETATM   30  C   UNL     1      17.329  52.678  49.724  1.00  0.00     0.008 A 
HETATM   31  C   UNL     1      18.585  52.012  49.839  1.00  0.00     0.022 A 
ENDBRANCH  25  27
ENDBRANCH  18  21
ENDBRANCH   1  17
TORSDOF 9
ENDMDL
MODEL 3
REMARK VINA RESULT:      -8.1      1.356      1.505
REMARK  9 active torsions:
REMARK  status: ('A' for Active; 'I' for Inactive)
REMARK       I    between atoms: C_2  and  N_3 
REMARK    1  A    between atoms: N_3  and  C_4 
REMARK    2  A    between atoms: C_6  and  O_7 
REMARK    3  A    between atoms: O_7  and  C_8 
REMARK    4  A    between atoms: C_8  and  C_9 
REMARK    5  A    between atoms: C_9  and  C_10 
REMARK    6  A    between atoms: C_10  and  C_11 
REMARK    7  A    between atoms: C_11  and  N_12 
REMARK       I    between atoms: N_12  and  C_13 
REMARK    8  A    between atoms: C_13  and  C_14 
REMARK    9  A    between atoms: C_18  and  C_19 
ROOT
HETATM    1  C   UNL     1      24.064  48.739  48.942  1.00  0.00     0.217 C 
ENDROOT
BRANCH   1   2
HETATM    2  C   UNL     1      24.452  47.621  49.896  1.00  0.00    -0.085 C 
BRANCH   2   3
HETATM    3  C   UNL     1      24.786  46.662  50.715  1.00  0.00    -0.078 C 
BRANCH   3   4
HETATM    4  C   UNL     1      25.175  45.544  51.668  1.00  0.00     0.269 C 
BRANCH   4   5
HETATM    5  O   UNL     1      25.012  45.972  53.017  1.00  0.00    -0.339 OA
BRANCH   5   6
HETATM    6  C   UNL     1      26.172  46.154  53.729  1.00  0.00     0.072 A 
HETATM    7  C   UNL     1      27.122  45.165  54.012  1.00  0.00     0.066 A 
HETATM    8  C   UNL     1      28.280  45.468  54.736  1.00  0.00     0.037 A 
HETATM    9  C   UNL     1      28.472  46.779  55.188  1.00  0.00     0.029 A 
HETATM   10  C   UNL     1      27.527  47.768  54.915  1.00  0.00     0.005 A 
HETATM   11  C   UNL     1      26.382  47.454  54.185  1.00  0.00     0.037 A 
BRANCH   8  12
HETATM   12  N   UNL     1      29.284  44.523  55.043  1.00  0.00    -0.327 N 
HETATM   13  C   UNL     1      30.266  44.620  56.013  1.00  0.00     0.218 C 
HETATM   14  C   UNL     1      31.158  43.404  56.060  1.00  0.00     0.117 C 
HETATM   15  O   UNL     1      30.434  45.544  56.802  1.00  0.00    -0.274 OA
HETATM   16  H   UNL     1      29.266  43.670  54.497  1.00  0.00     0.169 HD
ENDBRANCH   8  12
ENDBRANCH   5   6
ENDBRANCH   4   5
ENDBRANCH   3   4
ENDBRANCH   2   3
ENDBRANCH   1   2
BRANCH   1  17
HETATM   17  N   UNL     1      22.679  49.070  49.146  1.00  0.00    -0.345 N 
HETATM   18  C   UNL     1      22.311  50.315  49.588  1.00  0.00     0.270 C 
HETATM   19  O   UNL     1      23.129  51.179  49.882  1.00  0.00    -0.266 OA
HETATM   20  H   UNL     1      21.979  48.424  48.814  1.00  0.00     0.163 HD
BRANCH  18  21
HETATM   21  C   UNL     1      20.894  50.543  49.670  1.00  0.00     0.120 A 
HETATM   22  N   UNL     1      20.128  49.944  50.634  1.00  0.00    -0.272 N 
HETATM   23  H   UNL     1      20.451  49.306  51.355  1.00  0.00     0.189 HD
HETATM   24  N   UNL     1      18.827  50.271  50.585  1.00  0.00    -0.173 NA
HETATM   25  C   UNL     1      18.740  51.103  49.540  1.00  0.00     0.096 A 
HETATM   26  C   UNL     1      20.004  51.300  48.933  1.00  0.00     0.071 A 
BRANCH  25  27
HETATM   27  C   UNL     1      17.439  51.718  49.116  1.00  0.00     0.035 A 
HETATM   28  S   UNL     1      16.869  51.763  47.504  1.00  0.00    -0.100 SA
HETATM   29  C   UNL     1      15.441  52.586  47.963  1.00  0.00     0.050 A 
HETATM   30  C   UNL     1      15.398  52.825  49.318  1.00  0.00     0.008 A 
HETATM   31  C   UNL     1      16.553  52.321  49.985  1.00  0.00     0.022 A 
ENDBRANCH  25  27
ENDBRANCH  18  21
ENDBRANCH   1  17
TORSDOF 9
ENDMDL
MODEL 4
REMARK VINA RESULT:      -8.0      4.058     11.407
REMARK  9 active torsions:
REMARK  status: ('A' for Active; 'I' for Inactive)
REMARK       I    between atoms: C_2  and  N_3 
REMARK    1  A    between atoms: N_3  and  C_4 
REMARK    2  A    between atoms: C_6  and  O_7 
REMARK    3  A    between atoms: O_7  and  C_8 
REMARK    4  A    between atoms: C_8  and  C_9 
REMARK    5  A    between atoms: C_9  and  C_10 
REMARK    6  A    between atoms: C_10  and  C_11 
REMARK    7  A    between atoms: C_11  and  N_12 
REMARK       I    between atoms: N_12  and  C_13 
REMARK    8  A    between atoms: C_13  and  C_14 
REMARK    9  A    between atoms: C_18  and  C_19 
ROOT
HETATM    1  C   UNL     1      24.903  42.244  50.688  1.00  0.00     0.217 C 
ENDROOT
BRANCH   1   2
HETATM    2  C   UNL     1      24.382  43.569  50.154  1.00  0.00    -0.085 C 
BRANCH   2   3
HETATM    3  C   UNL     1      23.936  44.706  49.697  1.00  0.00    -0.078 C 
BRANCH   3   4
HETATM    4  C   UNL     1      23.414  46.031  49.165  1.00  0.00     0.269 C 
BRANCH   4   5
HETATM    5  O   UNL     1      23.972  47.111  49.908  1.00  0.00    -0.339 OA
BRANCH   5   6
HETATM    6  C   UNL     1      23.768  48.363  49.383  1.00  0.00     0.072 A 
HETATM    7  C   UNL     1      22.592  49.116  49.494  1.00  0.00     0.066 A 
HETATM    8  C   UNL     1      22.501  50.392  48.930  1.00  0.00     0.037 A 
HETATM    9  C   UNL     1      23.604  50.907  48.238  1.00  0.00     0.029 A 
HETATM   10  C   UNL     1      24.777  50.161  48.118  1.00  0.00     0.005 A 
HETATM   11  C   UNL     1      24.857  48.893  48.692  1.00  0.00     0.037 A 
BRANCH   8  12
HETATM   12  N   UNL     1      21.352  51.209  49.017  1.00  0.00    -0.327 N 
HETATM   13  C   UNL     1      20.267  51.234  48.159  1.00  0.00     0.218 C 
HETATM   14  C   UNL     1      19.216  52.231  48.579  1.00  0.00     0.117 C 
HETATM   15  O   UNL     1      20.095  50.531  47.168  1.00  0.00    -0.274 OA
HETATM   16  H   UNL     1      21.318  51.836  49.812  1.00  0.00     0.169 HD
ENDBRANCH   8  12
ENDBRANCH   5   6
ENDBRANCH   4   5
ENDBRANCH   3   4
ENDBRANCH   2   3
ENDBRANCH   1   2
BRANCH   1  17
HETATM   17  N   UNL     1      25.953  42.500  51.637  1.00  0.00    -0.345 N 
HETATM   18  C   UNL     1      27.261  42.235  51.325  1.00  0.00     0.270 C 
HETATM   19  O   UNL     1      27.597  41.724  50.262  1.00  0.00    -0.266 OA
HETATM   20  H   UNL     1      25.726  43.017  52.473  1.00  0.00     0.163 HD
BRANCH  18  21
HETATM   21  C   UNL     1      28.220  42.614  52.329  1.00  0.00     0.120 A 
HETATM   22  N   UNL     1      29.520  42.190  52.270  1.00  0.00    -0.272 N 
HETATM   23  H   UNL     1      29.933  41.594  51.559  1.00  0.00     0.189 HD
HETATM   24  N   UNL     1      30.292  42.642  53.272  1.00  0.00    -0.173 NA
HETATM   25  C   UNL     1      29.457  43.375  54.019  1.00  0.00     0.096 A 
HETATM   26  C   UNL     1      28.151  43.384  53.473  1.00  0.00     0.071 A 
BRANCH  25  27
HETATM   27  C   UNL     1      29.911  44.076  55.265  1.00  0.00     0.035 A 
HETATM   28  S   UNL     1      29.294  45.575  55.811  1.00  0.00    -0.100 SA
HETATM   29  C   UNL     1      30.323  45.574  57.179  1.00  0.00     0.050 A 
HETATM   30  C   UNL     1      31.124  44.454  57.220  1.00  0.00     0.008 A 
HETATM   31  C   UNL     1      30.884  43.587  56.113  1.00  0.00     0.022 A 
ENDBRANCH  25  27
ENDBRANCH  18  21
ENDBRANCH   1  17
TORSDOF 9
ENDMDL
MODEL 5
REMARK VINA RESULT:      -7.9      2.763      3.288
REMARK  9 active torsions:
REMARK  status: ('A' for Active; 'I' for Inactive)
REMARK       I    between atoms: C_2  and  N_3 
REMARK    1  A    between atoms: N_3  and  C_4 
REMARK    2  A    between atoms: C_6  and  O_7 
REMARK    3  A    between atoms: O_7  and  C_8 
REMARK    4  A    between atoms: C_8  and  C_9 
REMARK    5  A    between atoms: C_9  and  C_10 
REMARK    6  A    between atoms: C_10  and  C_11 
REMARK    7  A    between atoms: C_11  and  N_12 
REMARK       I    between atoms: N_12  and  C_13 
REMARK    8  A    between atoms: C_13  and  C_14 
REMARK    9  A    between atoms: C_18  and  C_19 
ROOT
HETATM    1  C   UNL     1      24.678  47.862  49.876  1.00  0.00     0.217 C 
ENDROOT
BRANCH   1   2
HETATM    2  C   UNL     1      24.882  46.611  50.714  1.00  0.00    -0.085 C 
BRANCH   2   3
HETATM    3  C   UNL     1      25.056  45.536  51.433  1.00  0.00    -0.078 C 
BRANCH   3   4
HETATM    4  C   UNL     1      25.260  44.284  52.269  1.00  0.00     0.269 C 
BRANCH   4   5
HETATM    5  O   UNL     1      26.287  44.500  53.233  1.00  0.00    -0.339 OA
BRANCH   5   6
HETATM    6  C   UNL     1      27.375  43.667  53.140  1.00  0.00     0.072 A 
HETATM    7  C   UNL     1      27.433  42.473  52.412  1.00  0.00     0.066 A 
HETATM    8  C   UNL     1      28.604  41.709  52.377  1.00  0.00     0.037 A 
HETATM    9  C   UNL     1      29.722  42.152  53.093  1.00  0.00     0.029 A 
HETATM   10  C   UNL     1      29.671  43.338  53.826  1.00  0.00     0.005 A 
HETATM   11  C   UNL     1      28.500  44.093  53.846  1.00  0.00     0.037 A 
BRANCH   8  12
HETATM   12  N   UNL     1      28.735  40.504  51.652  1.00  0.00    -0.327 N 
HETATM   13  C   UNL     1      28.354  40.261  50.343  1.00  0.00     0.218 C 
HETATM   14  C   UNL     1      28.664  38.852  49.901  1.00  0.00     0.117 C 
HETATM   15  O   UNL     1      27.847  41.059  49.563  1.00  0.00    -0.274 OA
HETATM   16  H   UNL     1      29.174  39.738  52.148  1.00  0.00     0.169 HD
ENDBRANCH   8  12
ENDBRANCH   5   6
ENDBRANCH   4   5
ENDBRANCH   3   4
ENDBRANCH   2   3
ENDBRANCH   1   2
BRANCH   1  17
HETATM   17  N   UNL     1      23.281  48.206  49.877  1.00  0.00    -0.345 N 
HETATM   18  C   UNL     1      22.865  49.459  49.510  1.00  0.00     0.270 C 
HETATM   19  O   UNL     1      23.649  50.356  49.220  1.00  0.00    -0.266 OA
HETATM   20  H   UNL     1      22.608  47.465  50.004  1.00  0.00     0.163 HD
BRANCH  18  21
HETATM   21  C   UNL     1      21.440  49.647  49.473  1.00  0.00     0.120 A 
HETATM   22  N   UNL     1      20.577  48.587  49.564  1.00  0.00    -0.272 N 
HETATM   23  H   UNL     1      20.828  47.608  49.659  1.00  0.00     0.189 HD
HETATM   24  N   UNL     1      19.280  48.930  49.529  1.00  0.00    -0.173 NA
HETATM   25  C   UNL     1      19.299  50.262  49.394  1.00  0.00     0.096 A 
HETATM   26  C   UNL     1      20.625  50.755  49.350  1.00  0.00     0.071 A 
BRANCH  25  27
HETATM   27  C   UNL     1      18.039  51.072  49.309  1.00  0.00     0.035 A 
HETATM   28  S   UNL     1      16.583  50.526  48.598  1.00  0.00    -0.100 SA
HETATM   29  C   UNL     1      15.787  52.002  48.937  1.00  0.00     0.050 A 
HETATM   30  C   UNL     1      16.615  52.897  49.579  1.00  0.00     0.008 A 
HETATM   31  C   UNL     1      17.917  52.358  49.795  1.00  0.00     0.022 A 
ENDBRANCH  25  27
ENDBRANCH  18  21
ENDBRANCH   1  17
TORSDOF 9
ENDMDL
MODEL 6
REMARK VINA RESULT:      -7.8      4.006     11.785
REMARK  9 active torsions:
REMARK  status: ('A' for Active; 'I' for Inactive)
REMARK       I    between atoms: C_2  and  N_3 
REMARK    1  A    between atoms: N_3  and  C_4 
REMARK    2  A    between atoms: C_6  and  O_7 
REMARK    3  A    between atoms: O_7  and  C_8 
REMARK    4  A    between atoms: C_8  and  C_9 
REMARK    5  A    between atoms: C_9  and  C_10 
REMARK    6  A    between atoms: C_10  and  C_11 
REMARK    7  A    between atoms: C_11  and  N_12 
REMARK       I    between atoms: N_12  and  C_13 
REMARK    8  A    between atoms: C_13  and  C_14 
REMARK    9  A    between atoms: C_18  and  C_19 
ROOT
HETATM    1  C   UNL     1      24.667  45.907  50.788  1.00  0.00     0.217 C 
ENDROOT
BRANCH   1   2
HETATM    2  C   UNL     1      24.394  47.212  50.058  1.00  0.00    -0.085 C 
BRANCH   2   3
HETATM    3  C   UNL     1      24.160  48.331  49.431  1.00  0.00    -0.078 C 
BRANCH   3   4
HETATM    4  C   UNL     1      23.886  49.636  48.701  1.00  0.00     0.269 C 
BRANCH   4   5
HETATM    5  O   UNL     1      23.149  50.521  49.540  1.00  0.00    -0.339 OA
BRANCH   5   6
HETATM    6  C   UNL     1      21.831  50.703  49.201  1.00  0.00     0.072 A 
HETATM    7  C   UNL     1      21.285  50.544  47.922  1.00  0.00     0.066 A 
HETATM    8  C   UNL     1      19.918  50.743  47.695  1.00  0.00     0.037 A 
HETATM    9  C   UNL     1      19.101  51.117  48.768  1.00  0.00     0.029 A 
HETATM   10  C   UNL     1      19.640  51.284  50.045  1.00  0.00     0.005 A 
HETATM   11  C   UNL     1      21.001  51.074  50.258  1.00  0.00     0.037 A 
BRANCH   8  12
HETATM   12  N   UNL     1      19.301  50.585  46.434  1.00  0.00    -0.327 N 
HETATM   13  C   UNL     1      18.711  49.444  45.920  1.00  0.00     0.218 C 
HETATM   14  C   UNL     1      18.139  49.656  44.540  1.00  0.00     0.117 C 
HETATM   15  O   UNL     1      18.598  48.358  46.478  1.00  0.00    -0.274 OA
HETATM   16  H   UNL     1      19.276  51.413  45.851  1.00  0.00     0.169 HD
ENDBRANCH   8  12
ENDBRANCH   5   6
ENDBRANCH   4   5
ENDBRANCH   3   4
ENDBRANCH   2   3
ENDBRANCH   1   2
BRANCH   1  17
HETATM   17  N   UNL     1      25.618  46.147  51.840  1.00  0.00    -0.345 N 
HETATM   18  C   UNL     1      25.629  45.369  52.969  1.00  0.00     0.270 C 
HETATM   19  O   UNL     1      24.808  44.479  53.165  1.00  0.00    -0.266 OA
HETATM   20  H   UNL     1      26.371  46.796  51.665  1.00  0.00     0.163 HD
BRANCH  18  21
HETATM   21  C   UNL     1      26.681  45.660  53.904  1.00  0.00     0.120 A 
HETATM   22  N   UNL     1      27.061  46.947  54.177  1.00  0.00    -0.272 N 
HETATM   23  H   UNL     1      26.670  47.793  53.772  1.00  0.00     0.189 HD
HETATM   24  N   UNL     1      28.046  47.051  55.083  1.00  0.00    -0.173 NA
HETATM   25  C   UNL     1      28.329  45.782  55.401  1.00  0.00     0.096 A 
HETATM   26  C   UNL     1      27.507  44.876  54.688  1.00  0.00     0.071 A 
BRANCH  25  27
HETATM   27  C   UNL     1      29.394  45.428  56.397  1.00  0.00     0.035 A 
HETATM   28  S   UNL     1      30.668  44.326  56.101  1.00  0.00    -0.100 SA
HETATM   29  C   UNL     1      31.312  44.549  57.670  1.00  0.00     0.050 A 
HETATM   30  C   UNL     1      30.572  45.446  58.408  1.00  0.00     0.008 A 
HETATM   31  C   UNL     1      29.463  45.955  57.670  1.00  0.00     0.022 A 
ENDBRANCH  25  27
ENDBRANCH  18  21
ENDBRANCH   1  17
TORSDOF 9
ENDMDL
MODEL 7
REMARK VINA RESULT:      -7.8      3.744      6.446
REMARK  9 active torsions:
REMARK  status: ('A' for Active; 'I' for Inactive)
REMARK       I    between atoms: C_2  and  N_3 
REMARK    1  A    between atoms: N_3  and  C_4 
REMARK    2  A    between atoms: C_6  and  O_7 
REMARK    3  A    between atoms: O_7  and  C_8 
REMARK    4  A    between atoms: C_8  and  C_9 
REMARK    5  A    between atoms: C_9  and  C_10 
REMARK    6  A    between atoms: C_10  and  C_11 
REMARK    7  A    between atoms: C_11  and  N_12 
REMARK       I    between atoms: N_12  and  C_13 
REMARK    8  A    between atoms: C_13  and  C_14 
REMARK    9  A    between atoms: C_18  and  C_19 
ROOT
HETATM    1  C   UNL     1      19.113  50.049  47.209  1.00  0.00     0.217 C 
ENDROOT
BRANCH   1   2
HETATM    2  C   UNL     1      20.501  50.433  47.694  1.00  0.00    -0.085 C 
BRANCH   2   3
HETATM    3  C   UNL     1      21.693  50.763  48.109  1.00  0.00    -0.078 C 
BRANCH   3   4
HETATM    4  C   UNL     1      23.081  51.148  48.593  1.00  0.00     0.269 C 
BRANCH   4   5
HETATM    5  O   UNL     1      24.072  50.576  47.744  1.00  0.00    -0.339 OA
BRANCH   5   6
HETATM    6  C   UNL     1      25.001  49.780  48.365  1.00  0.00     0.072 A 
HETATM    7  C   UNL     1      24.723  48.648  49.141  1.00  0.00     0.066 A 
HETATM    8  C   UNL     1      25.755  47.900  49.717  1.00  0.00     0.037 A 
HETATM    9  C   UNL     1      27.079  48.307  49.516  1.00  0.00     0.029 A 
HETATM   10  C   UNL     1      27.365  49.437  48.749  1.00  0.00     0.005 A 
HETATM   11  C   UNL     1      26.327  50.168  48.174  1.00  0.00     0.037 A 
BRANCH   8  12
HETATM   12  N   UNL     1      25.545  46.742  50.498  1.00  0.00    -0.327 N 
HETATM   13  C   UNL     1      25.313  46.673  51.861  1.00  0.00     0.218 C 
HETATM   14  C   UNL     1      25.120  45.258  52.346  1.00  0.00     0.117 C 
HETATM   15  O   UNL     1      25.228  47.614  52.642  1.00  0.00    -0.274 OA
HETATM   16  H   UNL     1      25.550  45.864  49.992  1.00  0.00     0.169 HD
ENDBRANCH   8  12
ENDBRANCH   5   6
ENDBRANCH   4   5
ENDBRANCH   3   4
ENDBRANCH   2   3
ENDBRANCH   1   2
BRANCH   1  17
HETATM   17  N   UNL     1      18.153  50.973  47.752  1.00  0.00    -0.345 N 
HETATM   18  C   UNL     1      17.553  50.734  48.961  1.00  0.00     0.270 C 
HETATM   19  O   UNL     1      17.755  49.711  49.607  1.00  0.00    -0.266 OA
HETATM   20  H   UNL     1      18.046  51.870  47.302  1.00  0.00     0.163 HD
BRANCH  18  21
HETATM   21  C   UNL     1      16.678  51.775  49.429  1.00  0.00     0.120 A 
HETATM   22  N   UNL     1      15.319  51.612  49.444  1.00  0.00    -0.272 N 
HETATM   23  H   UNL     1      14.802  50.791  49.143  1.00  0.00     0.189 HD
HETATM   24  N   UNL     1      14.643  52.669  49.923  1.00  0.00    -0.173 NA
HETATM   25  C   UNL     1      15.599  53.559  50.217  1.00  0.00     0.096 A 
HETATM   26  C   UNL     1      16.886  53.048  49.921  1.00  0.00     0.071 A 
BRANCH  25  27
HETATM   27  C   UNL     1      15.283  54.910  50.787  1.00  0.00     0.035 A 
HETATM   28  S   UNL     1      14.669  55.177  52.361  1.00  0.00    -0.100 SA
HETATM   29  C   UNL     1      14.626  56.872  52.127  1.00  0.00     0.050 A 
HETATM   30  C   UNL     1      15.069  57.230  50.873  1.00  0.00     0.008 A 
HETATM   31  C   UNL     1      15.450  56.094  50.099  1.00  0.00     0.022 A 
ENDBRANCH  25  27
ENDBRANCH  18  21
ENDBRANCH   1  17
TORSDOF 9
ENDMDL
MODEL 8
REMARK VINA RESULT:      -7.6      2.410      3.400
REMARK  9 active torsions:
REMARK  status: ('A' for Active; 'I' for Inactive)
REMARK       I    between atoms: C_2  and  N_3 
REMARK    1  A    between atoms: N_3  and  C_4 
REMARK    2  A    between atoms: C_6  and  O_7 
REMARK    3  A    between atoms: O_7  and  C_8 
REMARK    4  A    between atoms: C_8  and  C_9 
REMARK    5  A    between atoms: C_9  and  C_10 
REMARK    6  A    between atoms: C_10  and  C_11 
REMARK    7  A    between atoms: C_11  and  N_12 
REMARK       I    between atoms: N_12  and  C_13 
REMARK    8  A    between atoms: C_13  and  C_14 
REMARK    9  A    between atoms: C_18  and  C_19 
ROOT
HETATM    1  C   UNL     1      25.915  47.679  49.911  1.00  0.00     0.217 C 
ENDROOT
BRANCH   1   2
HETATM    2  C   UNL     1      26.003  47.239  51.363  1.00  0.00    -0.085 C 
BRANCH   2   3
HETATM    3  C   UNL     1      26.079  46.861  52.609  1.00  0.00    -0.078 C 
BRANCH   3   4
HETATM    4  C   UNL     1      26.166  46.419  54.061  1.00  0.00     0.269 C 
BRANCH   4   5
HETATM    5  O   UNL     1      27.519  46.135  54.405  1.00  0.00    -0.339 OA
BRANCH   5   6
HETATM    6  C   UNL     1      27.931  44.844  54.186  1.00  0.00     0.072 A 
HETATM    7  C   UNL     1      27.252  43.886  53.423  1.00  0.00     0.066 A 
HETATM    8  C   UNL     1      27.775  42.600  53.254  1.00  0.00     0.037 A 
HETATM    9  C   UNL     1      28.989  42.276  53.871  1.00  0.00     0.029 A 
HETATM   10  C   UNL     1      29.669  43.223  54.638  1.00  0.00     0.005 A 
HETATM   11  C   UNL     1      29.140  44.504  54.791  1.00  0.00     0.037 A 
BRANCH   8  12
HETATM   12  N   UNL     1      27.149  41.592  52.487  1.00  0.00    -0.327 N 
HETATM   13  C   UNL     1      26.960  41.569  51.116  1.00  0.00     0.218 C 
HETATM   14  C   UNL     1      26.262  40.318  50.646  1.00  0.00     0.117 C 
HETATM   15  O   UNL     1      27.322  42.419  50.308  1.00  0.00    -0.274 OA
HETATM   16  H   UNL     1      26.817  40.788  53.005  1.00  0.00     0.169 HD
ENDBRANCH   8  12
ENDBRANCH   5   6
ENDBRANCH   4   5
ENDBRANCH   3   4
ENDBRANCH   2   3
ENDBRANCH   1   2
BRANCH   1  17
HETATM   17  N   UNL     1      24.580  48.141  49.640  1.00  0.00    -0.345 N 
HETATM   18  C   UNL     1      23.595  47.263  49.268  1.00  0.00     0.270 C 
HETATM   19  O   UNL     1      23.806  46.068  49.095  1.00  0.00    -0.266 OA
HETATM   20  H   UNL     1      24.347  49.094  49.876  1.00  0.00     0.163 HD
BRANCH  18  21
HETATM   21  C   UNL     1      22.287  47.840  49.109  1.00  0.00     0.120 A 
HETATM   22  N   UNL     1      21.175  47.057  48.948  1.00  0.00    -0.272 N 
HETATM   23  H   UNL     1      21.147  46.042  48.921  1.00  0.00     0.189 HD
HETATM   24  N   UNL     1      20.029  47.746  48.828  1.00  0.00    -0.173 NA
HETATM   25  C   UNL     1      20.412  49.027  48.898  1.00  0.00     0.096 A 
HETATM   26  C   UNL     1      21.813  49.137  49.069  1.00  0.00     0.071 A 
BRANCH  25  27
HETATM   27  C   UNL     1      19.431  50.158  48.802  1.00  0.00     0.035 A 
HETATM   28  S   UNL     1      19.865  51.805  48.643  1.00  0.00    -0.100 SA
HETATM   29  C   UNL     1      18.228  52.301  48.618  1.00  0.00     0.050 A 
HETATM   30  C   UNL     1      17.365  51.234  48.731  1.00  0.00     0.008 A 
HETATM   31  C   UNL     1      18.062  49.994  48.836  1.00  0.00     0.022 A 
ENDBRANCH  25  27
ENDBRANCH  18  21
ENDBRANCH   1  17
TORSDOF 9
ENDMDL
MODEL 9
REMARK VINA RESULT:      -7.5      4.090     11.309
REMARK  9 active torsions:
REMARK  status: ('A' for Active; 'I' for Inactive)
REMARK       I    between atoms: C_2  and  N_3 
REMARK    1  A    between atoms: N_3  and  C_4 
REMARK    2  A    between atoms: C_6  and  O_7 
REMARK    3  A    between atoms: O_7  and  C_8 
REMARK    4  A    between atoms: C_8  and  C_9 
REMARK    5  A    between atoms: C_9  and  C_10 
REMARK    6  A    between atoms: C_10  and  C_11 
REMARK    7  A    between atoms: C_11  and  N_12 
REMARK       I    between atoms: N_12  and  C_13 
REMARK    8  A    between atoms: C_13  and  C_14 
REMARK    9  A    between atoms: C_18  and  C_19 
ROOT
HETATM    1  C   UNL     1      24.181  45.271  49.744  1.00  0.00     0.217 C 
ENDROOT
BRANCH   1   2
HETATM    2  C   UNL     1      24.118  46.766  49.477  1.00  0.00    -0.085 C 
BRANCH   2   3
HETATM    3  C   UNL     1      24.064  48.048  49.247  1.00  0.00    -0.078 C 
BRANCH   3   4
HETATM    4  C   UNL     1      24.001  49.543  48.978  1.00  0.00     0.269 C 
BRANCH   4   5
HETATM    5  O   UNL     1      22.938  50.130  49.723  1.00  0.00    -0.339 OA
BRANCH   5   6
HETATM    6  C   UNL     1      21.709  50.125  49.113  1.00  0.00     0.072 A 
HETATM    7  C   UNL     1      20.952  48.988  48.804  1.00  0.00     0.066 A 
HETATM    8  C   UNL     1      19.699  49.103  48.192  1.00  0.00     0.037 A 
HETATM    9  C   UNL     1      19.214  50.378  47.880  1.00  0.00     0.029 A 
HETATM   10  C   UNL     1      19.964  51.516  48.179  1.00  0.00     0.005 A 
HETATM   11  C   UNL     1      21.207  51.387  48.796  1.00  0.00     0.037 A 
BRANCH   8  12
HETATM   12  N   UNL     1      18.880  48.000  47.867  1.00  0.00    -0.327 N 
HETATM   13  C   UNL     1      17.880  47.435  48.638  1.00  0.00     0.218 C 
HETATM   14  C   UNL     1      17.206  46.271  47.955  1.00  0.00     0.117 C 
HETATM   15  O   UNL     1      17.507  47.804  49.747  1.00  0.00    -0.274 OA
HETATM   16  H   UNL     1      19.037  47.590  46.954  1.00  0.00     0.169 HD
ENDBRANCH   8  12
ENDBRANCH   5   6
ENDBRANCH   4   5
ENDBRANCH   3   4
ENDBRANCH   2   3
ENDBRANCH   1   2
BRANCH   1  17
HETATM   17  N   UNL     1      25.200  45.012  50.727  1.00  0.00    -0.345 N 
HETATM   18  C   UNL     1      25.108  43.934  51.567  1.00  0.00     0.270 C 
HETATM   19  O   UNL     1      24.143  43.176  51.566  1.00  0.00    -0.266 OA
HETATM   20  H   UNL     1      26.053  45.549  50.682  1.00  0.00     0.163 HD
BRANCH  18  21
HETATM   21  C   UNL     1      26.231  43.741  52.445  1.00  0.00     0.120 A 
HETATM   22  N   UNL     1      26.757  42.498  52.670  1.00  0.00    -0.272 N 
HETATM   23  H   UNL     1      26.434  41.621  52.271  1.00  0.00     0.189 HD
HETATM   24  N   UNL     1      27.812  42.488  53.500  1.00  0.00    -0.173 NA
HETATM   25  C   UNL     1      27.968  43.773  53.841  1.00  0.00     0.096 A 
HETATM   26  C   UNL     1      27.001  44.594  53.211  1.00  0.00     0.071 A 
BRANCH  25  27
HETATM   27  C   UNL     1      29.051  44.224  54.777  1.00  0.00     0.035 A 
HETATM   28  S   UNL     1      30.444  43.308  55.157  1.00  0.00    -0.100 SA
HETATM   29  C   UNL     1      31.036  44.523  56.206  1.00  0.00     0.050 A 
HETATM   30  C   UNL     1      30.188  45.607  56.269  1.00  0.00     0.008 A 
HETATM   31  C   UNL     1      29.040  45.433  55.440  1.00  0.00     0.022 A 
ENDBRANCH  25  27
ENDBRANCH  18  21
ENDBRANCH   1  17
TORSDOF 9
ENDMDL
MODEL 10
REMARK VINA RESULT:      -7.5      5.820     10.063
REMARK  9 active torsions:
REMARK  status: ('A' for Active; 'I' for Inactive)
REMARK       I    between atoms: C_2  and  N_3 
REMARK    1  A    between atoms: N_3  and  C_4 
REMARK    2  A    between atoms: C_6  and  O_7 
REMARK    3  A    between atoms: O_7  and  C_8 
REMARK    4  A    between atoms: C_8  and  C_9 
REMARK    5  A    between atoms: C_9  and  C_10 
REMARK    6  A    between atoms: C_10  and  C_11 
REMARK    7  A    between atoms: C_11  and  N_12 
REMARK       I    between atoms: N_12  and  C_13 
REMARK    8  A    between atoms: C_13  and  C_14 
REMARK    9  A    between atoms: C_18  and  C_19 
ROOT
HETATM    1  C   UNL     1      25.772  39.988  48.745  1.00  0.00     0.217 C 
ENDROOT
BRANCH   1   2
HETATM    2  C   UNL     1      24.657  40.956  48.382  1.00  0.00    -0.085 C 
BRANCH   2   3
HETATM    3  C   UNL     1      23.701  41.786  48.070  1.00  0.00    -0.078 C 
BRANCH   3   4
HETATM    4  C   UNL     1      22.586  42.753  47.708  1.00  0.00     0.269 C 
BRANCH   4   5
HETATM    5  O   UNL     1      22.174  43.480  48.862  1.00  0.00    -0.339 OA
BRANCH   5   6
HETATM    6  C   UNL     1      23.182  44.056  49.594  1.00  0.00     0.072 A 
HETATM    7  C   UNL     1      23.832  45.258  49.288  1.00  0.00     0.066 A 
HETATM    8  C   UNL     1      24.840  45.760  50.118  1.00  0.00     0.037 A 
HETATM    9  C   UNL     1      25.201  45.035  51.260  1.00  0.00     0.029 A 
HETATM   10  C   UNL     1      24.561  43.834  51.569  1.00  0.00     0.005 A 
HETATM   11  C   UNL     1      23.553  43.350  50.738  1.00  0.00     0.037 A 
BRANCH   8  12
HETATM   12  N   UNL     1      25.526  46.971  49.876  1.00  0.00    -0.327 N 
HETATM   13  C   UNL     1      26.834  47.131  49.452  1.00  0.00     0.218 C 
HETATM   14  C   UNL     1      27.219  48.580  49.288  1.00  0.00     0.117 C 
HETATM   15  O   UNL     1      27.636  46.241  49.188  1.00  0.00    -0.274 OA
HETATM   16  H   UNL     1      24.987  47.817  50.016  1.00  0.00     0.169 HD
ENDBRANCH   8  12
ENDBRANCH   5   6
ENDBRANCH   4   5
ENDBRANCH   3   4
ENDBRANCH   2   3
ENDBRANCH   1   2
BRANCH   1  17
HETATM   17  N   UNL     1      26.341  40.380  50.007  1.00  0.00    -0.345 N 
HETATM   18  C   UNL     1      27.333  41.324  50.067  1.00  0.00     0.270 C 
HETATM   19  O   UNL     1      27.818  41.837  49.065  1.00  0.00    -0.266 OA
HETATM   20  H   UNL     1      25.894  40.059  50.853  1.00  0.00     0.163 HD
BRANCH  18  21
HETATM   21  C   UNL     1      27.756  41.685  51.393  1.00  0.00     0.120 A 
HETATM   22  N   UNL     1      27.538  40.859  52.463  1.00  0.00    -0.272 N 
HETATM   23  H   UNL     1      27.078  39.954  52.446  1.00  0.00     0.189 HD
HETATM   24  N   UNL     1      28.006  41.333  53.629  1.00  0.00    -0.173 NA
HETATM   25  C   UNL     1      28.536  42.520  53.307  1.00  0.00     0.096 A 
HETATM   26  C   UNL     1      28.400  42.786  51.924  1.00  0.00     0.071 A 
BRANCH  25  27
HETATM   27  C   UNL     1      29.180  43.408  54.331  1.00  0.00     0.035 A 
HETATM   28  S   UNL     1      28.586  44.946  54.788  1.00  0.00    -0.100 SA
HETATM   29  C   UNL     1      29.863  45.179  55.903  1.00  0.00     0.050 A 
HETATM   30  C   UNL     1      30.728  44.107  55.927  1.00  0.00     0.008 A 
HETATM   31  C   UNL     1      30.331  43.083  55.018  1.00  0.00     0.022 A 
ENDBRANCH  25  27
ENDBRANCH  18  21
ENDBRANCH   1  17
TORSDOF 9
ENDMDL
