MODEL 1
REMARK VINA RESULT:      -8.5      0.000      0.000
REMARK  5 active torsions:
REMARK  status: ('A' for Active; 'I' for Inactive)
REMARK    1  A    between atoms: C_8  and  N_9 
REMARK       I    between atoms: N_9  and  C_10 
REMARK    2  A    between atoms: C_10  and  C_11 
REMARK    3  A    between atoms: C_11  and  N_12 
REMARK    4  A    between atoms: N_12  and  C_13 
REMARK    5  A    between atoms: C_13  and  C_14 
ROOT
HETATM    1  C   UNL     1      25.348  45.518  51.512  1.00  0.00     0.372 C 
ENDROOT
BRANCH   1   2
HETATM    2  C   UNL     1      25.510  46.247  50.169  1.00  0.00     0.250 C 
HETATM    3  N   UNL     1      25.178  47.583  50.255  1.00  0.00    -0.322 N 
HETATM    4  H   UNL     1      24.890  47.882  51.183  1.00  0.00     0.169 HD
HETATM    5  O   UNL     1      25.918  45.648  49.181  1.00  0.00    -0.271 OA
BRANCH   3   6
HETATM    6  C   UNL     1      25.159  48.528  49.248  1.00  0.00     0.085 A 
HETATM    7  C   UNL     1      26.317  49.146  48.815  1.00  0.00     0.052 A 
HETATM    8  C   UNL     1      27.736  49.018  49.223  1.00  0.00     0.072 C 
HETATM    9  N   UNL     1      25.934  50.018  47.836  1.00  0.00    -0.280 N 
HETATM   10  H   UNL     1      26.516  50.645  47.292  1.00  0.00     0.189 HD
HETATM   11  N   UNL     1      24.620  50.019  47.599  1.00  0.00    -0.177 NA
HETATM   12  C   UNL     1      24.127  49.108  48.453  1.00  0.00     0.079 A 
HETATM   13  C   UNL     1      22.662  48.863  48.436  1.00  0.00     0.075 C 
ENDBRANCH   3   6
ENDBRANCH   1   2
BRANCH   1  14
HETATM   14  N   UNL     1      26.674  45.159  52.080  1.00  0.00     0.100 N 
HETATM   15  H   UNL     1      27.369  45.739  51.601  1.00  0.00     0.317 HD
BRANCH  14  16
HETATM   16  C   UNL     1      26.747  45.490  53.516  1.00  0.00     0.250 C 
HETATM   17  C   UNL     1      26.657  47.012  53.674  1.00  0.00     0.048 C 
BRANCH  16  18
HETATM   18  C   UNL     1      28.009  44.977  54.191  1.00  0.00    -0.024 A 
HETATM   19  C   UNL     1      28.553  45.621  55.318  1.00  0.00     0.036 A 
HETATM   20  C   UNL     1      29.703  45.121  55.933  1.00  0.00     0.073 A 
HETATM   21 CL   UNL     1      30.349  45.932  57.306  1.00  0.00    -0.081 Cl
HETATM   22  C   UNL     1      30.314  43.975  55.433  1.00  0.00     0.138 A 
HETATM   23  F   UNL     1      31.416  43.474  56.011  1.00  0.00    -0.204 F 
HETATM   24  C   UNL     1      29.788  43.320  54.323  1.00  0.00     0.044 A 
HETATM   25  C   UNL     1      28.639  43.819  53.704  1.00  0.00     0.012 A 
ENDBRANCH  16  18
ENDBRANCH  14  16
ENDBRANCH   1  14
TORSDOF 5
ENDMDL
MODEL 2
REMARK VINA RESULT:      -8.2      3.859      5.313
REMARK  5 active torsions:
REMARK  status: ('A' for Active; 'I' for Inactive)
REMARK    1  A    between atoms: C_8  and  N_9 
REMARK       I    between atoms: N_9  and  C_10 
REMARK    2  A    between atoms: C_10  and  C_11 
REMARK    3  A    between atoms: C_11  and  N_12 
REMARK    4  A    between atoms: N_12  and  C_13 
REMARK    5  A    between atoms: C_13  and  C_14 
ROOT
HETATM    1  C   UNL     1      25.447  45.044  52.927  1.00  0.00     0.372 C 
ENDROOT
BRANCH   1   2
HETATM    2  C   UNL     1      25.499  43.732  52.129  1.00  0.00     0.250 C 
HETATM    3  N   UNL     1      26.774  43.212  52.060  1.00  0.00    -0.322 N 
HETATM    4  H   UNL     1      27.476  43.760  52.550  1.00  0.00     0.169 HD
HETATM    5  O   UNL     1      24.475  43.250  51.657  1.00  0.00    -0.271 OA
BRANCH   3   6
HETATM    6  C   UNL     1      27.204  42.081  51.393  1.00  0.00     0.085 A 
HETATM    7  C   UNL     1      27.917  41.088  52.040  1.00  0.00     0.052 A 
HETATM    8  C   UNL     1      28.380  40.935  53.439  1.00  0.00     0.072 C 
HETATM    9  N   UNL     1      28.186  40.142  51.093  1.00  0.00    -0.280 N 
HETATM   10  H   UNL     1      28.694  39.271  51.202  1.00  0.00     0.189 HD
HETATM   11  N   UNL     1      27.708  40.439  49.882  1.00  0.00    -0.177 NA
HETATM   12  C   UNL     1      27.098  41.624  50.046  1.00  0.00     0.079 A 
HETATM   13  C   UNL     1      26.446  42.239  48.863  1.00  0.00     0.075 C 
ENDBRANCH   3   6
ENDBRANCH   1   2
BRANCH   1  14
HETATM   14  N   UNL     1      26.815  45.587  53.138  1.00  0.00     0.100 N 
HETATM   15  H   UNL     1      26.885  46.440  52.575  1.00  0.00     0.317 HD
BRANCH  14  16
HETATM   16  C   UNL     1      27.024  45.978  54.546  1.00  0.00     0.250 C 
HETATM   17  C   UNL     1      27.004  47.508  54.638  1.00  0.00     0.048 C 
BRANCH  16  18
HETATM   18  C   UNL     1      28.319  45.444  55.135  1.00  0.00    -0.024 A 
HETATM   19  C   UNL     1      28.877  45.996  56.304  1.00  0.00     0.036 A 
HETATM   20  C   UNL     1      30.059  45.477  56.837  1.00  0.00     0.073 A 
HETATM   21 CL   UNL     1      30.720  46.176  58.264  1.00  0.00    -0.081 Cl
HETATM   22  C   UNL     1      30.688  44.403  56.215  1.00  0.00     0.138 A 
HETATM   23  F   UNL     1      31.820  43.886  56.714  1.00  0.00    -0.204 F 
HETATM   24  C   UNL     1      30.149  43.839  55.062  1.00  0.00     0.044 A 
HETATM   25  C   UNL     1      28.968  44.358  54.524  1.00  0.00     0.012 A 
ENDBRANCH  16  18
ENDBRANCH  14  16
ENDBRANCH   1  14
TORSDOF 5
ENDMDL
MODEL 3
REMARK VINA RESULT:      -8.2      2.266      3.634
REMARK  5 active torsions:
REMARK  status: ('A' for Active; 'I' for Inactive)
REMARK    1  A    between atoms: C_8  and  N_9 
REMARK       I    between atoms: N_9  and  C_10 
REMARK    2  A    between atoms: C_10  and  C_11 
REMARK    3  A    between atoms: C_11  and  N_12 
REMARK    4  A    between atoms: N_12  and  C_13 
REMARK    5  A    between atoms: C_13  and  C_14 
ROOT
HETATM    1  C   UNL     1      27.597  42.711  51.363  1.00  0.00     0.372 C 
ENDROOT
BRANCH   1   2
HETATM    2  C   UNL     1      26.790  43.556  50.365  1.00  0.00     0.250 C 
HETATM    3  N   UNL     1      25.981  44.479  50.994  1.00  0.00    -0.322 N 
HETATM    4  H   UNL     1      26.047  44.470  52.008  1.00  0.00     0.169 HD
HETATM    5  O   UNL     1      26.921  43.387  49.158  1.00  0.00    -0.271 OA
BRANCH   3   6
HETATM    6  C   UNL     1      25.090  45.368  50.424  1.00  0.00     0.085 A 
HETATM    7  C   UNL     1      23.817  44.976  50.052  1.00  0.00     0.052 A 
HETATM    8  C   UNL     1      23.104  43.680  50.129  1.00  0.00     0.072 C 
HETATM    9  N   UNL     1      23.224  46.085  49.521  1.00  0.00    -0.280 N 
HETATM   10  H   UNL     1      22.288  46.174  49.140  1.00  0.00     0.189 HD
HETATM   11  N   UNL     1      24.007  47.166  49.515  1.00  0.00    -0.177 NA
HETATM   12  C   UNL     1      25.156  46.748  50.070  1.00  0.00     0.079 A 
HETATM   13  C   UNL     1      26.256  47.734  50.216  1.00  0.00     0.075 C 
ENDBRANCH   3   6
ENDBRANCH   1   2
BRANCH   1  14
HETATM   14  N   UNL     1      28.587  43.553  52.086  1.00  0.00     0.100 N 
HETATM   15  H   UNL     1      28.062  44.312  52.530  1.00  0.00     0.317 HD
BRANCH  14  16
HETATM   16  C   UNL     1      29.249  42.793  53.164  1.00  0.00     0.250 C 
HETATM   17  C   UNL     1      28.339  41.630  53.575  1.00  0.00     0.048 C 
BRANCH  16  18
HETATM   18  C   UNL     1      29.584  43.639  54.382  1.00  0.00    -0.024 A 
HETATM   19  C   UNL     1      30.607  43.269  55.275  1.00  0.00     0.036 A 
HETATM   20  C   UNL     1      30.909  44.071  56.377  1.00  0.00     0.073 A 
HETATM   21 CL   UNL     1      32.163  43.591  57.454  1.00  0.00    -0.081 Cl
HETATM   22  C   UNL     1      30.199  45.248  56.593  1.00  0.00     0.138 A 
HETATM   23  F   UNL     1      30.477  46.036  57.643  1.00  0.00    -0.204 F 
HETATM   24  C   UNL     1      29.187  45.635  55.720  1.00  0.00     0.044 A 
HETATM   25  C   UNL     1      28.881  44.833  54.617  1.00  0.00     0.012 A 
ENDBRANCH  16  18
ENDBRANCH  14  16
ENDBRANCH   1  14
TORSDOF 5
ENDMDL
MODEL 4
REMARK VINA RESULT:      -8.0      2.567      3.422
REMARK  5 active torsions:
REMARK  status: ('A' for Active; 'I' for Inactive)
REMARK    1  A    between atoms: C_8  and  N_9 
REMARK       I    between atoms: N_9  and  C_10 
REMARK    2  A    between atoms: C_10  and  C_11 
REMARK    3  A    between atoms: C_11  and  N_12 
REMARK    4  A    between atoms: N_12  and  C_13 
REMARK    5  A    between atoms: C_13  and  C_14 
ROOT
HETATM    1  C   UNL     1      27.476  42.477  51.531  1.00  0.00     0.372 C 
ENDROOT
BRANCH   1   2
HETATM    2  C   UNL     1      26.877  43.568  50.630  1.00  0.00     0.250 C 
HETATM    3  N   UNL     1      25.923  44.320  51.283  1.00  0.00    -0.322 N 
HETATM    4  H   UNL     1      25.770  44.051  52.251  1.00  0.00     0.169 HD
HETATM    5  O   UNL     1      27.270  43.710  49.478  1.00  0.00    -0.271 OA
BRANCH   3   6
HETATM    6  C   UNL     1      25.148  45.347  50.780  1.00  0.00     0.085 A 
HETATM    7  C   UNL     1      25.073  46.573  51.414  1.00  0.00     0.052 A 
HETATM    8  C   UNL     1      25.702  47.106  52.645  1.00  0.00     0.072 C 
HETATM    9  N   UNL     1      24.222  47.332  50.663  1.00  0.00    -0.280 N 
HETATM   10  H   UNL     1      23.926  48.289  50.824  1.00  0.00     0.189 HD
HETATM   11  N   UNL     1      23.734  46.699  49.593  1.00  0.00    -0.177 NA
HETATM   12  C   UNL     1      24.294  45.480  49.645  1.00  0.00     0.079 A 
HETATM   13  C   UNL     1      23.952  44.513  48.571  1.00  0.00     0.075 C 
ENDBRANCH   3   6
ENDBRANCH   1   2
BRANCH   1  14
HETATM   14  N   UNL     1      28.864  42.829  51.932  1.00  0.00     0.100 N 
HETATM   15  H   UNL     1      28.902  43.850  52.003  1.00  0.00     0.317 HD
BRANCH  14  16
HETATM   16  C   UNL     1      29.189  42.288  53.266  1.00  0.00     0.250 C 
HETATM   17  C   UNL     1      28.006  41.443  53.753  1.00  0.00     0.048 C 
BRANCH  16  18
HETATM   18  C   UNL     1      29.511  43.362  54.292  1.00  0.00    -0.024 A 
HETATM   19  C   UNL     1      28.739  44.534  54.395  1.00  0.00     0.036 A 
HETATM   20  C   UNL     1      29.043  45.499  55.358  1.00  0.00     0.073 A 
HETATM   21 CL   UNL     1      28.084  46.925  55.458  1.00  0.00    -0.081 Cl
HETATM   22  C   UNL     1      30.113  45.301  56.225  1.00  0.00     0.138 A 
HETATM   23  F   UNL     1      30.419  46.213  57.160  1.00  0.00    -0.204 F 
HETATM   24  C   UNL     1      30.885  44.146  56.143  1.00  0.00     0.044 A 
HETATM   25  C   UNL     1      30.585  43.180  55.179  1.00  0.00     0.012 A 
ENDBRANCH  16  18
ENDBRANCH  14  16
ENDBRANCH   1  14
TORSDOF 5
ENDMDL
MODEL 5
REMARK VINA RESULT:      -7.8      4.220      5.167
REMARK  5 active torsions:
REMARK  status: ('A' for Active; 'I' for Inactive)
REMARK    1  A    between atoms: C_8  and  N_9 
REMARK       I    between atoms: N_9  and  C_10 
REMARK    2  A    between atoms: C_10  and  C_11 
REMARK    3  A    between atoms: C_11  and  N_12 
REMARK    4  A    between atoms: N_12  and  C_13 
REMARK    5  A    between atoms: C_13  and  C_14 
ROOT
HETATM    1  C   UNL     1      26.257  44.233  53.048  1.00  0.00     0.372 C 
ENDROOT
BRANCH   1   2
HETATM    2  C   UNL     1      26.018  43.836  51.583  1.00  0.00     0.250 C 
HETATM    3  N   UNL     1      25.326  42.648  51.469  1.00  0.00    -0.322 N 
HETATM    4  H   UNL     1      25.073  42.225  52.358  1.00  0.00     0.169 HD
HETATM    5  O   UNL     1      26.406  44.557  50.671  1.00  0.00    -0.271 OA
BRANCH   3   6
HETATM    6  C   UNL     1      24.976  41.966  50.320  1.00  0.00     0.085 A 
HETATM    7  C   UNL     1      25.684  40.856  49.895  1.00  0.00     0.052 A 
HETATM    8  C   UNL     1      26.862  40.146  50.445  1.00  0.00     0.072 C 
HETATM    9  N   UNL     1      25.082  40.448  48.739  1.00  0.00    -0.280 N 
HETATM   10  H   UNL     1      25.331  39.665  48.144  1.00  0.00     0.189 HD
HETATM   11  N   UNL     1      24.042  41.203  48.376  1.00  0.00    -0.177 NA
HETATM   12  C   UNL     1      23.958  42.138  49.336  1.00  0.00     0.079 A 
HETATM   13  C   UNL     1      22.878  43.150  49.226  1.00  0.00     0.075 C 
ENDBRANCH   3   6
ENDBRANCH   1   2
BRANCH   1  14
HETATM   14  N   UNL     1      27.310  43.380  53.660  1.00  0.00     0.100 N 
HETATM   15  H   UNL     1      27.321  42.500  53.135  1.00  0.00     0.317 HD
BRANCH  14  16
HETATM   16  C   UNL     1      28.645  43.991  53.512  1.00  0.00     0.250 C 
HETATM   17  C   UNL     1      29.567  42.990  52.804  1.00  0.00     0.048 C 
BRANCH  16  18
HETATM   18  C   UNL     1      29.265  44.415  54.833  1.00  0.00    -0.024 A 
HETATM   19  C   UNL     1      30.367  43.732  55.382  1.00  0.00     0.036 A 
HETATM   20  C   UNL     1      30.931  44.151  56.588  1.00  0.00     0.073 A 
HETATM   21 CL   UNL     1      32.275  43.293  57.236  1.00  0.00    -0.081 Cl
HETATM   22  C   UNL     1      30.406  45.255  57.253  1.00  0.00     0.138 A 
HETATM   23  F   UNL     1      30.936  45.677  58.410  1.00  0.00    -0.204 F 
HETATM   24  C   UNL     1      29.320  45.948  56.725  1.00  0.00     0.044 A 
HETATM   25  C   UNL     1      28.752  45.529  55.519  1.00  0.00     0.012 A 
ENDBRANCH  16  18
ENDBRANCH  14  16
ENDBRANCH   1  14
TORSDOF 5
ENDMDL
MODEL 6
REMARK VINA RESULT:      -7.8      4.646      5.883
REMARK  5 active torsions:
REMARK  status: ('A' for Active; 'I' for Inactive)
REMARK    1  A    between atoms: C_8  and  N_9 
REMARK       I    between atoms: N_9  and  C_10 
REMARK    2  A    between atoms: C_10  and  C_11 
REMARK    3  A    between atoms: C_11  and  N_12 
REMARK    4  A    between atoms: N_12  and  C_13 
REMARK    5  A    between atoms: C_13  and  C_14 
ROOT
HETATM    1  C   UNL     1      26.187  43.590  52.655  1.00  0.00     0.372 C 
ENDROOT
BRANCH   1   2
HETATM    2  C   UNL     1      26.286  43.077  51.210  1.00  0.00     0.250 C 
HETATM    3  N   UNL     1      25.758  41.811  51.067  1.00  0.00    -0.322 N 
HETATM    4  H   UNL     1      25.378  41.418  51.923  1.00  0.00     0.169 HD
HETATM    5  O   UNL     1      26.771  43.781  50.332  1.00  0.00    -0.271 OA
BRANCH   3   6
HETATM    6  C   UNL     1      25.716  41.023  49.933  1.00  0.00     0.085 A 
HETATM    7  C   UNL     1      24.688  41.133  49.014  1.00  0.00     0.052 A 
HETATM    8  C   UNL     1      23.486  41.997  48.952  1.00  0.00     0.072 C 
HETATM    9  N   UNL     1      24.954  40.211  48.042  1.00  0.00    -0.280 N 
HETATM   10  H   UNL     1      24.415  40.006  47.208  1.00  0.00     0.189 HD
HETATM   11  N   UNL     1      26.069  39.508  48.256  1.00  0.00    -0.177 NA
HETATM   12  C   UNL     1      26.553  39.994  49.409  1.00  0.00     0.079 A 
HETATM   13  C   UNL     1      27.816  39.413  49.931  1.00  0.00     0.075 C 
ENDBRANCH   3   6
ENDBRANCH   1   2
BRANCH   1  14
HETATM   14  N   UNL     1      27.186  42.913  53.524  1.00  0.00     0.100 N 
HETATM   15  H   UNL     1      27.188  41.924  53.259  1.00  0.00     0.317 HD
BRANCH  14  16
HETATM   16  C   UNL     1      28.546  43.432  53.279  1.00  0.00     0.250 C 
HETATM   17  C   UNL     1      29.442  42.269  52.836  1.00  0.00     0.048 C 
BRANCH  16  18
HETATM   18  C   UNL     1      29.157  44.121  54.488  1.00  0.00    -0.024 A 
HETATM   19  C   UNL     1      30.208  43.532  55.216  1.00  0.00     0.036 A 
HETATM   20  C   UNL     1      30.766  44.192  56.313  1.00  0.00     0.073 A 
HETATM   21 CL   UNL     1      32.048  43.445  57.186  1.00  0.00    -0.081 Cl
HETATM   22  C   UNL     1      30.285  45.442  56.688  1.00  0.00     0.138 A 
HETATM   23  F   UNL     1      30.811  46.096  57.735  1.00  0.00    -0.204 F 
HETATM   24  C   UNL     1      29.250  46.044  55.979  1.00  0.00     0.044 A 
HETATM   25  C   UNL     1      28.688  45.385  54.882  1.00  0.00     0.012 A 
ENDBRANCH  16  18
ENDBRANCH  14  16
ENDBRANCH   1  14
TORSDOF 5
ENDMDL
MODEL 7
REMARK VINA RESULT:      -7.8      3.424      5.890
REMARK  5 active torsions:
REMARK  status: ('A' for Active; 'I' for Inactive)
REMARK    1  A    between atoms: C_8  and  N_9 
REMARK       I    between atoms: N_9  and  C_10 
REMARK    2  A    between atoms: C_10  and  C_11 
REMARK    3  A    between atoms: C_11  and  N_12 
REMARK    4  A    between atoms: N_12  and  C_13 
REMARK    5  A    between atoms: C_13  and  C_14 
ROOT
HETATM    1  C   UNL     1      25.324  44.494  50.990  1.00  0.00     0.372 C 
ENDROOT
BRANCH   1   2
HETATM    2  C   UNL     1      26.465  43.633  50.424  1.00  0.00     0.250 C 
HETATM    3  N   UNL     1      26.478  42.363  50.962  1.00  0.00    -0.322 N 
HETATM    4  H   UNL     1      25.736  42.186  51.634  1.00  0.00     0.169 HD
HETATM    5  O   UNL     1      27.223  44.086  49.574  1.00  0.00    -0.271 OA
BRANCH   3   6
HETATM    6  C   UNL     1      27.378  41.342  50.726  1.00  0.00     0.085 A 
HETATM    7  C   UNL     1      28.127  40.790  51.749  1.00  0.00     0.052 A 
HETATM    8  C   UNL     1      28.200  41.067  53.203  1.00  0.00     0.072 C 
HETATM    9  N   UNL     1      28.907  39.831  51.167  1.00  0.00    -0.280 N 
HETATM   10  H   UNL     1      29.586  39.221  51.609  1.00  0.00     0.189 HD
HETATM   11  N   UNL     1      28.728  39.717  49.849  1.00  0.00    -0.177 NA
HETATM   12  C   UNL     1      27.790  40.633  49.560  1.00  0.00     0.079 A 
HETATM   13  C   UNL     1      27.355  40.758  48.146  1.00  0.00     0.075 C 
ENDBRANCH   3   6
ENDBRANCH   1   2
BRANCH   1  14
HETATM   14  N   UNL     1      25.290  44.414  52.474  1.00  0.00     0.100 N 
HETATM   15  H   UNL     1      26.075  43.819  52.757  1.00  0.00     0.317 HD
BRANCH  14  16
HETATM   16  C   UNL     1      25.506  45.739  53.086  1.00  0.00     0.250 C 
HETATM   17  C   UNL     1      25.575  46.789  51.970  1.00  0.00     0.048 C 
BRANCH  16  18
HETATM   18  C   UNL     1      26.762  45.813  53.939  1.00  0.00    -0.024 A 
HETATM   19  C   UNL     1      27.709  44.772  53.945  1.00  0.00     0.036 A 
HETATM   20  C   UNL     1      28.864  44.870  54.724  1.00  0.00     0.073 A 
HETATM   21 CL   UNL     1      30.002  43.579  54.714  1.00  0.00    -0.081 Cl
HETATM   22  C   UNL     1      29.085  46.006  55.496  1.00  0.00     0.138 A 
HETATM   23  F   UNL     1      30.190  46.123  56.248  1.00  0.00    -0.204 F 
HETATM   24  C   UNL     1      28.164  47.049  55.501  1.00  0.00     0.044 A 
HETATM   25  C   UNL     1      27.006  46.953  54.724  1.00  0.00     0.012 A 
ENDBRANCH  16  18
ENDBRANCH  14  16
ENDBRANCH   1  14
TORSDOF 5
ENDMDL
MODEL 8
REMARK VINA RESULT:      -7.8      2.445      3.644
REMARK  5 active torsions:
REMARK  status: ('A' for Active; 'I' for Inactive)
REMARK    1  A    between atoms: C_8  and  N_9 
REMARK       I    between atoms: N_9  and  C_10 
REMARK    2  A    between atoms: C_10  and  C_11 
REMARK    3  A    between atoms: C_11  and  N_12 
REMARK    4  A    between atoms: N_12  and  C_13 
REMARK    5  A    between atoms: C_13  and  C_14 
ROOT
HETATM    1  C   UNL     1      25.996  42.106  50.770  1.00  0.00     0.372 C 
ENDROOT
BRANCH   1   2
HETATM    2  C   UNL     1      25.020  43.285  50.911  1.00  0.00     0.250 C 
HETATM    3  N   UNL     1      25.451  44.406  50.234  1.00  0.00    -0.322 N 
HETATM    4  H   UNL     1      26.333  44.283  49.742  1.00  0.00     0.169 HD
HETATM    5  O   UNL     1      23.981  43.159  51.549  1.00  0.00    -0.271 OA
BRANCH   3   6
HETATM    6  C   UNL     1      24.861  45.653  50.175  1.00  0.00     0.085 A 
HETATM    7  C   UNL     1      23.798  45.910  49.328  1.00  0.00     0.052 A 
HETATM    8  C   UNL     1      23.061  45.066  48.359  1.00  0.00     0.072 C 
HETATM    9  N   UNL     1      23.478  47.224  49.517  1.00  0.00    -0.280 N 
HETATM   10  H   UNL     1      22.749  47.763  49.062  1.00  0.00     0.189 HD
HETATM   11  N   UNL     1      24.247  47.843  50.416  1.00  0.00    -0.177 NA
HETATM   12  C   UNL     1      25.099  46.895  50.835  1.00  0.00     0.079 A 
HETATM   13  C   UNL     1      26.103  47.269  51.863  1.00  0.00     0.075 C 
ENDBRANCH   3   6
ENDBRANCH   1   2
BRANCH   1  14
HETATM   14  N   UNL     1      26.653  41.808  52.071  1.00  0.00     0.100 N 
HETATM   15  H   UNL     1      26.505  40.811  52.255  1.00  0.00     0.317 HD
BRANCH  14  16
HETATM   16  C   UNL     1      28.111  42.025  51.996  1.00  0.00     0.250 C 
HETATM   17  C   UNL     1      28.813  40.663  52.043  1.00  0.00     0.048 C 
BRANCH  16  18
HETATM   18  C   UNL     1      28.646  42.919  53.102  1.00  0.00    -0.024 A 
HETATM   19  C   UNL     1      27.972  44.092  53.490  1.00  0.00     0.036 A 
HETATM   20  C   UNL     1      28.473  44.889  54.522  1.00  0.00     0.073 A 
HETATM   21 CL   UNL     1      27.630  46.320  54.971  1.00  0.00    -0.081 Cl
HETATM   22  C   UNL     1      29.644  44.519  55.176  1.00  0.00     0.138 A 
HETATM   23  F   UNL     1      30.140  45.267  56.173  1.00  0.00    -0.204 F 
HETATM   24  C   UNL     1      30.323  43.360  54.812  1.00  0.00     0.044 A 
HETATM   25  C   UNL     1      29.825  42.563  53.778  1.00  0.00     0.012 A 
ENDBRANCH  16  18
ENDBRANCH  14  16
ENDBRANCH   1  14
TORSDOF 5
ENDMDL
MODEL 9
REMARK VINA RESULT:      -7.7      2.504      3.649
REMARK  5 active torsions:
REMARK  status: ('A' for Active; 'I' for Inactive)
REMARK    1  A    between atoms: C_8  and  N_9 
REMARK       I    between atoms: N_9  and  C_10 
REMARK    2  A    between atoms: C_10  and  C_11 
REMARK    3  A    between atoms: C_11  and  N_12 
REMARK    4  A    between atoms: N_12  and  C_13 
REMARK    5  A    between atoms: C_13  and  C_14 
ROOT
HETATM    1  C   UNL     1      27.814  44.215  51.342  1.00  0.00     0.372 C 
ENDROOT
BRANCH   1   2
HETATM    2  C   UNL     1      26.659  44.164  50.330  1.00  0.00     0.250 C 
HETATM    3  N   UNL     1      25.583  44.931  50.726  1.00  0.00    -0.322 N 
HETATM    4  H   UNL     1      25.718  45.415  51.609  1.00  0.00     0.169 HD
HETATM    5  O   UNL     1      26.764  43.514  49.297  1.00  0.00    -0.271 OA
BRANCH   3   6
HETATM    6  C   UNL     1      24.363  45.086  50.097  1.00  0.00     0.085 A 
HETATM    7  C   UNL     1      23.913  46.329  49.689  1.00  0.00     0.052 A 
HETATM    8  C   UNL     1      24.500  47.686  49.778  1.00  0.00     0.072 C 
HETATM    9  N   UNL     1      22.687  46.118  49.127  1.00  0.00    -0.280 N 
HETATM   10  H   UNL     1      22.058  46.801  48.720  1.00  0.00     0.189 HD
HETATM   11  N   UNL     1      22.301  44.840  49.137  1.00  0.00    -0.177 NA
HETATM   12  C   UNL     1      23.318  44.189  49.724  1.00  0.00     0.079 A 
HETATM   13  C   UNL     1      23.200  42.718  49.888  1.00  0.00     0.075 C 
ENDBRANCH   3   6
ENDBRANCH   1   2
BRANCH   1  14
HETATM   14  N   UNL     1      27.559  43.291  52.479  1.00  0.00     0.100 N 
HETATM   15  H   UNL     1      27.060  42.482  52.098  1.00  0.00     0.317 HD
BRANCH  14  16
HETATM   16  C   UNL     1      28.823  42.790  53.055  1.00  0.00     0.250 C 
HETATM   17  C   UNL     1      28.626  41.328  53.471  1.00  0.00     0.048 C 
BRANCH  16  18
HETATM   18  C   UNL     1      29.309  43.603  54.243  1.00  0.00    -0.024 A 
HETATM   19  C   UNL     1      30.367  43.155  55.056  1.00  0.00     0.036 A 
HETATM   20  C   UNL     1      30.810  43.927  56.132  1.00  0.00     0.073 A 
HETATM   21 CL   UNL     1      32.102  43.351  57.111  1.00  0.00    -0.081 Cl
HETATM   22  C   UNL     1      30.205  45.151  56.402  1.00  0.00     0.138 A 
HETATM   23  F   UNL     1      30.618  45.911  57.427  1.00  0.00    -0.204 F 
HETATM   24  C   UNL     1      29.162  45.615  55.607  1.00  0.00     0.044 A 
HETATM   25  C   UNL     1      28.715  44.844  54.531  1.00  0.00     0.012 A 
ENDBRANCH  16  18
ENDBRANCH  14  16
ENDBRANCH   1  14
TORSDOF 5
ENDMDL
MODEL 10
REMARK VINA RESULT:      -7.6      6.721      9.950
REMARK  5 active torsions:
REMARK  status: ('A' for Active; 'I' for Inactive)
REMARK    1  A    between atoms: C_8  and  N_9 
REMARK       I    between atoms: N_9  and  C_10 
REMARK    2  A    between atoms: C_10  and  C_11 
REMARK    3  A    between atoms: C_11  and  N_12 
REMARK    4  A    between atoms: N_12  and  C_13 
REMARK    5  A    between atoms: C_13  and  C_14 
ROOT
HETATM    1  C   UNL     1      19.840  46.695  48.259  1.00  0.00     0.372 C 
ENDROOT
BRANCH   1   2
HETATM    2  C   UNL     1      21.303  47.070  47.977  1.00  0.00     0.250 C 
HETATM    3  N   UNL     1      21.906  47.677  49.058  1.00  0.00    -0.322 N 
HETATM    4  H   UNL     1      21.304  47.775  49.872  1.00  0.00     0.169 HD
HETATM    5  O   UNL     1      21.815  46.805  46.895  1.00  0.00    -0.271 OA
BRANCH   3   6
HETATM    6  C   UNL     1      23.187  48.187  49.152  1.00  0.00     0.085 A 
HETATM    7  C   UNL     1      23.539  49.374  48.538  1.00  0.00     0.052 A 
HETATM    8  C   UNL     1      22.779  50.339  47.709  1.00  0.00     0.072 C 
HETATM    9  N   UNL     1      24.860  49.566  48.823  1.00  0.00    -0.280 N 
HETATM   10  H   UNL     1      25.459  50.333  48.536  1.00  0.00     0.189 HD
HETATM   11  N   UNL     1      25.397  48.599  49.570  1.00  0.00    -0.177 NA
HETATM   12  C   UNL     1      24.385  47.745  49.787  1.00  0.00     0.079 A 
HETATM   13  C   UNL     1      24.659  46.538  50.607  1.00  0.00     0.075 C 
ENDBRANCH   3   6
ENDBRANCH   1   2
BRANCH   1  14
HETATM   14  N   UNL     1      19.474  47.021  49.663  1.00  0.00     0.100 N 
HETATM   15  H   UNL     1      20.260  47.545  50.060  1.00  0.00     0.317 HD
BRANCH  14  16
HETATM   16  C   UNL     1      18.292  47.904  49.717  1.00  0.00     0.250 C 
HETATM   17  C   UNL     1      17.179  47.285  48.864  1.00  0.00     0.048 C 
BRANCH  16  18
HETATM   18  C   UNL     1      18.574  49.321  49.245  1.00  0.00    -0.024 A 
HETATM   19  C   UNL     1      17.968  49.844  48.087  1.00  0.00     0.036 A 
HETATM   20  C   UNL     1      18.228  51.154  47.682  1.00  0.00     0.073 A 
HETATM   21 CL   UNL     1      17.475  51.766  46.260  1.00  0.00    -0.081 Cl
HETATM   22  C   UNL     1      19.089  51.953  48.429  1.00  0.00     0.138 A 
HETATM   23  F   UNL     1      19.349  53.217  48.061  1.00  0.00    -0.204 F 
HETATM   24  C   UNL     1      19.695  51.456  49.580  1.00  0.00     0.044 A 
HETATM   25  C   UNL     1      19.438  50.145  49.986  1.00  0.00     0.012 A 
ENDBRANCH  16  18
ENDBRANCH  14  16
ENDBRANCH   1  14
TORSDOF 5
ENDMDL
