MODEL 1
REMARK VINA RESULT:      -8.7      0.000      0.000
REMARK  6 active torsions:
REMARK  status: ('A' for Active; 'I' for Inactive)
REMARK    1  A    between atoms: C_2  and  C_3 
REMARK    2  A    between atoms: C_3  and  N_4 
REMARK       I    between atoms: N_4  and  C_5 
REMARK    3  A    between atoms: C_5  and  C_6 
REMARK    4  A    between atoms: C_11  and  C_12 
REMARK    5  A    between atoms: C_15  and  O_16 
REMARK    6  A    between atoms: C_21  and  C_22 
ROOT
HETATM    1  C   UNL     1      24.817  48.202  49.334  1.00  0.00     0.170 A 
HETATM    2  N   UNL     1      23.971  47.291  49.881  1.00  0.00    -0.163 NA
HETATM    3  N   UNL     1      24.796  46.386  50.433  1.00  0.00    -0.238 N 
HETATM    4  C   UNL     1      26.123  46.691  50.320  1.00  0.00     0.145 A 
HETATM    5  N   UNL     1      27.071  45.906  50.893  1.00  0.00    -0.365 N 
HETATM    6  C   UNL     1      26.729  44.608  51.468  1.00  0.00     0.118 C 
HETATM    7  C   UNL     1      25.332  44.683  52.110  1.00  0.00     0.066 C 
HETATM    8  C   UNL     1      24.286  45.209  51.112  1.00  0.00     0.221 C 
HETATM    9  C   UNL     1      26.175  47.857  49.591  1.00  0.00     0.115 A 
HETATM   10 CL   UNL     1      27.572  48.700  49.127  1.00  0.00    -0.077 Cl
HETATM   11  H   UNL     1      28.055  46.034  50.649  1.00  0.00     0.162 HD
ENDROOT
BRANCH   6  12
HETATM   12  C   UNL     1      27.761  44.187  52.498  1.00  0.00    -0.035 A 
HETATM   13  C   UNL     1      28.777  43.269  52.197  1.00  0.00     0.012 A 
HETATM   14  C   UNL     1      29.739  42.935  53.154  1.00  0.00     0.037 A 
HETATM   15  C   UNL     1      29.716  43.516  54.423  1.00  0.00     0.068 A 
HETATM   16  C   UNL     1      28.711  44.430  54.732  1.00  0.00     0.037 A 
HETATM   17  C   UNL     1      27.743  44.764  53.777  1.00  0.00     0.012 A 
BRANCH  15  18
HETATM   18  O   UNL     1      30.722  43.111  55.257  1.00  0.00    -0.356 OA
HETATM   19  C   UNL     1      31.113  44.018  56.279  1.00  0.00     0.210 C 
ENDBRANCH  15  18
ENDBRANCH   6  12
BRANCH   8  20
HETATM   20  C   UNL     1      23.887  44.162  50.095  1.00  0.00     0.409 C 
HETATM   21  F   UNL     1      24.014  42.900  50.559  1.00  0.00    -0.169 F 
HETATM   22  F   UNL     1      22.581  44.321  49.755  1.00  0.00    -0.169 F 
HETATM   23  F   UNL     1      24.595  44.253  48.949  1.00  0.00    -0.169 F 
ENDBRANCH   8  20
BRANCH   1  24
HETATM   24  C   UNL     1      24.293  49.359  48.591  1.00  0.00     0.273 C 
HETATM   25  N   UNL     1      23.104  49.834  49.105  1.00  0.00    -0.356 N 
HETATM   26  H   UNL     1      22.718  49.299  49.879  1.00  0.00     0.162 HD
HETATM   27  O   UNL     1      24.843  49.850  47.610  1.00  0.00    -0.266 OA
BRANCH  25  28
HETATM   28  C   UNL     1      22.347  50.900  48.495  1.00  0.00     0.122 C 
BRANCH  28  29
HETATM   29  C   UNL     1      21.112  51.252  49.318  1.00  0.00     0.015 C 
HETATM   30  C   UNL     1      19.937  51.624  48.429  1.00  0.00     0.006 C 
ENDBRANCH  28  29
ENDBRANCH  25  28
ENDBRANCH   1  24
TORSDOF 6
ENDMDL
MODEL 2
REMARK VINA RESULT:      -8.6      1.500      2.037
REMARK  6 active torsions:
REMARK  status: ('A' for Active; 'I' for Inactive)
REMARK    1  A    between atoms: C_2  and  C_3 
REMARK    2  A    between atoms: C_3  and  N_4 
REMARK       I    between atoms: N_4  and  C_5 
REMARK    3  A    between atoms: C_5  and  C_6 
REMARK    4  A    between atoms: C_11  and  C_12 
REMARK    5  A    between atoms: C_15  and  O_16 
REMARK    6  A    between atoms: C_21  and  C_22 
ROOT
HETATM    1  C   UNL     1      23.994  46.493  49.525  1.00  0.00     0.170 A 
HETATM    2  N   UNL     1      23.587  45.252  49.899  1.00  0.00    -0.163 NA
HETATM    3  N   UNL     1      24.684  44.714  50.454  1.00  0.00    -0.238 N 
HETATM    4  C   UNL     1      25.760  45.556  50.508  1.00  0.00     0.145 A 
HETATM    5  N   UNL     1      26.916  45.174  51.107  1.00  0.00    -0.365 N 
HETATM    6  C   UNL     1      27.128  43.792  51.528  1.00  0.00     0.118 C 
HETATM    7  C   UNL     1      25.796  43.197  52.024  1.00  0.00     0.066 C 
HETATM    8  C   UNL     1      24.686  43.358  50.971  1.00  0.00     0.221 C 
HETATM    9  C   UNL     1      25.351  46.718  49.893  1.00  0.00     0.115 A 
HETATM   10 CL   UNL     1      26.281  48.116  49.653  1.00  0.00    -0.077 Cl
HETATM   11  H   UNL     1      27.764  45.730  50.979  1.00  0.00     0.162 HD
ENDROOT
BRANCH   6  12
HETATM   12  C   UNL     1      28.179  43.716  52.620  1.00  0.00    -0.035 A 
HETATM   13  C   UNL     1      28.032  44.394  53.838  1.00  0.00     0.012 A 
HETATM   14  C   UNL     1      28.997  44.269  54.841  1.00  0.00     0.037 A 
HETATM   15  C   UNL     1      30.118  43.459  54.656  1.00  0.00     0.068 A 
HETATM   16  C   UNL     1      30.274  42.780  53.449  1.00  0.00     0.037 A 
HETATM   17  C   UNL     1      29.311  42.906  52.441  1.00  0.00     0.012 A 
BRANCH  15  18
HETATM   18  O   UNL     1      30.976  43.416  55.721  1.00  0.00    -0.356 OA
HETATM   19  C   UNL     1      30.912  44.497  56.642  1.00  0.00     0.210 C 
ENDBRANCH  15  18
ENDBRANCH   6  12
BRANCH   8  20
HETATM   20  C   UNL     1      24.832  42.374  49.830  1.00  0.00     0.409 C 
HETATM   21  F   UNL     1      23.649  42.011  49.291  1.00  0.00    -0.169 F 
HETATM   22  F   UNL     1      25.560  42.932  48.829  1.00  0.00    -0.169 F 
HETATM   23  F   UNL     1      25.481  41.247  50.194  1.00  0.00    -0.169 F 
ENDBRANCH   8  20
BRANCH   1  24
HETATM   24  C   UNL     1      23.071  47.408  48.835  1.00  0.00     0.273 C 
HETATM   25  N   UNL     1      22.683  48.474  49.621  1.00  0.00    -0.356 N 
HETATM   26  H   UNL     1      23.029  48.460  50.578  1.00  0.00     0.162 HD
HETATM   27  O   UNL     1      22.675  47.244  47.685  1.00  0.00    -0.266 OA
BRANCH  25  28
HETATM   28  C   UNL     1      21.711  49.454  49.202  1.00  0.00     0.122 C 
BRANCH  28  29
HETATM   29  C   UNL     1      22.342  50.833  49.036  1.00  0.00     0.015 C 
HETATM   30  C   UNL     1      23.405  50.833  47.950  1.00  0.00     0.006 C 
ENDBRANCH  28  29
ENDBRANCH  25  28
ENDBRANCH   1  24
TORSDOF 6
ENDMDL
MODEL 3
REMARK VINA RESULT:      -8.2      5.163      6.943
REMARK  6 active torsions:
REMARK  status: ('A' for Active; 'I' for Inactive)
REMARK    1  A    between atoms: C_2  and  C_3 
REMARK    2  A    between atoms: C_3  and  N_4 
REMARK       I    between atoms: N_4  and  C_5 
REMARK    3  A    between atoms: C_5  and  C_6 
REMARK    4  A    between atoms: C_11  and  C_12 
REMARK    5  A    between atoms: C_15  and  O_16 
REMARK    6  A    between atoms: C_21  and  C_22 
ROOT
HETATM    1  C   UNL     1      27.761  40.659  48.746  1.00  0.00     0.170 A 
HETATM    2  N   UNL     1      27.191  41.892  48.712  1.00  0.00    -0.163 NA
HETATM    3  N   UNL     1      27.337  42.342  49.968  1.00  0.00    -0.238 N 
HETATM    4  C   UNL     1      28.018  41.493  50.796  1.00  0.00     0.145 A 
HETATM    5  N   UNL     1      28.305  41.846  52.075  1.00  0.00    -0.365 N 
HETATM    6  C   UNL     1      27.726  43.043  52.676  1.00  0.00     0.118 C 
HETATM    7  C   UNL     1      27.600  44.144  51.607  1.00  0.00     0.066 C 
HETATM    8  C   UNL     1      26.830  43.640  50.373  1.00  0.00     0.221 C 
HETATM    9  C   UNL     1      28.291  40.377  50.037  1.00  0.00     0.115 A 
HETATM   10 CL   UNL     1      29.107  38.981  50.549  1.00  0.00    -0.077 Cl
HETATM   11  H   UNL     1      28.643  41.141  52.734  1.00  0.00     0.162 HD
ENDROOT
BRANCH   6  12
HETATM   12  C   UNL     1      28.576  43.528  53.835  1.00  0.00    -0.035 A 
HETATM   13  C   UNL     1      29.768  42.888  54.200  1.00  0.00     0.012 A 
HETATM   14  C   UNL     1      30.551  43.385  55.245  1.00  0.00     0.037 A 
HETATM   15  C   UNL     1      30.170  44.535  55.938  1.00  0.00     0.068 A 
HETATM   16  C   UNL     1      28.986  45.180  55.584  1.00  0.00     0.037 A 
HETATM   17  C   UNL     1      28.198  44.682  54.540  1.00  0.00     0.012 A 
BRANCH  15  18
HETATM   18  O   UNL     1      31.032  44.920  56.928  1.00  0.00    -0.356 OA
HETATM   19  C   UNL     1      30.573  45.922  57.826  1.00  0.00     0.210 C 
ENDBRANCH  15  18
ENDBRANCH   6  12
BRANCH   8  20
HETATM   20  C   UNL     1      25.340  43.554  50.624  1.00  0.00     0.409 C 
HETATM   21  F   UNL     1      24.949  42.342  51.070  1.00  0.00    -0.169 F 
HETATM   22  F   UNL     1      24.979  44.454  51.576  1.00  0.00    -0.169 F 
HETATM   23  F   UNL     1      24.610  43.845  49.526  1.00  0.00    -0.169 F 
ENDBRANCH   8  20
BRANCH   1  24
HETATM   24  C   UNL     1      27.775  39.807  47.547  1.00  0.00     0.273 C 
HETATM   25  N   UNL     1      28.080  40.504  46.396  1.00  0.00    -0.356 N 
HETATM   26  H   UNL     1      28.195  41.509  46.510  1.00  0.00     0.162 HD
HETATM   27  O   UNL     1      27.532  38.604  47.557  1.00  0.00    -0.266 OA
BRANCH  25  28
HETATM   28  C   UNL     1      28.062  39.909  45.081  1.00  0.00     0.122 C 
BRANCH  28  29
HETATM   29  C   UNL     1      28.232  40.960  43.988  1.00  0.00     0.015 C 
HETATM   30  C   UNL     1      29.517  40.746  43.204  1.00  0.00     0.006 C 
ENDBRANCH  28  29
ENDBRANCH  25  28
ENDBRANCH   1  24
TORSDOF 6
ENDMDL
MODEL 4
REMARK VINA RESULT:      -8.1      1.638      1.904
REMARK  6 active torsions:
REMARK  status: ('A' for Active; 'I' for Inactive)
REMARK    1  A    between atoms: C_2  and  C_3 
REMARK    2  A    between atoms: C_3  and  N_4 
REMARK       I    between atoms: N_4  and  C_5 
REMARK    3  A    between atoms: C_5  and  C_6 
REMARK    4  A    between atoms: C_11  and  C_12 
REMARK    5  A    between atoms: C_15  and  O_16 
REMARK    6  A    between atoms: C_21  and  C_22 
ROOT
HETATM    1  C   UNL     1      23.966  46.411  49.573  1.00  0.00     0.170 A 
HETATM    2  N   UNL     1      23.590  45.155  49.928  1.00  0.00    -0.163 NA
HETATM    3  N   UNL     1      24.688  44.651  50.514  1.00  0.00    -0.238 N 
HETATM    4  C   UNL     1      25.732  45.529  50.606  1.00  0.00     0.145 A 
HETATM    5  N   UNL     1      26.882  45.183  51.238  1.00  0.00    -0.365 N 
HETATM    6  C   UNL     1      27.127  43.807  51.659  1.00  0.00     0.118 C 
HETATM    7  C   UNL     1      25.802  43.164  52.110  1.00  0.00     0.066 C 
HETATM    8  C   UNL     1      24.720  43.293  51.024  1.00  0.00     0.221 C 
HETATM    9  C   UNL     1      25.303  46.680  49.983  1.00  0.00     0.115 A 
HETATM   10 CL   UNL     1      26.191  48.111  49.779  1.00  0.00    -0.077 Cl
HETATM   11  H   UNL     1      27.713  45.768  51.139  1.00  0.00     0.162 HD
ENDROOT
BRANCH   6  12
HETATM   12  C   UNL     1      28.146  43.760  52.782  1.00  0.00    -0.035 A 
HETATM   13  C   UNL     1      29.250  42.897  52.747  1.00  0.00     0.012 A 
HETATM   14  C   UNL     1      30.195  42.910  53.776  1.00  0.00     0.037 A 
HETATM   15  C   UNL     1      30.067  43.788  54.852  1.00  0.00     0.068 A 
HETATM   16  C   UNL     1      28.973  44.652  54.897  1.00  0.00     0.037 A 
HETATM   17  C   UNL     1      28.023  44.639  53.870  1.00  0.00     0.012 A 
BRANCH  15  18
HETATM   18  O   UNL     1      31.066  43.706  55.782  1.00  0.00    -0.356 OA
HETATM   19  C   UNL     1      30.924  44.502  56.952  1.00  0.00     0.210 C 
ENDBRANCH  15  18
ENDBRANCH   6  12
BRANCH   8  20
HETATM   20  C   UNL     1      24.934  42.321  49.884  1.00  0.00     0.409 C 
HETATM   21  F   UNL     1      25.696  42.830  48.892  1.00  0.00    -0.169 F 
HETATM   22  F   UNL     1      25.576  41.212  50.336  1.00  0.00    -0.169 F 
HETATM   23  F   UNL     1      23.775  41.896  49.336  1.00  0.00    -0.169 F 
ENDBRANCH   8  20
BRANCH   1  24
HETATM   24  C   UNL     1      23.034  47.299  48.859  1.00  0.00     0.273 C 
HETATM   25  N   UNL     1      22.555  48.323  49.649  1.00  0.00    -0.356 N 
HETATM   26  H   UNL     1      22.854  48.301  50.622  1.00  0.00     0.162 HD
HETATM   27  O   UNL     1      22.703  47.146  47.687  1.00  0.00    -0.266 OA
BRANCH  25  28
HETATM   28  C   UNL     1      21.557  49.266  49.206  1.00  0.00     0.122 C 
BRANCH  28  29
HETATM   29  C   UNL     1      20.147  48.784  49.533  1.00  0.00     0.015 C 
HETATM   30  C   UNL     1      19.102  49.817  49.145  1.00  0.00     0.006 C 
ENDBRANCH  28  29
ENDBRANCH  25  28
ENDBRANCH   1  24
TORSDOF 6
ENDMDL
MODEL 5
REMARK VINA RESULT:      -7.9      4.130      4.804
REMARK  6 active torsions:
REMARK  status: ('A' for Active; 'I' for Inactive)
REMARK    1  A    between atoms: C_2  and  C_3 
REMARK    2  A    between atoms: C_3  and  N_4 
REMARK       I    between atoms: N_4  and  C_5 
REMARK    3  A    between atoms: C_5  and  C_6 
REMARK    4  A    between atoms: C_11  and  C_12 
REMARK    5  A    between atoms: C_15  and  O_16 
REMARK    6  A    between atoms: C_21  and  C_22 
ROOT
HETATM    1  C   UNL     1      24.742  42.833  49.396  1.00  0.00     0.170 A 
HETATM    2  N   UNL     1      25.148  41.618  49.848  1.00  0.00    -0.163 NA
HETATM    3  N   UNL     1      26.190  41.910  50.643  1.00  0.00    -0.238 N 
HETATM    4  C   UNL     1      26.443  43.247  50.774  1.00  0.00     0.145 A 
HETATM    5  N   UNL     1      27.419  43.695  51.604  1.00  0.00    -0.365 N 
HETATM    6  C   UNL     1      28.365  42.772  52.224  1.00  0.00     0.118 C 
HETATM    7  C   UNL     1      27.649  41.450  52.556  1.00  0.00     0.066 C 
HETATM    8  C   UNL     1      26.944  40.870  51.318  1.00  0.00     0.221 C 
HETATM    9  C   UNL     1      25.531  43.877  49.958  1.00  0.00     0.115 A 
HETATM   10 CL   UNL     1      25.383  45.548  49.707  1.00  0.00    -0.077 Cl
HETATM   11  H   UNL     1      27.723  44.669  51.553  1.00  0.00     0.162 HD
ENDROOT
BRANCH   6  12
HETATM   12  C   UNL     1      28.965  43.378  53.479  1.00  0.00    -0.035 A 
HETATM   13  C   UNL     1      30.148  42.886  54.048  1.00  0.00     0.012 A 
HETATM   14  C   UNL     1      30.699  43.495  55.179  1.00  0.00     0.037 A 
HETATM   15  C   UNL     1      30.091  44.609  55.758  1.00  0.00     0.068 A 
HETATM   16  C   UNL     1      28.914  45.107  55.200  1.00  0.00     0.037 A 
HETATM   17  C   UNL     1      28.358  44.498  54.069  1.00  0.00     0.012 A 
BRANCH  15  18
HETATM   18  O   UNL     1      30.740  45.113  56.851  1.00  0.00    -0.356 OA
HETATM   19  C   UNL     1      29.983  45.942  57.723  1.00  0.00     0.210 C 
ENDBRANCH  15  18
ENDBRANCH   6  12
BRANCH   8  20
HETATM   20  C   UNL     1      27.917  40.231  50.351  1.00  0.00     0.409 C 
HETATM   21  F   UNL     1      29.017  39.737  50.958  1.00  0.00    -0.169 F 
HETATM   22  F   UNL     1      27.321  39.188  49.717  1.00  0.00    -0.169 F 
HETATM   23  F   UNL     1      28.326  41.082  49.386  1.00  0.00    -0.169 F 
ENDBRANCH   8  20
BRANCH   1  24
HETATM   24  C   UNL     1      23.620  42.944  48.450  1.00  0.00     0.273 C 
HETATM   25  N   UNL     1      23.962  43.598  47.285  1.00  0.00    -0.356 N 
HETATM   26  H   UNL     1      24.911  43.966  47.252  1.00  0.00     0.162 HD
HETATM   27  O   UNL     1      22.492  42.513  48.670  1.00  0.00    -0.266 OA
BRANCH  25  28
HETATM   28  C   UNL     1      23.013  43.914  46.246  1.00  0.00     0.122 C 
BRANCH  28  29
HETATM   29  C   UNL     1      22.359  45.272  46.479  1.00  0.00     0.015 C 
HETATM   30  C   UNL     1      21.396  45.628  45.357  1.00  0.00     0.006 C 
ENDBRANCH  28  29
ENDBRANCH  25  28
ENDBRANCH   1  24
TORSDOF 6
ENDMDL
MODEL 6
REMARK VINA RESULT:      -7.9      4.908      7.158
REMARK  6 active torsions:
REMARK  status: ('A' for Active; 'I' for Inactive)
REMARK    1  A    between atoms: C_2  and  C_3 
REMARK    2  A    between atoms: C_3  and  N_4 
REMARK       I    between atoms: N_4  and  C_5 
REMARK    3  A    between atoms: C_5  and  C_6 
REMARK    4  A    between atoms: C_11  and  C_12 
REMARK    5  A    between atoms: C_15  and  O_16 
REMARK    6  A    between atoms: C_21  and  C_22 
ROOT
HETATM    1  C   UNL     1      27.487  40.882  48.565  1.00  0.00     0.170 A 
HETATM    2  N   UNL     1      26.961  42.133  48.586  1.00  0.00    -0.163 NA
HETATM    3  N   UNL     1      27.154  42.535  49.852  1.00  0.00    -0.238 N 
HETATM    4  C   UNL     1      27.824  41.636  50.634  1.00  0.00     0.145 A 
HETATM    5  N   UNL     1      28.155  41.935  51.916  1.00  0.00    -0.365 N 
HETATM    6  C   UNL     1      27.634  43.131  52.571  1.00  0.00     0.118 C 
HETATM    7  C   UNL     1      27.521  44.271  51.542  1.00  0.00     0.066 C 
HETATM    8  C   UNL     1      26.704  43.836  50.313  1.00  0.00     0.221 C 
HETATM    9  C   UNL     1      28.039  40.537  49.832  1.00  0.00     0.115 A 
HETATM   10 CL   UNL     1      28.816  39.097  50.276  1.00  0.00    -0.077 Cl
HETATM   11  H   UNL     1      28.484  41.197  52.542  1.00  0.00     0.162 HD
ENDROOT
BRANCH   6  12
HETATM   12  C   UNL     1      28.529  43.546  53.723  1.00  0.00    -0.035 A 
HETATM   13  C   UNL     1      29.617  42.765  54.137  1.00  0.00     0.012 A 
HETATM   14  C   UNL     1      30.448  43.197  55.173  1.00  0.00     0.037 A 
HETATM   15  C   UNL     1      30.222  44.418  55.809  1.00  0.00     0.068 A 
HETATM   16  C   UNL     1      29.143  45.203  55.406  1.00  0.00     0.037 A 
HETATM   17  C   UNL     1      28.306  44.772  54.371  1.00  0.00     0.012 A 
BRANCH  15  18
HETATM   18  O   UNL     1      31.117  44.725  56.797  1.00  0.00    -0.356 OA
HETATM   19  C   UNL     1      31.795  43.636  57.411  1.00  0.00     0.210 C 
ENDBRANCH  15  18
ENDBRANCH   6  12
BRANCH   8  20
HETATM   20  C   UNL     1      25.219  43.794  50.599  1.00  0.00     0.409 C 
HETATM   21  F   UNL     1      24.840  44.666  51.557  1.00  0.00    -0.169 F 
HETATM   22  F   UNL     1      24.523  44.121  49.478  1.00  0.00    -0.169 F 
HETATM   23  F   UNL     1      24.794  42.566  50.968  1.00  0.00    -0.169 F 
ENDBRANCH   8  20
BRANCH   1  24
HETATM   24  C   UNL     1      27.441  40.070  47.338  1.00  0.00     0.273 C 
HETATM   25  N   UNL     1      26.548  39.021  47.421  1.00  0.00    -0.356 N 
HETATM   26  H   UNL     1      26.088  38.908  48.321  1.00  0.00     0.162 HD
HETATM   27  O   UNL     1      28.128  40.288  46.345  1.00  0.00    -0.266 OA
BRANCH  25  28
HETATM   28  C   UNL     1      26.392  38.030  46.384  1.00  0.00     0.122 C 
BRANCH  28  29
HETATM   29  C   UNL     1      27.124  36.737  46.731  1.00  0.00     0.015 C 
HETATM   30  C   UNL     1      26.643  36.163  48.055  1.00  0.00     0.006 C 
ENDBRANCH  28  29
ENDBRANCH  25  28
ENDBRANCH   1  24
TORSDOF 6
ENDMDL
MODEL 7
REMARK VINA RESULT:      -7.8      4.594      5.421
REMARK  6 active torsions:
REMARK  status: ('A' for Active; 'I' for Inactive)
REMARK    1  A    between atoms: C_2  and  C_3 
REMARK    2  A    between atoms: C_3  and  N_4 
REMARK       I    between atoms: N_4  and  C_5 
REMARK    3  A    between atoms: C_5  and  C_6 
REMARK    4  A    between atoms: C_11  and  C_12 
REMARK    5  A    between atoms: C_15  and  O_16 
REMARK    6  A    between atoms: C_21  and  C_22 
ROOT
HETATM    1  C   UNL     1      24.755  42.719  49.292  1.00  0.00     0.170 A 
HETATM    2  N   UNL     1      25.150  41.519  49.791  1.00  0.00    -0.163 NA
HETATM    3  N   UNL     1      26.190  41.833  50.580  1.00  0.00    -0.238 N 
HETATM    4  C   UNL     1      26.453  43.171  50.661  1.00  0.00     0.145 A 
HETATM    5  N   UNL     1      27.430  43.643  51.477  1.00  0.00    -0.365 N 
HETATM    6  C   UNL     1      28.365  42.737  52.137  1.00  0.00     0.118 C 
HETATM    7  C   UNL     1      27.637  41.435  52.516  1.00  0.00     0.066 C 
HETATM    8  C   UNL     1      26.932  40.813  51.298  1.00  0.00     0.221 C 
HETATM    9  C   UNL     1      25.550  43.777  49.817  1.00  0.00     0.115 A 
HETATM   10 CL   UNL     1      25.417  45.439  49.501  1.00  0.00    -0.077 Cl
HETATM   11  H   UNL     1      27.741  44.612  51.391  1.00  0.00     0.162 HD
ENDROOT
BRANCH   6  12
HETATM   12  C   UNL     1      28.964  43.386  53.370  1.00  0.00    -0.035 A 
HETATM   13  C   UNL     1      28.397  44.525  53.959  1.00  0.00     0.012 A 
HETATM   14  C   UNL     1      28.947  45.073  55.120  1.00  0.00     0.037 A 
HETATM   15  C   UNL     1      30.062  44.492  55.726  1.00  0.00     0.068 A 
HETATM   16  C   UNL     1      30.634  43.359  55.150  1.00  0.00     0.037 A 
HETATM   17  C   UNL     1      30.088  42.810  53.984  1.00  0.00     0.012 A 
BRANCH  15  18
HETATM   18  O   UNL     1      30.490  45.121  56.863  1.00  0.00    -0.356 OA
HETATM   19  C   UNL     1      31.276  44.353  57.765  1.00  0.00     0.210 C 
ENDBRANCH  15  18
ENDBRANCH   6  12
BRANCH   8  20
HETATM   20  C   UNL     1      27.904  40.130  50.361  1.00  0.00     0.409 C 
HETATM   21  F   UNL     1      28.380  40.953  49.402  1.00  0.00    -0.169 F 
HETATM   22  F   UNL     1      28.981  39.682  51.058  1.00  0.00    -0.169 F 
HETATM   23  F   UNL     1      27.368  39.051  49.749  1.00  0.00    -0.169 F 
ENDBRANCH   8  20
BRANCH   1  24
HETATM   24  C   UNL     1      23.638  42.803  48.337  1.00  0.00     0.273 C 
HETATM   25  N   UNL     1      24.022  43.285  47.103  1.00  0.00    -0.356 N 
HETATM   26  H   UNL     1      24.995  43.573  47.029  1.00  0.00     0.162 HD
HETATM   27  O   UNL     1      22.483  42.489  48.604  1.00  0.00    -0.266 OA
BRANCH  25  28
HETATM   28  C   UNL     1      23.092  43.547  46.031  1.00  0.00     0.122 C 
BRANCH  28  29
HETATM   29  C   UNL     1      23.276  42.566  44.878  1.00  0.00     0.015 C 
HETATM   30  C   UNL     1      22.455  41.303  45.084  1.00  0.00     0.006 C 
ENDBRANCH  28  29
ENDBRANCH  25  28
ENDBRANCH   1  24
TORSDOF 6
ENDMDL
MODEL 8
REMARK VINA RESULT:      -7.8     11.541     13.660
REMARK  6 active torsions:
REMARK  status: ('A' for Active; 'I' for Inactive)
REMARK    1  A    between atoms: C_2  and  C_3 
REMARK    2  A    between atoms: C_3  and  N_4 
REMARK       I    between atoms: N_4  and  C_5 
REMARK    3  A    between atoms: C_5  and  C_6 
REMARK    4  A    between atoms: C_11  and  C_12 
REMARK    5  A    between atoms: C_15  and  O_16 
REMARK    6  A    between atoms: C_21  and  C_22 
ROOT
HETATM    1  C   UNL     1      31.480  51.445  42.986  1.00  0.00     0.170 A 
HETATM    2  N   UNL     1      30.716  52.478  42.545  1.00  0.00    -0.163 NA
HETATM    3  N   UNL     1      29.803  51.882  41.761  1.00  0.00    -0.238 N 
HETATM    4  C   UNL     1      29.900  50.520  41.716  1.00  0.00     0.145 A 
HETATM    5  N   UNL     1      29.000  49.778  41.023  1.00  0.00    -0.365 N 
HETATM    6  C   UNL     1      28.025  50.408  40.137  1.00  0.00     0.118 C 
HETATM    7  C   UNL     1      27.581  51.754  40.737  1.00  0.00     0.066 C 
HETATM    8  C   UNL     1      28.790  52.649  41.058  1.00  0.00     0.221 C 
HETATM    9  C   UNL     1      30.995  50.202  42.487  1.00  0.00     0.115 A 
HETATM   10 CL   UNL     1      31.608  48.648  42.782  1.00  0.00    -0.077 Cl
HETATM   11  H   UNL     1      29.186  48.790  40.841  1.00  0.00     0.162 HD
ENDROOT
BRANCH   6  12
HETATM   12  C   UNL     1      26.826  49.503  39.925  1.00  0.00    -0.035 A 
HETATM   13  C   UNL     1      26.600  48.372  40.723  1.00  0.00     0.012 A 
HETATM   14  C   UNL     1      25.463  47.583  40.532  1.00  0.00     0.037 A 
HETATM   15  C   UNL     1      24.523  47.910  39.553  1.00  0.00     0.068 A 
HETATM   16  C   UNL     1      24.737  49.032  38.755  1.00  0.00     0.037 A 
HETATM   17  C   UNL     1      25.877  49.822  38.941  1.00  0.00     0.012 A 
BRANCH  15  18
HETATM   18  O   UNL     1      23.452  47.063  39.481  1.00  0.00    -0.356 OA
HETATM   19  C   UNL     1      22.851  46.679  40.711  1.00  0.00     0.210 C 
ENDBRANCH  15  18
ENDBRANCH   6  12
BRANCH   8  20
HETATM   20  C   UNL     1      29.388  53.271  39.815  1.00  0.00     0.409 C 
HETATM   21  F   UNL     1      28.534  53.290  38.771  1.00  0.00    -0.169 F 
HETATM   22  F   UNL     1      29.728  54.564  40.063  1.00  0.00    -0.169 F 
HETATM   23  F   UNL     1      30.517  52.649  39.413  1.00  0.00    -0.169 F 
ENDBRANCH   8  20
BRANCH   1  24
HETATM   24  C   UNL     1      32.636  51.689  43.863  1.00  0.00     0.273 C 
HETATM   25  N   UNL     1      33.803  51.916  43.164  1.00  0.00    -0.356 N 
HETATM   26  H   UNL     1      33.731  51.829  42.152  1.00  0.00     0.162 HD
HETATM   27  O   UNL     1      32.580  51.682  45.089  1.00  0.00    -0.266 OA
BRANCH  25  28
HETATM   28  C   UNL     1      35.087  52.086  43.799  1.00  0.00     0.122 C 
BRANCH  28  29
HETATM   29  C   UNL     1      36.216  51.530  42.937  1.00  0.00     0.015 C 
HETATM   30  C   UNL     1      35.725  50.419  42.024  1.00  0.00     0.006 C 
ENDBRANCH  28  29
ENDBRANCH  25  28
ENDBRANCH   1  24
TORSDOF 6
ENDMDL
MODEL 9
REMARK VINA RESULT:      -7.8      3.461      4.235
REMARK  6 active torsions:
REMARK  status: ('A' for Active; 'I' for Inactive)
REMARK    1  A    between atoms: C_2  and  C_3 
REMARK    2  A    between atoms: C_3  and  N_4 
REMARK       I    between atoms: N_4  and  C_5 
REMARK    3  A    between atoms: C_5  and  C_6 
REMARK    4  A    between atoms: C_11  and  C_12 
REMARK    5  A    between atoms: C_15  and  O_16 
REMARK    6  A    between atoms: C_21  and  C_22 
ROOT
HETATM    1  C   UNL     1      23.425  46.853  48.980  1.00  0.00     0.170 A 
HETATM    2  N   UNL     1      24.539  47.229  49.659  1.00  0.00    -0.163 NA
HETATM    3  N   UNL     1      25.147  46.065  49.936  1.00  0.00    -0.238 N 
HETATM    4  C   UNL     1      24.517  44.964  49.427  1.00  0.00     0.145 A 
HETATM    5  N   UNL     1      25.054  43.725  49.566  1.00  0.00    -0.365 N 
HETATM    6  C   UNL     1      26.206  43.494  50.433  1.00  0.00     0.118 C 
HETATM    7  C   UNL     1      27.143  44.714  50.376  1.00  0.00     0.066 C 
HETATM    8  C   UNL     1      26.387  46.016  50.690  1.00  0.00     0.221 C 
HETATM    9  C   UNL     1      23.379  45.439  48.815  1.00  0.00     0.115 A 
HETATM   10 CL   UNL     1      22.197  44.518  48.021  1.00  0.00    -0.077 Cl
HETATM   11  H   UNL     1      24.492  42.899  49.351  1.00  0.00     0.162 HD
ENDROOT
BRANCH   6  12
HETATM   12  C   UNL     1      26.948  42.238  50.019  1.00  0.00    -0.035 A 
HETATM   13  C   UNL     1      27.108  41.880  48.672  1.00  0.00     0.012 A 
HETATM   14  C   UNL     1      27.835  40.740  48.321  1.00  0.00     0.037 A 
HETATM   15  C   UNL     1      28.427  39.941  49.301  1.00  0.00     0.068 A 
HETATM   16  C   UNL     1      28.275  40.287  50.642  1.00  0.00     0.037 A 
HETATM   17  C   UNL     1      27.544  41.426  50.997  1.00  0.00     0.012 A 
BRANCH  15  18
HETATM   18  O   UNL     1      29.119  38.864  48.820  1.00  0.00    -0.356 OA
HETATM   19  C   UNL     1      29.632  37.949  49.780  1.00  0.00     0.210 C 
ENDBRANCH  15  18
ENDBRANCH   6  12
BRANCH   8  20
HETATM   20  C   UNL     1      26.095  46.167  52.168  1.00  0.00     0.409 C 
HETATM   21  F   UNL     1      24.897  45.656  52.524  1.00  0.00    -0.169 F 
HETATM   22  F   UNL     1      27.032  45.502  52.893  1.00  0.00    -0.169 F 
HETATM   23  F   UNL     1      26.134  47.452  52.578  1.00  0.00    -0.169 F 
ENDBRANCH   8  20
BRANCH   1  24
HETATM   24  C   UNL     1      22.454  47.858  48.518  1.00  0.00     0.273 C 
HETATM   25  N   UNL     1      21.694  48.382  49.544  1.00  0.00    -0.356 N 
HETATM   26  H   UNL     1      21.856  47.972  50.461  1.00  0.00     0.162 HD
HETATM   27  O   UNL     1      22.319  48.194  47.346  1.00  0.00    -0.266 OA
BRANCH  25  28
HETATM   28  C   UNL     1      20.612  49.313  49.333  1.00  0.00     0.122 C 
BRANCH  28  29
HETATM   29  C   UNL     1      21.089  50.758  49.431  1.00  0.00     0.015 C 
HETATM   30  C   UNL     1      20.192  51.697  48.641  1.00  0.00     0.006 C 
ENDBRANCH  28  29
ENDBRANCH  25  28
ENDBRANCH   1  24
TORSDOF 6
ENDMDL
MODEL 10
REMARK VINA RESULT:      -7.6      4.522      7.870
REMARK  6 active torsions:
REMARK  status: ('A' for Active; 'I' for Inactive)
REMARK    1  A    between atoms: C_2  and  C_3 
REMARK    2  A    between atoms: C_3  and  N_4 
REMARK       I    between atoms: N_4  and  C_5 
REMARK    3  A    between atoms: C_5  and  C_6 
REMARK    4  A    between atoms: C_11  and  C_12 
REMARK    5  A    between atoms: C_15  and  O_16 
REMARK    6  A    between atoms: C_21  and  C_22 
ROOT
HETATM    1  C   UNL     1      28.350  44.762  53.954  1.00  0.00     0.170 A 
HETATM    2  N   UNL     1      27.207  44.996  53.258  1.00  0.00    -0.163 NA
HETATM    3  N   UNL     1      27.222  44.054  52.302  1.00  0.00    -0.238 N 
HETATM    4  C   UNL     1      28.279  43.192  52.375  1.00  0.00     0.145 A 
HETATM    5  N   UNL     1      28.388  42.144  51.519  1.00  0.00    -0.365 N 
HETATM    6  C   UNL     1      27.501  42.017  50.366  1.00  0.00     0.118 C 
HETATM    7  C   UNL     1      26.100  42.539  50.736  1.00  0.00     0.066 C 
HETATM    8  C   UNL     1      26.169  43.967  51.306  1.00  0.00     0.221 C 
HETATM    9  C   UNL     1      29.047  43.637  53.428  1.00  0.00     0.115 A 
HETATM   10 CL   UNL     1      30.501  42.959  53.978  1.00  0.00    -0.077 Cl
HETATM   11  H   UNL     1      29.265  41.623  51.459  1.00  0.00     0.162 HD
ENDROOT
BRANCH   6  12
HETATM   12  C   UNL     1      27.421  40.573  49.905  1.00  0.00    -0.035 A 
HETATM   13  C   UNL     1      26.387  40.116  49.076  1.00  0.00     0.012 A 
HETATM   14  C   UNL     1      26.366  38.791  48.632  1.00  0.00     0.037 A 
HETATM   15  C   UNL     1      27.378  37.900  48.994  1.00  0.00     0.068 A 
HETATM   16  C   UNL     1      28.411  38.345  49.818  1.00  0.00     0.037 A 
HETATM   17  C   UNL     1      28.433  39.670  50.267  1.00  0.00     0.012 A 
BRANCH  15  18
HETATM   18  O   UNL     1      27.242  36.639  48.482  1.00  0.00    -0.356 OA
HETATM   19  C   UNL     1      26.096  36.392  47.678  1.00  0.00     0.210 C 
ENDBRANCH  15  18
ENDBRANCH   6  12
BRANCH   8  20
HETATM   20  C   UNL     1      26.395  45.004  50.227  1.00  0.00     0.409 C 
HETATM   21  F   UNL     1      27.702  45.209  49.958  1.00  0.00    -0.169 F 
HETATM   22  F   UNL     1      25.818  44.597  49.067  1.00  0.00    -0.169 F 
HETATM   23  F   UNL     1      25.844  46.199  50.530  1.00  0.00    -0.169 F 
ENDBRANCH   8  20
BRANCH   1  24
HETATM   24  C   UNL     1      28.726  45.621  55.088  1.00  0.00     0.273 C 
HETATM   25  N   UNL     1      29.596  45.004  55.963  1.00  0.00    -0.356 N 
HETATM   26  H   UNL     1      29.816  44.034  55.751  1.00  0.00     0.162 HD
HETATM   27  O   UNL     1      28.307  46.762  55.252  1.00  0.00    -0.266 OA
BRANCH  25  28
HETATM   28  C   UNL     1      30.034  45.606  57.199  1.00  0.00     0.122 C 
BRANCH  28  29
HETATM   29  C   UNL     1      31.004  44.699  57.951  1.00  0.00     0.015 C 
HETATM   30  C   UNL     1      31.416  43.504  57.107  1.00  0.00     0.006 C 
ENDBRANCH  28  29
ENDBRANCH  25  28
ENDBRANCH   1  24
TORSDOF 6
ENDMDL
