MODEL 1
REMARK VINA RESULT:     -10.0      0.000      0.000
REMARK  5 active torsions:
REMARK  status: ('A' for Active; 'I' for Inactive)
REMARK    1  A    between atoms: C_8  and  N_9 
REMARK    2  A    between atoms: C_12  and  N_13 
REMARK    3  A    between atoms: N_13  and  C_15 
REMARK    4  A    between atoms: C_15  and  C_16 
REMARK    5  A    between atoms: C_17  and  C_18 
ROOT
HETATM    1  N   UNL     1      26.049  43.827  53.523  1.00  0.00    -0.067 N 
HETATM    2  H   UNL     1      25.579  43.217  52.843  1.00  0.00     0.280 HD
HETATM    3  C   UNL     1      24.956  44.414  54.394  1.00  0.00     0.270 C 
ENDROOT
BRANCH   1   4
HETATM    4  C   UNL     1      26.909  44.865  52.774  1.00  0.00     0.190 C 
HETATM    5  C   UNL     1      26.938  44.569  51.265  1.00  0.00     0.048 C 
HETATM    6  C   UNL     1      25.663  45.001  50.540  1.00  0.00     0.099 C 
HETATM    7  N   UNL     1      25.395  46.414  50.836  1.00  0.00    -0.268 NA
HETATM    8  C   UNL     1      25.213  46.713  52.259  1.00  0.00     0.099 C 
HETATM    9  C   UNL     1      26.484  46.324  53.009  1.00  0.00     0.048 C 
BRANCH   7  10
HETATM   10  C   UNL     1      24.468  47.021  49.973  1.00  0.00     0.109 A 
HETATM   11  N   UNL     1      24.365  48.361  49.948  1.00  0.00    -0.224 NA
HETATM   12  C   UNL     1      23.409  48.918  49.162  1.00  0.00     0.102 A 
HETATM   13  N   UNL     1      22.561  48.196  48.418  1.00  0.00    -0.348 N 
HETATM   14  C   UNL     1      23.269  50.406  49.170  1.00  0.00     0.091 C 
HETATM   15  C   UNL     1      22.639  46.856  48.417  1.00  0.00     0.009 A 
HETATM   16  H   UNL     1      21.851  48.673  47.864  1.00  0.00     0.167 HD
HETATM   17  C   UNL     1      21.672  46.070  47.592  1.00  0.00     0.068 C 
HETATM   18  C   UNL     1      23.608  46.238  49.210  1.00  0.00     0.069 A 
ENDBRANCH   7  10
ENDBRANCH   1   4
BRANCH   1  19
HETATM   19  C   UNL     1      26.926  42.895  54.379  1.00  0.00     0.277 C 
BRANCH  19  20
HETATM   20  C   UNL     1      28.237  42.565  53.764  1.00  0.00     0.016 A 
HETATM   21  C   UNL     1      29.540  43.004  54.155  1.00  0.00     0.096 A 
HETATM   22  N   UNL     1      30.464  42.574  53.290  1.00  0.00    -0.174 NA
HETATM   23  N   UNL     1      29.809  41.774  52.441  1.00  0.00    -0.288 N 
HETATM   24  H   UNL     1      30.342  41.285  51.725  1.00  0.00     0.188 HD
HETATM   25  C   UNL     1      28.463  41.761  52.662  1.00  0.00     0.120 A 
BRANCH  21  26
HETATM   26  C   UNL     1      29.922  43.859  55.273  1.00  0.00    -0.005 A 
HETATM   27  C   UNL     1      29.322  45.114  55.458  1.00  0.00     0.017 A 
HETATM   28  C   UNL     1      29.701  45.920  56.534  1.00  0.00     0.043 A 
HETATM   29  C   UNL     1      30.665  45.468  57.428  1.00  0.00     0.116 A 
HETATM   30  F   UNL     1      31.034  46.249  58.451  1.00  0.00    -0.206 F 
HETATM   31  C   UNL     1      31.250  44.217  57.276  1.00  0.00     0.043 A 
HETATM   32  C   UNL     1      30.877  43.410  56.199  1.00  0.00     0.017 A 
ENDBRANCH  21  26
ENDBRANCH  19  20
ENDBRANCH   1  19
TORSDOF 5
ENDMDL
MODEL 2
REMARK VINA RESULT:      -9.8      3.417      6.661
REMARK  5 active torsions:
REMARK  status: ('A' for Active; 'I' for Inactive)
REMARK    1  A    between atoms: C_8  and  N_9 
REMARK    2  A    between atoms: C_12  and  N_13 
REMARK    3  A    between atoms: N_13  and  C_15 
REMARK    4  A    between atoms: C_15  and  C_16 
REMARK    5  A    between atoms: C_17  and  C_18 
ROOT
HETATM    1  N   UNL     1      26.286  43.537  52.960  1.00  0.00    -0.067 N 
HETATM    2  H   UNL     1      26.065  42.536  53.036  1.00  0.00     0.280 HD
HETATM    3  C   UNL     1      25.006  44.223  52.527  1.00  0.00     0.270 C 
ENDROOT
BRANCH   1   4
HETATM    4  C   UNL     1      27.480  43.728  52.004  1.00  0.00     0.190 C 
HETATM    5  C   UNL     1      28.695  42.906  52.469  1.00  0.00     0.048 C 
HETATM    6  C   UNL     1      28.580  41.418  52.139  1.00  0.00     0.099 C 
HETATM    7  N   UNL     1      28.306  41.263  50.705  1.00  0.00    -0.268 NA
HETATM    8  C   UNL     1      27.073  41.908  50.248  1.00  0.00     0.099 C 
HETATM    9  C   UNL     1      27.169  43.405  50.533  1.00  0.00     0.048 C 
BRANCH   7  10
HETATM   10  C   UNL     1      28.520  39.965  50.213  1.00  0.00     0.109 A 
HETATM   11  N   UNL     1      28.082  39.643  48.983  1.00  0.00    -0.224 NA
HETATM   12  C   UNL     1      28.234  38.362  48.561  1.00  0.00     0.102 A 
HETATM   13  N   UNL     1      28.791  37.404  49.314  1.00  0.00    -0.348 N 
HETATM   14  C   UNL     1      27.707  37.998  47.210  1.00  0.00     0.091 C 
HETATM   15  C   UNL     1      29.241  37.693  50.545  1.00  0.00     0.009 A 
HETATM   16  H   UNL     1      28.857  36.456  48.948  1.00  0.00     0.167 HD
HETATM   17  C   UNL     1      29.844  36.604  51.374  1.00  0.00     0.068 C 
HETATM   18  C   UNL     1      29.107  38.998  51.022  1.00  0.00     0.069 A 
ENDBRANCH   7  10
ENDBRANCH   1   4
BRANCH   1  19
HETATM   19  C   UNL     1      26.641  43.992  54.387  1.00  0.00     0.277 C 
BRANCH  19  20
HETATM   20  C   UNL     1      27.114  45.397  54.476  1.00  0.00     0.016 A 
HETATM   21  C   UNL     1      28.301  45.900  55.092  1.00  0.00     0.096 A 
HETATM   22  N   UNL     1      28.325  47.236  55.055  1.00  0.00    -0.174 NA
HETATM   23  N   UNL     1      27.261  47.588  54.324  1.00  0.00    -0.288 N 
HETATM   24  H   UNL     1      27.118  48.575  54.117  1.00  0.00     0.188 HD
HETATM   25  C   UNL     1      26.481  46.523  53.981  1.00  0.00     0.120 A 
BRANCH  21  26
HETATM   26  C   UNL     1      29.369  45.165  55.761  1.00  0.00    -0.005 A 
HETATM   27  C   UNL     1      29.836  45.564  57.022  1.00  0.00     0.017 A 
HETATM   28  C   UNL     1      30.860  44.849  57.649  1.00  0.00     0.043 A 
HETATM   29  C   UNL     1      31.404  43.733  57.023  1.00  0.00     0.116 A 
HETATM   30  F   UNL     1      32.393  43.058  57.621  1.00  0.00    -0.206 F 
HETATM   31  C   UNL     1      30.935  43.308  55.787  1.00  0.00     0.043 A 
HETATM   32  C   UNL     1      29.914  44.022  55.156  1.00  0.00     0.017 A 
ENDBRANCH  21  26
ENDBRANCH  19  20
ENDBRANCH   1  19
TORSDOF 5
ENDMDL
MODEL 3
REMARK VINA RESULT:      -9.7      3.521      6.012
REMARK  5 active torsions:
REMARK  status: ('A' for Active; 'I' for Inactive)
REMARK    1  A    between atoms: C_8  and  N_9 
REMARK    2  A    between atoms: C_12  and  N_13 
REMARK    3  A    between atoms: N_13  and  C_15 
REMARK    4  A    between atoms: C_15  and  C_16 
REMARK    5  A    between atoms: C_17  and  C_18 
ROOT
HETATM    1  N   UNL     1      26.323  43.517  53.235  1.00  0.00    -0.067 N 
HETATM    2  H   UNL     1      26.066  42.534  53.386  1.00  0.00     0.280 HD
HETATM    3  C   UNL     1      25.127  44.171  52.572  1.00  0.00     0.270 C 
ENDROOT
BRANCH   1   4
HETATM    4  C   UNL     1      27.632  43.587  52.424  1.00  0.00     0.190 C 
HETATM    5  C   UNL     1      28.427  42.276  52.548  1.00  0.00     0.048 C 
HETATM    6  C   UNL     1      27.870  41.147  51.681  1.00  0.00     0.099 C 
HETATM    7  N   UNL     1      27.761  41.614  50.293  1.00  0.00    -0.268 NA
HETATM    8  C   UNL     1      26.889  42.778  50.110  1.00  0.00     0.099 C 
HETATM    9  C   UNL     1      27.438  43.936  50.940  1.00  0.00     0.048 C 
BRANCH   7  10
HETATM   10  C   UNL     1      27.596  40.589  49.349  1.00  0.00     0.109 A 
HETATM   11  N   UNL     1      27.286  39.348  49.764  1.00  0.00    -0.224 NA
HETATM   12  C   UNL     1      27.206  38.360  48.838  1.00  0.00     0.102 A 
HETATM   13  N   UNL     1      27.430  38.561  47.532  1.00  0.00    -0.348 N 
HETATM   14  C   UNL     1      26.904  36.974  49.310  1.00  0.00     0.091 C 
HETATM   15  C   UNL     1      27.737  39.787  47.083  1.00  0.00     0.009 A 
HETATM   16  H   UNL     1      27.375  37.773  46.889  1.00  0.00     0.167 HD
HETATM   17  C   UNL     1      27.998  39.985  45.624  1.00  0.00     0.068 C 
HETATM   18  C   UNL     1      27.830  40.837  48.000  1.00  0.00     0.069 A 
ENDBRANCH   7  10
ENDBRANCH   1   4
BRANCH   1  19
HETATM   19  C   UNL     1      26.509  44.118  54.640  1.00  0.00     0.277 C 
BRANCH  19  20
HETATM   20  C   UNL     1      27.095  45.482  54.643  1.00  0.00     0.016 A 
HETATM   21  C   UNL     1      28.360  45.907  55.154  1.00  0.00     0.096 A 
HETATM   22  N   UNL     1      28.486  47.235  55.066  1.00  0.00    -0.174 NA
HETATM   23  N   UNL     1      27.402  47.649  54.402  1.00  0.00    -0.288 N 
HETATM   24  H   UNL     1      27.322  48.637  54.169  1.00  0.00     0.188 HD
HETATM   25  C   UNL     1      26.518  46.640  54.154  1.00  0.00     0.120 A 
BRANCH  21  26
HETATM   26  C   UNL     1      29.414  45.109  55.772  1.00  0.00    -0.005 A 
HETATM   27  C   UNL     1      29.960  43.999  55.109  1.00  0.00     0.017 A 
HETATM   28  C   UNL     1      30.968  43.246  55.715  1.00  0.00     0.043 A 
HETATM   29  C   UNL     1      31.436  43.608  56.973  1.00  0.00     0.116 A 
HETATM   30  F   UNL     1      32.393  42.876  57.556  1.00  0.00    -0.206 F 
HETATM   31  C   UNL     1      30.926  44.720  57.633  1.00  0.00     0.043 A 
HETATM   32  C   UNL     1      29.917  45.473  57.031  1.00  0.00     0.017 A 
ENDBRANCH  21  26
ENDBRANCH  19  20
ENDBRANCH   1  19
TORSDOF 5
ENDMDL
MODEL 4
REMARK VINA RESULT:      -9.5      1.542      2.341
REMARK  5 active torsions:
REMARK  status: ('A' for Active; 'I' for Inactive)
REMARK    1  A    between atoms: C_8  and  N_9 
REMARK    2  A    between atoms: C_12  and  N_13 
REMARK    3  A    between atoms: N_13  and  C_15 
REMARK    4  A    between atoms: C_15  and  C_16 
REMARK    5  A    between atoms: C_17  and  C_18 
ROOT
HETATM    1  N   UNL     1      27.114  44.353  50.464  1.00  0.00    -0.067 N 
HETATM    2  H   UNL     1      27.470  45.125  49.887  1.00  0.00     0.280 HD
HETATM    3  C   UNL     1      26.620  43.294  49.498  1.00  0.00     0.270 C 
ENDROOT
BRANCH   1   4
HETATM    4  C   UNL     1      26.047  44.889  51.439  1.00  0.00     0.190 C 
HETATM    5  C   UNL     1      26.164  46.415  51.598  1.00  0.00     0.048 C 
HETATM    6  C   UNL     1      25.577  47.193  50.420  1.00  0.00     0.099 C 
HETATM    7  N   UNL     1      24.195  46.751  50.192  1.00  0.00    -0.268 NA
HETATM    8  C   UNL     1      24.055  45.324  49.888  1.00  0.00     0.099 C 
HETATM    9  C   UNL     1      24.603  44.517  51.062  1.00  0.00     0.048 C 
BRANCH   7  10
HETATM   10  C   UNL     1      23.439  47.612  49.381  1.00  0.00     0.109 A 
HETATM   11  N   UNL     1      23.639  48.940  49.457  1.00  0.00    -0.224 NA
HETATM   12  C   UNL     1      22.843  49.754  48.719  1.00  0.00     0.102 A 
HETATM   13  N   UNL     1      21.865  49.298  47.924  1.00  0.00    -0.348 N 
HETATM   14  C   UNL     1      23.039  51.231  48.840  1.00  0.00     0.091 C 
HETATM   15  C   UNL     1      21.642  47.978  47.821  1.00  0.00     0.009 A 
HETATM   16  H   UNL     1      21.288  49.962  47.411  1.00  0.00     0.167 HD
HETATM   17  C   UNL     1      20.535  47.493  46.942  1.00  0.00     0.068 C 
HETATM   18  C   UNL     1      22.437  47.101  48.563  1.00  0.00     0.069 A 
ENDBRANCH   7  10
ENDBRANCH   1   4
BRANCH   1  19
HETATM   19  C   UNL     1      28.335  43.807  51.225  1.00  0.00     0.277 C 
BRANCH  19  20
HETATM   20  C   UNL     1      28.031  42.656  52.112  1.00  0.00     0.016 A 
HETATM   21  C   UNL     1      28.304  42.510  53.507  1.00  0.00     0.096 A 
HETATM   22  N   UNL     1      27.974  41.285  53.930  1.00  0.00    -0.174 NA
HETATM   23  N   UNL     1      27.385  40.697  52.882  1.00  0.00    -0.288 N 
HETATM   24  H   UNL     1      26.997  39.763  53.004  1.00  0.00     0.188 HD
HETATM   25  C   UNL     1      27.424  41.465  51.756  1.00  0.00     0.120 A 
BRANCH  21  26
HETATM   26  C   UNL     1      28.918  43.463  54.426  1.00  0.00    -0.005 A 
HETATM   27  C   UNL     1      30.195  43.231  54.957  1.00  0.00     0.017 A 
HETATM   28  C   UNL     1      30.768  44.154  55.836  1.00  0.00     0.043 A 
HETATM   29  C   UNL     1      30.070  45.309  56.172  1.00  0.00     0.116 A 
HETATM   30  F   UNL     1      30.617  46.184  57.024  1.00  0.00    -0.206 F 
HETATM   31  C   UNL     1      28.815  45.567  55.635  1.00  0.00     0.043 A 
HETATM   32  C   UNL     1      28.239  44.646  54.759  1.00  0.00     0.017 A 
ENDBRANCH  21  26
ENDBRANCH  19  20
ENDBRANCH   1  19
TORSDOF 5
ENDMDL
MODEL 5
REMARK VINA RESULT:      -9.5     11.948     14.614
REMARK  5 active torsions:
REMARK  status: ('A' for Active; 'I' for Inactive)
REMARK    1  A    between atoms: C_8  and  N_9 
REMARK    2  A    between atoms: C_12  and  N_13 
REMARK    3  A    between atoms: N_13  and  C_15 
REMARK    4  A    between atoms: C_15  and  C_16 
REMARK    5  A    between atoms: C_17  and  C_18 
ROOT
HETATM    1  N   UNL     1      27.698  50.213  38.793  1.00  0.00    -0.067 N 
HETATM    2  H   UNL     1      28.449  49.513  38.813  1.00  0.00     0.280 HD
HETATM    3  C   UNL     1      26.758  49.797  37.680  1.00  0.00     0.270 C 
ENDROOT
BRANCH   1   4
HETATM    4  C   UNL     1      28.311  51.618  38.633  1.00  0.00     0.190 C 
HETATM    5  C   UNL     1      28.365  52.353  39.984  1.00  0.00     0.048 C 
HETATM    6  C   UNL     1      29.509  51.881  40.882  1.00  0.00     0.099 C 
HETATM    7  N   UNL     1      30.772  51.968  40.139  1.00  0.00    -0.268 NA
HETATM    8  C   UNL     1      30.815  51.161  38.916  1.00  0.00     0.099 C 
HETATM    9  C   UNL     1      29.703  51.629  37.981  1.00  0.00     0.048 C 
BRANCH   7  10
HETATM   10  C   UNL     1      31.922  51.898  40.942  1.00  0.00     0.109 A 
HETATM   11  N   UNL     1      33.117  51.665  40.370  1.00  0.00    -0.224 NA
HETATM   12  C   UNL     1      34.200  51.527  41.175  1.00  0.00     0.102 A 
HETATM   13  N   UNL     1      34.133  51.604  42.512  1.00  0.00    -0.348 N 
HETATM   14  C   UNL     1      35.518  51.226  40.538  1.00  0.00     0.091 C 
HETATM   15  C   UNL     1      32.957  51.839  43.114  1.00  0.00     0.009 A 
HETATM   16  H   UNL     1      34.980  51.471  43.062  1.00  0.00     0.167 HD
HETATM   17  C   UNL     1      32.904  51.904  44.607  1.00  0.00     0.068 C 
HETATM   18  C   UNL     1      31.814  51.989  42.326  1.00  0.00     0.069 A 
ENDBRANCH   7  10
ENDBRANCH   1   4
BRANCH   1  19
HETATM   19  C   UNL     1      26.969  50.077  40.142  1.00  0.00     0.277 C 
BRANCH  19  20
HETATM   20  C   UNL     1      26.784  48.674  40.593  1.00  0.00     0.016 A 
HETATM   21  C   UNL     1      27.776  47.734  41.009  1.00  0.00     0.096 A 
HETATM   22  N   UNL     1      27.228  46.537  41.240  1.00  0.00    -0.174 NA
HETATM   23  N   UNL     1      25.910  46.721  41.110  1.00  0.00    -0.288 N 
HETATM   24  H   UNL     1      25.288  45.939  41.306  1.00  0.00     0.188 HD
HETATM   25  C   UNL     1      25.592  47.979  40.689  1.00  0.00     0.120 A 
BRANCH  21  26
HETATM   26  C   UNL     1      29.219  47.917  41.132  1.00  0.00    -0.005 A 
HETATM   27  C   UNL     1      30.082  47.553  40.087  1.00  0.00     0.017 A 
HETATM   28  C   UNL     1      31.461  47.735  40.222  1.00  0.00     0.043 A 
HETATM   29  C   UNL     1      31.972  48.289  41.390  1.00  0.00     0.116 A 
HETATM   30  F   UNL     1      33.294  48.450  41.520  1.00  0.00    -0.206 F 
HETATM   31  C   UNL     1      31.129  48.680  42.423  1.00  0.00     0.043 A 
HETATM   32  C   UNL     1      29.751  48.497  42.293  1.00  0.00     0.017 A 
ENDBRANCH  21  26
ENDBRANCH  19  20
ENDBRANCH   1  19
TORSDOF 5
ENDMDL
MODEL 6
REMARK VINA RESULT:      -9.4     12.053     14.734
REMARK  5 active torsions:
REMARK  status: ('A' for Active; 'I' for Inactive)
REMARK    1  A    between atoms: C_8  and  N_9 
REMARK    2  A    between atoms: C_12  and  N_13 
REMARK    3  A    between atoms: N_13  and  C_15 
REMARK    4  A    between atoms: C_15  and  C_16 
REMARK    5  A    between atoms: C_17  and  C_18 
ROOT
HETATM    1  N   UNL     1      27.768  50.607  38.932  1.00  0.00    -0.067 N 
HETATM    2  H   UNL     1      28.448  49.860  38.746  1.00  0.00     0.280 HD
HETATM    3  C   UNL     1      26.618  50.383  37.971  1.00  0.00     0.270 C 
ENDROOT
BRANCH   1   4
HETATM    4  C   UNL     1      28.463  51.977  38.804  1.00  0.00     0.190 C 
HETATM    5  C   UNL     1      28.675  52.618  40.186  1.00  0.00     0.048 C 
HETATM    6  C   UNL     1      29.851  52.018  40.956  1.00  0.00     0.099 C 
HETATM    7  N   UNL     1      31.054  52.070  40.116  1.00  0.00    -0.268 NA
HETATM    8  C   UNL     1      30.943  51.341  38.850  1.00  0.00     0.099 C 
HETATM    9  C   UNL     1      29.796  51.940  38.039  1.00  0.00     0.048 C 
BRANCH   7  10
HETATM   10  C   UNL     1      32.256  51.874  40.815  1.00  0.00     0.109 A 
HETATM   11  N   UNL     1      32.260  51.938  42.158  1.00  0.00    -0.224 NA
HETATM   12  C   UNL     1      33.447  51.821  42.805  1.00  0.00     0.102 A 
HETATM   13  N   UNL     1      34.614  51.653  42.168  1.00  0.00    -0.348 N 
HETATM   14  C   UNL     1      33.453  51.937  44.295  1.00  0.00     0.091 C 
HETATM   15  C   UNL     1      34.646  51.580  40.829  1.00  0.00     0.009 A 
HETATM   16  H   UNL     1      35.475  51.593  42.710  1.00  0.00     0.167 HD
HETATM   17  C   UNL     1      35.961  51.409  40.139  1.00  0.00     0.068 C 
HETATM   18  C   UNL     1      33.448  51.695  40.120  1.00  0.00     0.069 A 
ENDBRANCH   7  10
ENDBRANCH   1   4
BRANCH   1  19
HETATM   19  C   UNL     1      27.274  50.369  40.370  1.00  0.00     0.277 C 
BRANCH  19  20
HETATM   20  C   UNL     1      27.060  48.939  40.709  1.00  0.00     0.016 A 
HETATM   21  C   UNL     1      28.032  47.949  41.052  1.00  0.00     0.096 A 
HETATM   22  N   UNL     1      27.460  46.749  41.188  1.00  0.00    -0.174 NA
HETATM   23  N   UNL     1      26.146  46.969  41.070  1.00  0.00    -0.288 N 
HETATM   24  H   UNL     1      25.508  46.186  41.202  1.00  0.00     0.188 HD
HETATM   25  C   UNL     1      25.855  48.262  40.748  1.00  0.00     0.120 A 
BRANCH  21  26
HETATM   26  C   UNL     1      29.477  48.094  41.192  1.00  0.00    -0.005 A 
HETATM   27  C   UNL     1      30.040  48.604  42.372  1.00  0.00     0.017 A 
HETATM   28  C   UNL     1      31.425  48.735  42.488  1.00  0.00     0.043 A 
HETATM   29  C   UNL     1      32.245  48.347  41.434  1.00  0.00     0.116 A 
HETATM   30  F   UNL     1      33.572  48.487  41.545  1.00  0.00    -0.206 F 
HETATM   31  C   UNL     1      31.708  47.815  40.269  1.00  0.00     0.043 A 
HETATM   32  C   UNL     1      30.323  47.685  40.148  1.00  0.00     0.017 A 
ENDBRANCH  21  26
ENDBRANCH  19  20
ENDBRANCH   1  19
TORSDOF 5
ENDMDL
MODEL 7
REMARK VINA RESULT:      -9.4     12.672     15.409
REMARK  5 active torsions:
REMARK  status: ('A' for Active; 'I' for Inactive)
REMARK    1  A    between atoms: C_8  and  N_9 
REMARK    2  A    between atoms: C_12  and  N_13 
REMARK    3  A    between atoms: N_13  and  C_15 
REMARK    4  A    between atoms: C_15  and  C_16 
REMARK    5  A    between atoms: C_17  and  C_18 
ROOT
HETATM    1  N   UNL     1      29.207  48.014  39.612  1.00  0.00    -0.067 N 
HETATM    2  H   UNL     1      29.013  48.895  40.104  1.00  0.00     0.280 HD
HETATM    3  C   UNL     1      28.771  46.902  40.544  1.00  0.00     0.270 C 
ENDROOT
BRANCH   1   4
HETATM    4  C   UNL     1      30.693  47.972  39.202  1.00  0.00     0.190 C 
HETATM    5  C   UNL     1      31.196  49.372  38.809  1.00  0.00     0.048 C 
HETATM    6  C   UNL     1      31.482  50.271  40.012  1.00  0.00     0.099 C 
HETATM    7  N   UNL     1      32.398  49.576  40.926  1.00  0.00    -0.268 NA
HETATM    8  C   UNL     1      31.890  48.302  41.443  1.00  0.00     0.099 C 
HETATM    9  C   UNL     1      31.624  47.367  40.265  1.00  0.00     0.048 C 
BRANCH   7  10
HETATM   10  C   UNL     1      33.006  50.408  41.879  1.00  0.00     0.109 A 
HETATM   11  N   UNL     1      34.327  50.645  41.805  1.00  0.00    -0.224 NA
HETATM   12  C   UNL     1      34.903  51.391  42.782  1.00  0.00     0.102 A 
HETATM   13  N   UNL     1      34.219  51.893  43.819  1.00  0.00    -0.348 N 
HETATM   14  C   UNL     1      36.380  51.616  42.719  1.00  0.00     0.091 C 
HETATM   15  C   UNL     1      32.899  51.679  43.921  1.00  0.00     0.009 A 
HETATM   16  H   UNL     1      34.714  52.428  44.531  1.00  0.00     0.167 HD
HETATM   17  C   UNL     1      32.159  52.235  45.095  1.00  0.00     0.068 C 
HETATM   18  C   UNL     1      32.262  50.917  42.939  1.00  0.00     0.069 A 
ENDBRANCH   7  10
ENDBRANCH   1   4
BRANCH   1  19
HETATM   19  C   UNL     1      28.292  48.020  38.375  1.00  0.00     0.277 C 
BRANCH  19  20
HETATM   20  C   UNL     1      26.933  48.564  38.628  1.00  0.00     0.016 A 
HETATM   21  C   UNL     1      26.566  49.859  39.107  1.00  0.00     0.096 A 
HETATM   22  N   UNL     1      25.247  49.936  39.306  1.00  0.00    -0.174 NA
HETATM   23  N   UNL     1      24.753  48.779  38.849  1.00  0.00    -0.288 N 
HETATM   24  H   UNL     1      23.743  48.648  38.850  1.00  0.00     0.188 HD
HETATM   25  C   UNL     1      25.727  47.906  38.463  1.00  0.00     0.120 A 
BRANCH  21  26
HETATM   26  C   UNL     1      27.425  50.992  39.435  1.00  0.00    -0.005 A 
HETATM   27  C   UNL     1      27.637  51.371  40.769  1.00  0.00     0.017 A 
HETATM   28  C   UNL     1      28.463  52.459  41.066  1.00  0.00     0.043 A 
HETATM   29  C   UNL     1      29.082  53.155  40.034  1.00  0.00     0.116 A 
HETATM   30  F   UNL     1      29.862  54.204  40.322  1.00  0.00    -0.206 F 
HETATM   31  C   UNL     1      28.905  52.777  38.710  1.00  0.00     0.043 A 
HETATM   32  C   UNL     1      28.079  51.692  38.409  1.00  0.00     0.017 A 
ENDBRANCH  21  26
ENDBRANCH  19  20
ENDBRANCH   1  19
TORSDOF 5
ENDMDL
MODEL 8
REMARK VINA RESULT:      -9.4      1.964      3.236
REMARK  5 active torsions:
REMARK  status: ('A' for Active; 'I' for Inactive)
REMARK    1  A    between atoms: C_8  and  N_9 
REMARK    2  A    between atoms: C_12  and  N_13 
REMARK    3  A    between atoms: N_13  and  C_15 
REMARK    4  A    between atoms: C_15  and  C_16 
REMARK    5  A    between atoms: C_17  and  C_18 
ROOT
HETATM    1  N   UNL     1      27.333  43.603  52.972  1.00  0.00    -0.067 N 
HETATM    2  H   UNL     1      27.932  44.342  52.585  1.00  0.00     0.280 HD
HETATM    3  C   UNL     1      28.240  42.419  53.241  1.00  0.00     0.270 C 
ENDROOT
BRANCH   1   4
HETATM    4  C   UNL     1      26.171  43.321  51.999  1.00  0.00     0.190 C 
HETATM    5  C   UNL     1      24.928  44.147  52.371  1.00  0.00     0.048 C 
HETATM    6  C   UNL     1      25.025  45.611  51.941  1.00  0.00     0.099 C 
HETATM    7  N   UNL     1      25.337  45.672  50.507  1.00  0.00    -0.268 NA
HETATM    8  C   UNL     1      26.595  45.022  50.131  1.00  0.00     0.099 C 
HETATM    9  C   UNL     1      26.519  43.547  50.518  1.00  0.00     0.048 C 
BRANCH   7  10
HETATM   10  C   UNL     1      25.114  46.927  49.920  1.00  0.00     0.109 A 
HETATM   11  N   UNL     1      23.869  47.272  49.546  1.00  0.00    -0.224 NA
HETATM   12  C   UNL     1      23.694  48.459  48.912  1.00  0.00     0.102 A 
HETATM   13  N   UNL     1      24.701  49.298  48.635  1.00  0.00    -0.348 N 
HETATM   14  C   UNL     1      22.315  48.819  48.459  1.00  0.00     0.091 C 
HETATM   15  C   UNL     1      25.955  48.986  48.998  1.00  0.00     0.009 A 
HETATM   16  H   UNL     1      24.507  50.165  48.137  1.00  0.00     0.167 HD
HETATM   17  C   UNL     1      27.066  49.929  48.664  1.00  0.00     0.068 C 
HETATM   18  C   UNL     1      26.185  47.775  49.654  1.00  0.00     0.069 A 
ENDBRANCH   7  10
ENDBRANCH   1   4
BRANCH   1  19
HETATM   19  C   UNL     1      26.812  44.151  54.313  1.00  0.00     0.277 C 
BRANCH  19  20
HETATM   20  C   UNL     1      27.272  45.528  54.624  1.00  0.00     0.016 A 
HETATM   21  C   UNL     1      28.440  45.937  55.338  1.00  0.00     0.096 A 
HETATM   22  N   UNL     1      28.454  47.263  55.504  1.00  0.00    -0.174 NA
HETATM   23  N   UNL     1      27.405  47.718  54.811  1.00  0.00    -0.288 N 
HETATM   24  H   UNL     1      27.260  48.724  54.753  1.00  0.00     0.188 HD
HETATM   25  C   UNL     1      26.642  46.713  54.291  1.00  0.00     0.120 A 
BRANCH  21  26
HETATM   26  C   UNL     1      29.498  45.114  55.914  1.00  0.00    -0.005 A 
HETATM   27  C   UNL     1      29.945  45.329  57.226  1.00  0.00     0.017 A 
HETATM   28  C   UNL     1      30.959  44.531  57.761  1.00  0.00     0.043 A 
HETATM   29  C   UNL     1      31.515  43.515  56.992  1.00  0.00     0.116 A 
HETATM   30  F   UNL     1      32.495  42.761  57.504  1.00  0.00    -0.206 F 
HETATM   31  C   UNL     1      31.066  43.270  55.700  1.00  0.00     0.043 A 
HETATM   32  C   UNL     1      30.055  44.068  55.161  1.00  0.00     0.017 A 
ENDBRANCH  21  26
ENDBRANCH  19  20
ENDBRANCH   1  19
TORSDOF 5
ENDMDL
MODEL 9
REMARK VINA RESULT:      -9.2     12.990     14.450
REMARK  5 active torsions:
REMARK  status: ('A' for Active; 'I' for Inactive)
REMARK    1  A    between atoms: C_8  and  N_9 
REMARK    2  A    between atoms: C_12  and  N_13 
REMARK    3  A    between atoms: N_13  and  C_15 
REMARK    4  A    between atoms: C_15  and  C_16 
REMARK    5  A    between atoms: C_17  and  C_18 
ROOT
HETATM    1  N   UNL     1      30.608  51.659  41.219  1.00  0.00    -0.067 N 
HETATM    2  H   UNL     1      30.202  50.742  41.442  1.00  0.00     0.280 HD
HETATM    3  C   UNL     1      31.114  52.229  42.528  1.00  0.00     0.270 C 
ENDROOT
BRANCH   1   4
HETATM    4  C   UNL     1      29.556  52.525  40.498  1.00  0.00     0.190 C 
HETATM    5  C   UNL     1      29.485  52.175  39.002  1.00  0.00     0.048 C 
HETATM    6  C   UNL     1      28.717  50.884  38.718  1.00  0.00     0.099 C 
HETATM    7  N   UNL     1      27.391  50.965  39.344  1.00  0.00    -0.268 NA
HETATM    8  C   UNL     1      27.415  51.150  40.797  1.00  0.00     0.099 C 
HETATM    9  C   UNL     1      28.149  52.451  41.114  1.00  0.00     0.048 C 
BRANCH   7  10
HETATM   10  C   UNL     1      26.472  50.012  38.878  1.00  0.00     0.109 A 
HETATM   11  N   UNL     1      25.616  49.438  39.742  1.00  0.00    -0.224 NA
HETATM   12  C   UNL     1      24.791  48.466  39.280  1.00  0.00     0.102 A 
HETATM   13  N   UNL     1      24.793  48.046  38.007  1.00  0.00    -0.348 N 
HETATM   14  C   UNL     1      23.871  47.800  40.253  1.00  0.00     0.091 C 
HETATM   15  C   UNL     1      25.632  48.600  37.118  1.00  0.00     0.009 A 
HETATM   16  H   UNL     1      24.163  47.297  37.727  1.00  0.00     0.167 HD
HETATM   17  C   UNL     1      25.629  48.105  35.708  1.00  0.00     0.068 C 
HETATM   18  C   UNL     1      26.501  49.606  37.548  1.00  0.00     0.069 A 
ENDBRANCH   7  10
ENDBRANCH   1   4
BRANCH   1  19
HETATM   19  C   UNL     1      31.809  51.368  40.301  1.00  0.00     0.277 C 
BRANCH  19  20
HETATM   20  C   UNL     1      32.600  50.176  40.697  1.00  0.00     0.016 A 
HETATM   21  C   UNL     1      32.201  48.804  40.704  1.00  0.00     0.096 A 
HETATM   22  N   UNL     1      33.160  48.033  41.227  1.00  0.00    -0.174 NA
HETATM   23  N   UNL     1      34.199  48.852  41.431  1.00  0.00    -0.288 N 
HETATM   24  H   UNL     1      35.071  48.454  41.774  1.00  0.00     0.188 HD
HETATM   25  C   UNL     1      33.903  50.156  41.161  1.00  0.00     0.120 A 
BRANCH  21  26
HETATM   26  C   UNL     1      30.930  48.216  40.293  1.00  0.00    -0.005 A 
HETATM   27  C   UNL     1      29.852  48.135  41.187  1.00  0.00     0.017 A 
HETATM   28  C   UNL     1      28.642  47.569  40.777  1.00  0.00     0.043 A 
HETATM   29  C   UNL     1      28.508  47.098  39.475  1.00  0.00     0.116 A 
HETATM   30  F   UNL     1      27.352  46.545  39.091  1.00  0.00    -0.206 F 
HETATM   31  C   UNL     1      29.556  47.196  38.569  1.00  0.00     0.043 A 
HETATM   32  C   UNL     1      30.768  47.758  38.977  1.00  0.00     0.017 A 
ENDBRANCH  21  26
ENDBRANCH  19  20
ENDBRANCH   1  19
TORSDOF 5
ENDMDL
MODEL 10
REMARK VINA RESULT:      -9.2      1.634      2.959
REMARK  5 active torsions:
REMARK  status: ('A' for Active; 'I' for Inactive)
REMARK    1  A    between atoms: C_8  and  N_9 
REMARK    2  A    between atoms: C_12  and  N_13 
REMARK    3  A    between atoms: N_13  and  C_15 
REMARK    4  A    between atoms: C_15  and  C_16 
REMARK    5  A    between atoms: C_17  and  C_18 
ROOT
HETATM    1  N   UNL     1      26.185  45.000  51.179  1.00  0.00    -0.067 N 
HETATM    2  H   UNL     1      25.542  44.207  51.294  1.00  0.00     0.280 HD
HETATM    3  C   UNL     1      25.784  46.026  52.219  1.00  0.00     0.270 C 
ENDROOT
BRANCH   1   4
HETATM    4  C   UNL     1      26.130  45.497  49.721  1.00  0.00     0.190 C 
HETATM    5  C   UNL     1      24.957  44.852  48.963  1.00  0.00     0.048 C 
HETATM    6  C   UNL     1      23.603  45.477  49.300  1.00  0.00     0.099 C 
HETATM    7  N   UNL     1      23.678  46.929  49.097  1.00  0.00    -0.268 NA
HETATM    8  C   UNL     1      24.688  47.605  49.915  1.00  0.00     0.099 C 
HETATM    9  C   UNL     1      26.060  47.027  49.578  1.00  0.00     0.048 C 
BRANCH   7  10
HETATM   10  C   UNL     1      22.431  47.570  49.035  1.00  0.00     0.109 A 
HETATM   11  N   UNL     1      21.327  46.849  48.768  1.00  0.00    -0.224 NA
HETATM   12  C   UNL     1      20.146  47.504  48.639  1.00  0.00     0.102 A 
HETATM   13  N   UNL     1      20.029  48.834  48.759  1.00  0.00    -0.348 N 
HETATM   14  C   UNL     1      18.930  46.704  48.299  1.00  0.00     0.091 C 
HETATM   15  C   UNL     1      21.109  49.582  49.030  1.00  0.00     0.009 A 
HETATM   16  H   UNL     1      19.117  49.268  48.631  1.00  0.00     0.167 HD
HETATM   17  C   UNL     1      20.958  51.065  49.142  1.00  0.00     0.068 C 
HETATM   18  C   UNL     1      22.348  48.952  49.171  1.00  0.00     0.069 A 
ENDBRANCH   7  10
ENDBRANCH   1   4
BRANCH   1  19
HETATM   19  C   UNL     1      27.582  44.454  51.525  1.00  0.00     0.277 C 
BRANCH  19  20
HETATM   20  C   UNL     1      27.568  43.121  52.178  1.00  0.00     0.016 A 
HETATM   21  C   UNL     1      28.132  42.737  53.434  1.00  0.00     0.096 A 
HETATM   22  N   UNL     1      28.003  41.421  53.630  1.00  0.00    -0.174 NA
HETATM   23  N   UNL     1      27.265  40.982  52.605  1.00  0.00    -0.288 N 
HETATM   24  H   UNL     1      26.993  40.001  52.587  1.00  0.00     0.188 HD
HETATM   25  C   UNL     1      27.006  41.957  51.686  1.00  0.00     0.120 A 
BRANCH  21  26
HETATM   26  C   UNL     1      28.835  43.560  54.412  1.00  0.00    -0.005 A 
HETATM   27  C   UNL     1      30.120  43.211  54.856  1.00  0.00     0.017 A 
HETATM   28  C   UNL     1      30.779  44.010  55.793  1.00  0.00     0.043 A 
HETATM   29  C   UNL     1      30.161  45.159  56.275  1.00  0.00     0.116 A 
HETATM   30  F   UNL     1      30.791  45.915  57.182  1.00  0.00    -0.206 F 
HETATM   31  C   UNL     1      28.901  45.534  55.827  1.00  0.00     0.043 A 
HETATM   32  C   UNL     1      28.238  44.736  54.892  1.00  0.00     0.017 A 
ENDBRANCH  21  26
ENDBRANCH  19  20
ENDBRANCH   1  19
TORSDOF 5
ENDMDL
