MODEL 1
REMARK VINA RESULT:     -10.0      0.000      0.000
REMARK  8 active torsions:
REMARK  status: ('A' for Active; 'I' for Inactive)
REMARK    1  A    between atoms: C_2  and  N_3 
REMARK       I    between atoms: N_3  and  C_4 
REMARK       I    between atoms: C_4  and  N_5 
REMARK    2  A    between atoms: N_8  and  C_9 
REMARK    3  A    between atoms: C_11  and  C_12 
REMARK    4  A    between atoms: C_19  and  C_20 
REMARK    5  A    between atoms: C_20  and  O_21 
REMARK    6  A    between atoms: C_23  and  C_24 
REMARK    7  A    between atoms: C_24  and  C_25 
REMARK    8  A    between atoms: C_27  and  O_28 
ROOT
HETATM    1  C   UNL     1      25.806  44.733  51.565  1.00  0.00     0.137 A 
HETATM    2  N   UNL     1      25.678  45.675  50.610  1.00  0.00    -0.210 NA
HETATM    3  C   UNL     1      25.715  46.969  50.982  1.00  0.00     0.162 A 
HETATM    4  N   UNL     1      25.827  47.385  52.252  1.00  0.00    -0.230 NA
HETATM    5  C   UNL     1      25.984  46.447  53.207  1.00  0.00     0.071 A 
HETATM    6  C   UNL     1      25.996  45.080  52.911  1.00  0.00     0.019 A 
ENDROOT
BRANCH   1   7
HETATM    7  N   UNL     1      25.836  43.403  51.151  1.00  0.00    -0.362 N 
HETATM    8  C   UNL     1      24.607  42.801  50.579  1.00  0.00     0.144 C 
HETATM    9  C   UNL     1      24.726  42.489  49.076  1.00  0.00     0.147 C 
HETATM   10  N   UNL     1      25.972  41.780  48.794  1.00  0.00    -0.331 N 
HETATM   11  C   UNL     1      25.914  40.415  48.576  1.00  0.00     0.318 C 
HETATM   12  C   UNL     1      27.143  42.578  49.170  1.00  0.00     0.147 C 
HETATM   13  N   UNL     1      27.122  39.770  48.535  1.00  0.00    -0.339 N 
HETATM   14  O   UNL     1      24.851  39.824  48.409  1.00  0.00    -0.247 OA
HETATM   15  H   UNL     1      27.857  40.174  49.088  1.00  0.00     0.164 HD
HETATM   16  C   UNL     1      27.125  42.850  50.684  1.00  0.00     0.144 C 
BRANCH  13  17
HETATM   17  C   UNL     1      27.275  38.341  48.267  1.00  0.00     0.078 C 
HETATM   18  C   UNL     1      27.073  37.476  49.511  1.00  0.00     0.032 C 
HETATM   19  C   UNL     1      28.589  38.014  47.563  1.00  0.00     0.032 C 
ENDBRANCH  13  17
ENDBRANCH   1   7
BRANCH   6  20
HETATM   20  C   UNL     1      26.318  44.056  53.974  1.00  0.00     0.083 C 
BRANCH  20  21
HETATM   21  C   UNL     1      27.777  43.802  54.318  1.00  0.00    -0.051 A 
HETATM   22  C   UNL     1      28.438  44.774  55.093  1.00  0.00     0.044 A 
HETATM   23  C   UNL     1      29.780  44.626  55.447  1.00  0.00     0.068 A 
HETATM   24  C   UNL     1      30.468  43.483  55.045  1.00  0.00     0.037 A 
HETATM   25  C   UNL     1      29.832  42.508  54.276  1.00  0.00     0.003 A 
HETATM   26  C   UNL     1      28.496  42.669  53.909  1.00  0.00     0.007 A 
BRANCH  23  27
HETATM   27  O   UNL     1      30.517  45.515  56.181  1.00  0.00    -0.356 OA
HETATM   28  C   UNL     1      30.214  45.601  57.568  1.00  0.00     0.210 C 
ENDBRANCH  23  27
ENDBRANCH  20  21
ENDBRANCH   6  20
BRANCH   3  29
HETATM   29  C   UNL     1      25.702  48.011  49.933  1.00  0.00     0.012 A 
HETATM   30  C   UNL     1      26.886  48.616  49.470  1.00  0.00     0.015 A 
HETATM   31  C   UNL     1      26.860  49.626  48.499  1.00  0.00     0.001 A 
HETATM   32  C   UNL     1      25.647  50.060  47.971  1.00  0.00     0.000 A 
HETATM   33  C   UNL     1      24.460  49.479  48.404  1.00  0.00     0.001 A 
HETATM   34  C   UNL     1      24.490  48.469  49.371  1.00  0.00     0.015 A 
ENDBRANCH   3  29
BRANCH   5  35
HETATM   35  C   UNL     1      26.177  46.991  54.607  1.00  0.00     0.226 C 
BRANCH  35  36
HETATM   36  O   UNL     1      25.723  48.343  54.691  1.00  0.00    -0.390 OA
HETATM   37  C   UNL     1      26.135  48.951  55.908  1.00  0.00     0.201 C 
ENDBRANCH  35  36
ENDBRANCH   5  35
TORSDOF 8
ENDMDL
MODEL 2
REMARK VINA RESULT:      -9.2      1.933      6.405
REMARK  8 active torsions:
REMARK  status: ('A' for Active; 'I' for Inactive)
REMARK    1  A    between atoms: C_2  and  N_3 
REMARK       I    between atoms: N_3  and  C_4 
REMARK       I    between atoms: C_4  and  N_5 
REMARK    2  A    between atoms: N_8  and  C_9 
REMARK    3  A    between atoms: C_11  and  C_12 
REMARK    4  A    between atoms: C_19  and  C_20 
REMARK    5  A    between atoms: C_20  and  O_21 
REMARK    6  A    between atoms: C_23  and  C_24 
REMARK    7  A    between atoms: C_24  and  C_25 
REMARK    8  A    between atoms: C_27  and  O_28 
ROOT
HETATM    1  C   UNL     1      27.403  44.520  52.400  1.00  0.00     0.137 A 
HETATM    2  N   UNL     1      28.371  44.224  53.290  1.00  0.00    -0.210 NA
HETATM    3  C   UNL     1      28.512  45.021  54.367  1.00  0.00     0.162 A 
HETATM    4  N   UNL     1      27.780  46.122  54.591  1.00  0.00    -0.230 NA
HETATM    5  C   UNL     1      26.793  46.405  53.718  1.00  0.00     0.071 A 
HETATM    6  C   UNL     1      26.547  45.614  52.592  1.00  0.00     0.019 A 
ENDROOT
BRANCH   1   7
HETATM    7  N   UNL     1      27.228  43.643  51.332  1.00  0.00    -0.362 N 
HETATM    8  C   UNL     1      27.998  42.375  51.309  1.00  0.00     0.144 C 
HETATM    9  C   UNL     1      27.119  41.127  51.503  1.00  0.00     0.147 C 
HETATM   10  N   UNL     1      25.951  41.177  50.627  1.00  0.00    -0.331 N 
HETATM   11  C   UNL     1      25.956  40.399  49.483  1.00  0.00     0.318 C 
HETATM   12  C   UNL     1      25.117  42.350  50.907  1.00  0.00     0.147 C 
HETATM   13  N   UNL     1      24.945  40.647  48.592  1.00  0.00    -0.339 N 
HETATM   14  O   UNL     1      26.799  39.527  49.290  1.00  0.00    -0.247 OA
HETATM   15  H   UNL     1      24.594  41.588  48.575  1.00  0.00     0.164 HD
HETATM   16  C   UNL     1      25.919  43.637  50.647  1.00  0.00     0.144 C 
BRANCH  13  17
HETATM   17  C   UNL     1      24.749  39.898  47.352  1.00  0.00     0.078 C 
HETATM   18  C   UNL     1      25.631  40.397  46.208  1.00  0.00     0.032 C 
HETATM   19  C   UNL     1      23.281  39.825  46.938  1.00  0.00     0.032 C 
ENDBRANCH  13  17
ENDBRANCH   1   7
BRANCH   6  20
HETATM   20  C   UNL     1      25.346  45.867  51.710  1.00  0.00     0.083 C 
BRANCH  20  21
HETATM   21  C   UNL     1      25.415  47.002  50.700  1.00  0.00    -0.051 A 
HETATM   22  C   UNL     1      24.196  47.492  50.195  1.00  0.00     0.044 A 
HETATM   23  C   UNL     1      24.166  48.526  49.257  1.00  0.00     0.068 A 
HETATM   24  C   UNL     1      25.365  49.097  48.835  1.00  0.00     0.037 A 
HETATM   25  C   UNL     1      26.583  48.625  49.322  1.00  0.00     0.003 A 
HETATM   26  C   UNL     1      26.609  47.579  50.245  1.00  0.00     0.007 A 
BRANCH  23  27
HETATM   27  O   UNL     1      23.040  49.064  48.695  1.00  0.00    -0.356 OA
HETATM   28  C   UNL     1      21.931  48.190  48.528  1.00  0.00     0.210 C 
ENDBRANCH  23  27
ENDBRANCH  20  21
ENDBRANCH   6  20
BRANCH   3  29
HETATM   29  C   UNL     1      29.485  44.637  55.413  1.00  0.00     0.012 A 
HETATM   30  C   UNL     1      29.710  45.438  56.549  1.00  0.00     0.015 A 
HETATM   31  C   UNL     1      30.657  45.081  57.518  1.00  0.00     0.001 A 
HETATM   32  C   UNL     1      31.407  43.917  57.372  1.00  0.00     0.000 A 
HETATM   33  C   UNL     1      31.204  43.103  56.263  1.00  0.00     0.001 A 
HETATM   34  C   UNL     1      30.255  43.459  55.299  1.00  0.00     0.015 A 
ENDBRANCH   3  29
BRANCH   5  35
HETATM   35  C   UNL     1      25.961  47.621  54.072  1.00  0.00     0.226 C 
BRANCH  35  36
HETATM   36  O   UNL     1      25.841  47.756  55.490  1.00  0.00    -0.390 OA
HETATM   37  C   UNL     1      26.270  49.040  55.923  1.00  0.00     0.201 C 
ENDBRANCH  35  36
ENDBRANCH   5  35
TORSDOF 8
ENDMDL
MODEL 3
REMARK VINA RESULT:      -9.1      2.074      3.056
REMARK  8 active torsions:
REMARK  status: ('A' for Active; 'I' for Inactive)
REMARK    1  A    between atoms: C_2  and  N_3 
REMARK       I    between atoms: N_3  and  C_4 
REMARK       I    between atoms: C_4  and  N_5 
REMARK    2  A    between atoms: N_8  and  C_9 
REMARK    3  A    between atoms: C_11  and  C_12 
REMARK    4  A    between atoms: C_19  and  C_20 
REMARK    5  A    between atoms: C_20  and  O_21 
REMARK    6  A    between atoms: C_23  and  C_24 
REMARK    7  A    between atoms: C_24  and  C_25 
REMARK    8  A    between atoms: C_27  and  O_28 
ROOT
HETATM    1  C   UNL     1      24.806  44.984  50.896  1.00  0.00     0.137 A 
HETATM    2  N   UNL     1      24.694  46.025  50.049  1.00  0.00    -0.210 NA
HETATM    3  C   UNL     1      25.045  47.248  50.491  1.00  0.00     0.162 A 
HETATM    4  N   UNL     1      25.459  47.508  51.739  1.00  0.00    -0.230 NA
HETATM    5  C   UNL     1      25.599  46.465  52.582  1.00  0.00     0.071 A 
HETATM    6  C   UNL     1      25.295  45.155  52.200  1.00  0.00     0.019 A 
ENDROOT
BRANCH   1   7
HETATM    7  N   UNL     1      24.505  43.719  50.397  1.00  0.00    -0.362 N 
HETATM    8  C   UNL     1      23.092  43.270  50.380  1.00  0.00     0.144 C 
HETATM    9  C   UNL     1      22.510  43.146  48.960  1.00  0.00     0.147 C 
HETATM   10  N   UNL     1      23.423  42.404  48.094  1.00  0.00    -0.331 N 
HETATM   11  C   UNL     1      23.126  41.084  47.806  1.00  0.00     0.318 C 
HETATM   12  C   UNL     1      24.722  43.075  47.979  1.00  0.00     0.147 C 
HETATM   13  N   UNL     1      24.116  40.377  47.176  1.00  0.00    -0.339 N 
HETATM   14  O   UNL     1      22.037  40.585  48.077  1.00  0.00    -0.247 OA
HETATM   15  H   UNL     1      25.058  40.662  47.378  1.00  0.00     0.164 HD
HETATM   16  C   UNL     1      25.394  43.153  49.361  1.00  0.00     0.144 C 
BRANCH  13  17
HETATM   17  C   UNL     1      23.978  38.987  46.744  1.00  0.00     0.078 C 
HETATM   18  C   UNL     1      25.271  38.186  46.889  1.00  0.00     0.032 C 
HETATM   19  C   UNL     1      23.397  38.866  45.338  1.00  0.00     0.032 C 
ENDBRANCH  13  17
ENDBRANCH   1   7
BRANCH   6  20
HETATM   20  C   UNL     1      25.598  43.988  53.111  1.00  0.00     0.083 C 
BRANCH  20  21
HETATM   21  C   UNL     1      26.992  43.385  53.079  1.00  0.00    -0.051 A 
HETATM   22  C   UNL     1      27.168  42.200  52.338  1.00  0.00     0.044 A 
HETATM   23  C   UNL     1      28.413  41.573  52.261  1.00  0.00     0.068 A 
HETATM   24  C   UNL     1      29.504  42.146  52.910  1.00  0.00     0.037 A 
HETATM   25  C   UNL     1      29.352  43.319  53.649  1.00  0.00     0.003 A 
HETATM   26  C   UNL     1      28.102  43.932  53.739  1.00  0.00     0.007 A 
BRANCH  23  27
HETATM   27  O   UNL     1      28.685  40.416  51.584  1.00  0.00    -0.356 OA
HETATM   28  C   UNL     1      28.235  40.345  50.237  1.00  0.00     0.210 C 
ENDBRANCH  23  27
ENDBRANCH  20  21
ENDBRANCH   6  20
BRANCH   3  29
HETATM   29  C   UNL     1      25.047  48.377  49.535  1.00  0.00     0.012 A 
HETATM   30  C   UNL     1      23.853  48.921  49.024  1.00  0.00     0.015 A 
HETATM   31  C   UNL     1      23.867  49.968  48.093  1.00  0.00     0.001 A 
HETATM   32  C   UNL     1      25.076  50.494  47.646  1.00  0.00     0.000 A 
HETATM   33  C   UNL     1      26.272  49.981  48.135  1.00  0.00     0.001 A 
HETATM   34  C   UNL     1      26.255  48.938  49.067  1.00  0.00     0.015 A 
ENDBRANCH   3  29
BRANCH   5  35
HETATM   35  C   UNL     1      26.138  46.823  53.952  1.00  0.00     0.226 C 
BRANCH  35  36
HETATM   36  O   UNL     1      25.622  48.083  54.386  1.00  0.00    -0.390 OA
HETATM   37  C   UNL     1      26.314  48.557  55.532  1.00  0.00     0.201 C 
ENDBRANCH  35  36
ENDBRANCH   5  35
TORSDOF 8
ENDMDL
MODEL 4
REMARK VINA RESULT:      -9.0      2.461      6.895
REMARK  8 active torsions:
REMARK  status: ('A' for Active; 'I' for Inactive)
REMARK    1  A    between atoms: C_2  and  N_3 
REMARK       I    between atoms: N_3  and  C_4 
REMARK       I    between atoms: C_4  and  N_5 
REMARK    2  A    between atoms: N_8  and  C_9 
REMARK    3  A    between atoms: C_11  and  C_12 
REMARK    4  A    between atoms: C_19  and  C_20 
REMARK    5  A    between atoms: C_20  and  O_21 
REMARK    6  A    between atoms: C_23  and  C_24 
REMARK    7  A    between atoms: C_24  and  C_25 
REMARK    8  A    between atoms: C_27  and  O_28 
ROOT
HETATM    1  C   UNL     1      25.808  44.007  51.033  1.00  0.00     0.137 A 
HETATM    2  N   UNL     1      26.064  43.383  49.867  1.00  0.00    -0.210 NA
HETATM    3  C   UNL     1      26.856  42.293  49.888  1.00  0.00     0.162 A 
HETATM    4  N   UNL     1      27.447  41.811  50.991  1.00  0.00    -0.230 NA
HETATM    5  C   UNL     1      27.171  42.417  52.164  1.00  0.00     0.071 A 
HETATM    6  C   UNL     1      26.330  43.531  52.245  1.00  0.00     0.019 A 
ENDROOT
BRANCH   1   7
HETATM    7  N   UNL     1      24.931  45.089  50.999  1.00  0.00    -0.362 N 
HETATM    8  C   UNL     1      25.486  46.464  50.963  1.00  0.00     0.144 C 
HETATM    9  C   UNL     1      25.239  47.184  49.625  1.00  0.00     0.147 C 
HETATM   10  N   UNL     1      23.842  47.052  49.219  1.00  0.00    -0.331 N 
HETATM   11  C   UNL     1      23.001  48.135  49.400  1.00  0.00     0.318 C 
HETATM   12  C   UNL     1      23.464  45.646  49.037  1.00  0.00     0.147 C 
HETATM   13  N   UNL     1      21.667  47.889  49.210  1.00  0.00    -0.339 N 
HETATM   14  O   UNL     1      23.426  49.250  49.691  1.00  0.00    -0.247 OA
HETATM   15  H   UNL     1      21.357  46.956  49.415  1.00  0.00     0.164 HD
HETATM   16  C   UNL     1      23.609  44.890  50.369  1.00  0.00     0.144 C 
BRANCH  13  17
HETATM   17  C   UNL     1      20.627  48.912  49.305  1.00  0.00     0.078 C 
HETATM   18  C   UNL     1      19.304  48.370  49.845  1.00  0.00     0.032 C 
HETATM   19  C   UNL     1      20.430  49.671  47.995  1.00  0.00     0.032 C 
ENDBRANCH  13  17
ENDBRANCH   1   7
BRANCH   6  20
HETATM   20  C   UNL     1      25.920  44.101  53.583  1.00  0.00     0.083 C 
BRANCH  20  21
HETATM   21  C   UNL     1      26.678  45.304  54.121  1.00  0.00    -0.051 A 
HETATM   22  C   UNL     1      27.957  45.073  54.662  1.00  0.00     0.044 A 
HETATM   23  C   UNL     1      28.720  46.118  55.187  1.00  0.00     0.068 A 
HETATM   24  C   UNL     1      28.212  47.416  55.151  1.00  0.00     0.037 A 
HETATM   25  C   UNL     1      26.946  47.665  54.621  1.00  0.00     0.003 A 
HETATM   26  C   UNL     1      26.181  46.615  54.114  1.00  0.00     0.007 A 
BRANCH  23  27
HETATM   27  O   UNL     1      29.963  46.000  55.746  1.00  0.00    -0.356 OA
HETATM   28  C   UNL     1      30.011  45.683  57.132  1.00  0.00     0.210 C 
ENDBRANCH  23  27
ENDBRANCH  20  21
ENDBRANCH   6  20
BRANCH   3  29
HETATM   29  C   UNL     1      27.043  41.526  48.637  1.00  0.00     0.012 A 
HETATM   30  C   UNL     1      26.035  41.440  47.659  1.00  0.00     0.015 A 
HETATM   31  C   UNL     1      26.210  40.684  46.493  1.00  0.00     0.001 A 
HETATM   32  C   UNL     1      27.397  39.988  46.280  1.00  0.00     0.000 A 
HETATM   33  C   UNL     1      28.414  40.056  47.225  1.00  0.00     0.001 A 
HETATM   34  C   UNL     1      28.238  40.816  48.387  1.00  0.00     0.015 A 
ENDBRANCH   3  29
BRANCH   5  35
HETATM   35  C   UNL     1      27.814  41.776  53.377  1.00  0.00     0.226 C 
BRANCH  35  36
HETATM   36  O   UNL     1      29.171  41.422  53.102  1.00  0.00    -0.390 OA
HETATM   37  C   UNL     1      30.027  42.553  53.192  1.00  0.00     0.201 C 
ENDBRANCH  35  36
ENDBRANCH   5  35
TORSDOF 8
ENDMDL
MODEL 5
REMARK VINA RESULT:      -8.4      5.191      8.981
REMARK  8 active torsions:
REMARK  status: ('A' for Active; 'I' for Inactive)
REMARK    1  A    between atoms: C_2  and  N_3 
REMARK       I    between atoms: N_3  and  C_4 
REMARK       I    between atoms: C_4  and  N_5 
REMARK    2  A    between atoms: N_8  and  C_9 
REMARK    3  A    between atoms: C_11  and  C_12 
REMARK    4  A    between atoms: C_19  and  C_20 
REMARK    5  A    between atoms: C_20  and  O_21 
REMARK    6  A    between atoms: C_23  and  C_24 
REMARK    7  A    between atoms: C_24  and  C_25 
REMARK    8  A    between atoms: C_27  and  O_28 
ROOT
HETATM    1  C   UNL     1      22.775  46.514  48.721  1.00  0.00     0.137 A 
HETATM    2  N   UNL     1      23.620  45.941  49.601  1.00  0.00    -0.210 NA
HETATM    3  C   UNL     1      24.539  46.721  50.203  1.00  0.00     0.162 A 
HETATM    4  N   UNL     1      24.700  48.028  49.951  1.00  0.00    -0.230 NA
HETATM    5  C   UNL     1      23.839  48.610  49.092  1.00  0.00     0.071 A 
HETATM    6  C   UNL     1      22.829  47.889  48.449  1.00  0.00     0.019 A 
ENDROOT
BRANCH   1   7
HETATM    7  N   UNL     1      21.788  45.704  48.164  1.00  0.00    -0.362 N 
HETATM    8  C   UNL     1      20.473  45.604  48.842  1.00  0.00     0.144 C 
HETATM    9  C   UNL     1      19.328  46.260  48.049  1.00  0.00     0.147 C 
HETATM   10  N   UNL     1      19.358  45.831  46.653  1.00  0.00    -0.331 N 
HETATM   11  C   UNL     1      18.445  44.876  46.241  1.00  0.00     0.318 C 
HETATM   12  C   UNL     1      20.616  46.206  46.000  1.00  0.00     0.147 C 
HETATM   13  N   UNL     1      18.656  44.353  44.992  1.00  0.00    -0.339 N 
HETATM   14  O   UNL     1      17.495  44.536  46.941  1.00  0.00    -0.247 OA
HETATM   15  H   UNL     1      19.611  44.321  44.683  1.00  0.00     0.164 HD
HETATM   16  C   UNL     1      21.796  45.509  46.699  1.00  0.00     0.144 C 
BRANCH  13  17
HETATM   17  C   UNL     1      17.775  43.373  44.360  1.00  0.00     0.078 C 
HETATM   18  C   UNL     1      18.540  42.267  43.632  1.00  0.00     0.032 C 
HETATM   19  C   UNL     1      16.730  44.021  43.456  1.00  0.00     0.032 C 
ENDBRANCH  13  17
ENDBRANCH   1   7
BRANCH   6  20
HETATM   20  C   UNL     1      21.788  48.589  47.606  1.00  0.00     0.083 C 
BRANCH  20  21
HETATM   21  C   UNL     1      20.881  49.609  48.273  1.00  0.00    -0.051 A 
HETATM   22  C   UNL     1      20.202  49.207  49.440  1.00  0.00     0.044 A 
HETATM   23  C   UNL     1      19.342  50.076  50.113  1.00  0.00     0.068 A 
HETATM   24  C   UNL     1      19.173  51.373  49.632  1.00  0.00     0.037 A 
HETATM   25  C   UNL     1      19.835  51.792  48.478  1.00  0.00     0.003 A 
HETATM   26  C   UNL     1      20.680  50.913  47.798  1.00  0.00     0.007 A 
BRANCH  23  27
HETATM   27  O   UNL     1      18.627  49.781  51.241  1.00  0.00    -0.356 OA
HETATM   28  C   UNL     1      18.453  48.402  51.542  1.00  0.00     0.210 C 
ENDBRANCH  23  27
ENDBRANCH  20  21
ENDBRANCH   6  20
BRANCH   3  29
HETATM   29  C   UNL     1      25.388  46.132  51.262  1.00  0.00     0.012 A 
HETATM   30  C   UNL     1      25.896  44.823  51.166  1.00  0.00     0.015 A 
HETATM   31  C   UNL     1      26.671  44.263  52.189  1.00  0.00     0.001 A 
HETATM   32  C   UNL     1      26.953  44.998  53.338  1.00  0.00     0.000 A 
HETATM   33  C   UNL     1      26.469  46.296  53.461  1.00  0.00     0.001 A 
HETATM   34  C   UNL     1      25.698  46.853  52.436  1.00  0.00     0.015 A 
ENDBRANCH   3  29
BRANCH   5  35
HETATM   35  C   UNL     1      24.034  50.101  48.910  1.00  0.00     0.226 C 
BRANCH  35  36
HETATM   36  O   UNL     1      24.734  50.375  47.695  1.00  0.00    -0.390 OA
HETATM   37  C   UNL     1      26.122  50.107  47.827  1.00  0.00     0.201 C 
ENDBRANCH  35  36
ENDBRANCH   5  35
TORSDOF 8
ENDMDL
MODEL 6
REMARK VINA RESULT:      -8.1      6.074      9.631
REMARK  8 active torsions:
REMARK  status: ('A' for Active; 'I' for Inactive)
REMARK    1  A    between atoms: C_2  and  N_3 
REMARK       I    between atoms: N_3  and  C_4 
REMARK       I    between atoms: C_4  and  N_5 
REMARK    2  A    between atoms: N_8  and  C_9 
REMARK    3  A    between atoms: C_11  and  C_12 
REMARK    4  A    between atoms: C_19  and  C_20 
REMARK    5  A    between atoms: C_20  and  O_21 
REMARK    6  A    between atoms: C_23  and  C_24 
REMARK    7  A    between atoms: C_24  and  C_25 
REMARK    8  A    between atoms: C_27  and  O_28 
ROOT
HETATM    1  C   UNL     1      21.420  47.502  48.082  1.00  0.00     0.137 A 
HETATM    2  N   UNL     1      22.754  47.694  48.096  1.00  0.00    -0.210 NA
HETATM    3  C   UNL     1      23.236  48.765  48.755  1.00  0.00     0.162 A 
HETATM    4  N   UNL     1      22.471  49.683  49.365  1.00  0.00    -0.230 NA
HETATM    5  C   UNL     1      21.139  49.478  49.377  1.00  0.00     0.071 A 
HETATM    6  C   UNL     1      20.551  48.375  48.751  1.00  0.00     0.019 A 
ENDROOT
BRANCH   1   7
HETATM    7  N   UNL     1      20.948  46.350  47.455  1.00  0.00    -0.362 N 
HETATM    8  C   UNL     1      20.598  46.409  46.014  1.00  0.00     0.144 C 
HETATM    9  C   UNL     1      21.556  45.597  45.123  1.00  0.00     0.147 C 
HETATM   10  N   UNL     1      21.762  44.260  45.673  1.00  0.00    -0.331 N 
HETATM   11  C   UNL     1      21.096  43.199  45.087  1.00  0.00     0.318 C 
HETATM   12  C   UNL     1      22.352  44.314  47.015  1.00  0.00     0.147 C 
HETATM   13  N   UNL     1      21.150  42.013  45.769  1.00  0.00    -0.339 N 
HETATM   14  O   UNL     1      20.511  43.309  44.012  1.00  0.00    -0.247 OA
HETATM   15  H   UNL     1      21.231  42.083  46.769  1.00  0.00     0.164 HD
HETATM   16  C   UNL     1      21.396  45.043  47.977  1.00  0.00     0.144 C 
BRANCH  13  17
HETATM   17  C   UNL     1      20.553  40.768  45.290  1.00  0.00     0.078 C 
HETATM   18  C   UNL     1      20.251  39.779  46.416  1.00  0.00     0.032 C 
HETATM   19  C   UNL     1      21.370  40.117  44.176  1.00  0.00     0.032 C 
ENDBRANCH  13  17
ENDBRANCH   1   7
BRANCH   6  20
HETATM   20  C   UNL     1      19.074  48.090  48.902  1.00  0.00     0.083 C 
BRANCH  20  21
HETATM   21  C   UNL     1      18.124  48.603  47.833  1.00  0.00    -0.051 A 
HETATM   22  C   UNL     1      16.783  48.178  47.900  1.00  0.00     0.044 A 
HETATM   23  C   UNL     1      15.844  48.593  46.954  1.00  0.00     0.068 A 
HETATM   24  C   UNL     1      16.239  49.464  45.940  1.00  0.00     0.037 A 
HETATM   25  C   UNL     1      17.562  49.897  45.855  1.00  0.00     0.003 A 
HETATM   26  C   UNL     1      18.501  49.465  46.792  1.00  0.00     0.007 A 
BRANCH  23  27
HETATM   27  O   UNL     1      14.526  48.228  46.921  1.00  0.00    -0.356 OA
HETATM   28  C   UNL     1      13.802  48.561  45.743  1.00  0.00     0.210 C 
ENDBRANCH  23  27
ENDBRANCH  20  21
ENDBRANCH   6  20
BRANCH   3  29
HETATM   29  C   UNL     1      24.702  48.920  48.886  1.00  0.00     0.012 A 
HETATM   30  C   UNL     1      25.403  49.943  48.221  1.00  0.00     0.015 A 
HETATM   31  C   UNL     1      26.796  50.061  48.325  1.00  0.00     0.001 A 
HETATM   32  C   UNL     1      27.521  49.153  49.092  1.00  0.00     0.000 A 
HETATM   33  C   UNL     1      26.856  48.134  49.764  1.00  0.00     0.001 A 
HETATM   34  C   UNL     1      25.466  48.021  49.662  1.00  0.00     0.015 A 
ENDBRANCH   3  29
BRANCH   5  35
HETATM   35  C   UNL     1      20.344  50.515  50.144  1.00  0.00     0.226 C 
BRANCH  35  36
HETATM   36  O   UNL     1      19.971  51.599  49.291  1.00  0.00    -0.390 OA
HETATM   37  C   UNL     1      18.643  52.030  49.556  1.00  0.00     0.201 C 
ENDBRANCH  35  36
ENDBRANCH   5  35
TORSDOF 8
ENDMDL
MODEL 7
REMARK VINA RESULT:      -8.0      2.749      8.547
REMARK  8 active torsions:
REMARK  status: ('A' for Active; 'I' for Inactive)
REMARK    1  A    between atoms: C_2  and  N_3 
REMARK       I    between atoms: N_3  and  C_4 
REMARK       I    between atoms: C_4  and  N_5 
REMARK    2  A    between atoms: N_8  and  C_9 
REMARK    3  A    between atoms: C_11  and  C_12 
REMARK    4  A    between atoms: C_19  and  C_20 
REMARK    5  A    between atoms: C_20  and  O_21 
REMARK    6  A    between atoms: C_23  and  C_24 
REMARK    7  A    between atoms: C_24  and  C_25 
REMARK    8  A    between atoms: C_27  and  O_28 
ROOT
HETATM    1  C   UNL     1      26.770  45.522  51.921  1.00  0.00     0.137 A 
HETATM    2  N   UNL     1      27.463  45.542  53.077  1.00  0.00    -0.210 NA
HETATM    3  C   UNL     1      28.152  44.439  53.426  1.00  0.00     0.162 A 
HETATM    4  N   UNL     1      28.159  43.299  52.720  1.00  0.00    -0.230 NA
HETATM    5  C   UNL     1      27.490  43.284  51.549  1.00  0.00     0.071 A 
HETATM    6  C   UNL     1      26.778  44.395  51.086  1.00  0.00     0.019 A 
ENDROOT
BRANCH   1   7
HETATM    7  N   UNL     1      26.123  46.697  51.545  1.00  0.00    -0.362 N 
HETATM    8  C   UNL     1      26.850  47.681  50.706  1.00  0.00     0.144 C 
HETATM    9  C   UNL     1      26.285  47.798  49.279  1.00  0.00     0.147 C 
HETATM   10  N   UNL     1      24.832  47.941  49.310  1.00  0.00    -0.331 N 
HETATM   11  C   UNL     1      24.292  49.198  49.105  1.00  0.00     0.318 C 
HETATM   12  C   UNL     1      24.190  46.784  49.943  1.00  0.00     0.147 C 
HETATM   13  N   UNL     1      22.951  49.317  49.360  1.00  0.00    -0.339 N 
HETATM   14  O   UNL     1      24.967  50.140  48.699  1.00  0.00    -0.247 OA
HETATM   15  H   UNL     1      22.581  48.705  50.066  1.00  0.00     0.164 HD
HETATM   16  C   UNL     1      24.652  46.664  51.405  1.00  0.00     0.144 C 
BRANCH  13  17
HETATM   17  C   UNL     1      22.188  50.547  49.157  1.00  0.00     0.078 C 
HETATM   18  C   UNL     1      21.316  50.914  50.357  1.00  0.00     0.032 C 
HETATM   19  C   UNL     1      21.380  50.527  47.861  1.00  0.00     0.032 C 
ENDBRANCH  13  17
ENDBRANCH   1   7
BRANCH   6  20
HETATM   20  C   UNL     1      26.159  44.404  49.708  1.00  0.00     0.083 C 
BRANCH  20  21
HETATM   21  C   UNL     1      24.998  43.464  49.428  1.00  0.00    -0.051 A 
HETATM   22  C   UNL     1      25.018  42.756  48.211  1.00  0.00     0.044 A 
HETATM   23  C   UNL     1      23.988  41.877  47.868  1.00  0.00     0.068 A 
HETATM   24  C   UNL     1      22.936  41.682  48.760  1.00  0.00     0.037 A 
HETATM   25  C   UNL     1      22.896  42.374  49.970  1.00  0.00     0.003 A 
HETATM   26  C   UNL     1      23.918  43.265  50.300  1.00  0.00     0.007 A 
BRANCH  23  27
HETATM   27  O   UNL     1      23.905  41.155  46.709  1.00  0.00    -0.356 OA
HETATM   28  C   UNL     1      24.675  39.961  46.646  1.00  0.00     0.210 C 
ENDBRANCH  23  27
ENDBRANCH  20  21
ENDBRANCH   6  20
BRANCH   3  29
HETATM   29  C   UNL     1      29.017  44.490  54.626  1.00  0.00     0.012 A 
HETATM   30  C   UNL     1      28.915  45.526  55.572  1.00  0.00     0.015 A 
HETATM   31  C   UNL     1      29.761  45.583  56.687  1.00  0.00     0.001 A 
HETATM   32  C   UNL     1      30.734  44.607  56.880  1.00  0.00     0.000 A 
HETATM   33  C   UNL     1      30.857  43.567  55.965  1.00  0.00     0.001 A 
HETATM   34  C   UNL     1      30.008  43.511  54.855  1.00  0.00     0.015 A 
ENDBRANCH   3  29
BRANCH   5  35
HETATM   35  C   UNL     1      27.601  41.990  50.770  1.00  0.00     0.226 C 
BRANCH  35  36
HETATM   36  O   UNL     1      26.724  40.999  51.309  1.00  0.00    -0.390 OA
HETATM   37  C   UNL     1      26.290  40.093  50.305  1.00  0.00     0.201 C 
ENDBRANCH  35  36
ENDBRANCH   5  35
TORSDOF 8
ENDMDL
MODEL 8
REMARK VINA RESULT:      -8.0      3.123      7.103
REMARK  8 active torsions:
REMARK  status: ('A' for Active; 'I' for Inactive)
REMARK    1  A    between atoms: C_2  and  N_3 
REMARK       I    between atoms: N_3  and  C_4 
REMARK       I    between atoms: C_4  and  N_5 
REMARK    2  A    between atoms: N_8  and  C_9 
REMARK    3  A    between atoms: C_11  and  C_12 
REMARK    4  A    between atoms: C_19  and  C_20 
REMARK    5  A    between atoms: C_20  and  O_21 
REMARK    6  A    between atoms: C_23  and  C_24 
REMARK    7  A    between atoms: C_24  and  C_25 
REMARK    8  A    between atoms: C_27  and  O_28 
ROOT
HETATM    1  C   UNL     1      23.502  44.992  49.065  1.00  0.00     0.137 A 
HETATM    2  N   UNL     1      23.438  46.337  49.105  1.00  0.00    -0.210 NA
HETATM    3  C   UNL     1      22.450  46.949  48.423  1.00  0.00     0.162 A 
HETATM    4  N   UNL     1      21.548  46.308  47.666  1.00  0.00    -0.230 NA
HETATM    5  C   UNL     1      21.592  44.961  47.646  1.00  0.00     0.071 A 
HETATM    6  C   UNL     1      22.557  44.238  48.353  1.00  0.00     0.019 A 
ENDROOT
BRANCH   1   7
HETATM    7  N   UNL     1      24.487  44.376  49.834  1.00  0.00    -0.362 N 
HETATM    8  C   UNL     1      25.882  44.354  49.330  1.00  0.00     0.144 C 
HETATM    9  C   UNL     1      26.841  45.230  50.157  1.00  0.00     0.147 C 
HETATM   10  N   UNL     1      26.676  44.967  51.585  1.00  0.00    -0.331 N 
HETATM   11  C   UNL     1      27.622  44.183  52.221  1.00  0.00     0.318 C 
HETATM   12  C   UNL     1      25.312  45.265  52.034  1.00  0.00     0.147 C 
HETATM   13  N   UNL     1      27.307  43.790  53.495  1.00  0.00    -0.339 N 
HETATM   14  O   UNL     1      28.684  43.878  51.686  1.00  0.00    -0.247 OA
HETATM   15  H   UNL     1      26.328  43.681  53.693  1.00  0.00     0.164 HD
HETATM   16  C   UNL     1      24.310  44.356  51.301  1.00  0.00     0.144 C 
BRANCH  13  17
HETATM   17  C   UNL     1      28.194  43.002  54.348  1.00  0.00     0.078 C 
HETATM   18  C   UNL     1      29.469  43.750  54.735  1.00  0.00     0.032 C 
HETATM   19  C   UNL     1      28.507  41.629  53.758  1.00  0.00     0.032 C 
ENDBRANCH  13  17
ENDBRANCH   1   7
BRANCH   6  20
HETATM   20  C   UNL     1      22.498  42.730  48.432  1.00  0.00     0.083 C 
BRANCH  20  21
HETATM   21  C   UNL     1      23.514  41.922  47.642  1.00  0.00    -0.051 A 
HETATM   22  C   UNL     1      24.369  41.071  48.369  1.00  0.00     0.044 A 
HETATM   23  C   UNL     1      25.339  40.299  47.726  1.00  0.00     0.068 A 
HETATM   24  C   UNL     1      25.442  40.357  46.337  1.00  0.00     0.037 A 
HETATM   25  C   UNL     1      24.606  41.193  45.599  1.00  0.00     0.003 A 
HETATM   26  C   UNL     1      23.651  41.977  46.248  1.00  0.00     0.007 A 
BRANCH  23  27
HETATM   27  O   UNL     1      26.225  39.455  48.337  1.00  0.00    -0.356 OA
HETATM   28  C   UNL     1      26.482  39.691  49.716  1.00  0.00     0.210 C 
ENDBRANCH  23  27
ENDBRANCH  20  21
ENDBRANCH   6  20
BRANCH   3  29
HETATM   29  C   UNL     1      22.292  48.413  48.561  1.00  0.00     0.012 A 
HETATM   30  C   UNL     1      21.119  48.989  49.083  1.00  0.00     0.015 A 
HETATM   31  C   UNL     1      20.967  50.379  49.178  1.00  0.00     0.001 A 
HETATM   32  C   UNL     1      21.983  51.227  48.747  1.00  0.00     0.000 A 
HETATM   33  C   UNL     1      23.156  50.689  48.230  1.00  0.00     0.001 A 
HETATM   34  C   UNL     1      23.307  49.301  48.140  1.00  0.00     0.015 A 
ENDBRANCH   3  29
BRANCH   5  35
HETATM   35  C   UNL     1      20.499  44.302  46.829  1.00  0.00     0.226 C 
BRANCH  35  36
HETATM   36  O   UNL     1      19.284  44.227  47.576  1.00  0.00    -0.390 OA
HETATM   37  C   UNL     1      18.224  44.893  46.905  1.00  0.00     0.201 C 
ENDBRANCH  35  36
ENDBRANCH   5  35
TORSDOF 8
ENDMDL
MODEL 9
REMARK VINA RESULT:      -8.0      3.542      8.681
REMARK  8 active torsions:
REMARK  status: ('A' for Active; 'I' for Inactive)
REMARK    1  A    between atoms: C_2  and  N_3 
REMARK       I    between atoms: N_3  and  C_4 
REMARK       I    between atoms: C_4  and  N_5 
REMARK    2  A    between atoms: N_8  and  C_9 
REMARK    3  A    between atoms: C_11  and  C_12 
REMARK    4  A    between atoms: C_19  and  C_20 
REMARK    5  A    between atoms: C_20  and  O_21 
REMARK    6  A    between atoms: C_23  and  C_24 
REMARK    7  A    between atoms: C_24  and  C_25 
REMARK    8  A    between atoms: C_27  and  O_28 
ROOT
HETATM    1  C   UNL     1      26.037  41.870  50.023  1.00  0.00     0.137 A 
HETATM    2  N   UNL     1      26.631  42.460  51.079  1.00  0.00    -0.210 NA
HETATM    3  C   UNL     1      27.635  41.804  51.693  1.00  0.00     0.162 A 
HETATM    4  N   UNL     1      28.056  40.578  51.350  1.00  0.00    -0.230 NA
HETATM    5  C   UNL     1      27.483  39.997  50.277  1.00  0.00     0.071 A 
HETATM    6  C   UNL     1      26.459  40.618  49.554  1.00  0.00     0.019 A 
ENDROOT
BRANCH   1   7
HETATM    7  N   UNL     1      25.049  42.595  49.360  1.00  0.00    -0.362 N 
HETATM    8  C   UNL     1      23.662  42.071  49.343  1.00  0.00     0.144 C 
HETATM    9  C   UNL     1      22.679  42.922  50.167  1.00  0.00     0.147 C 
HETATM   10  N   UNL     1      22.827  44.339  49.842  1.00  0.00    -0.331 N 
HETATM   11  C   UNL     1      21.883  44.924  49.017  1.00  0.00     0.318 C 
HETATM   12  C   UNL     1      24.180  44.821  50.136  1.00  0.00     0.147 C 
HETATM   13  N   UNL     1      22.185  46.183  48.569  1.00  0.00    -0.339 N 
HETATM   14  O   UNL     1      20.833  44.360  48.723  1.00  0.00    -0.247 OA
HETATM   15  H   UNL     1      23.163  46.391  48.464  1.00  0.00     0.164 HD
HETATM   16  C   UNL     1      25.205  44.062  49.275  1.00  0.00     0.144 C 
BRANCH  13  17
HETATM   17  C   UNL     1      21.297  46.986  47.731  1.00  0.00     0.078 C 
HETATM   18  C   UNL     1      21.248  46.505  46.281  1.00  0.00     0.032 C 
HETATM   19  C   UNL     1      21.601  48.479  47.817  1.00  0.00     0.032 C 
ENDBRANCH  13  17
ENDBRANCH   1   7
BRANCH   6  20
HETATM   20  C   UNL     1      25.934  40.014  48.272  1.00  0.00     0.083 C 
BRANCH  20  21
HETATM   21  C   UNL     1      26.583  40.421  46.960  1.00  0.00    -0.051 A 
HETATM   22  C   UNL     1      25.743  40.557  45.838  1.00  0.00     0.044 A 
HETATM   23  C   UNL     1      26.255  40.919  44.590  1.00  0.00     0.068 A 
HETATM   24  C   UNL     1      27.619  41.173  44.463  1.00  0.00     0.037 A 
HETATM   25  C   UNL     1      28.468  41.043  45.561  1.00  0.00     0.003 A 
HETATM   26  C   UNL     1      27.955  40.663  46.802  1.00  0.00     0.007 A 
BRANCH  23  27
HETATM   27  O   UNL     1      25.530  41.064  43.439  1.00  0.00    -0.356 OA
HETATM   28  C   UNL     1      24.848  42.300  43.267  1.00  0.00     0.210 C 
ENDBRANCH  23  27
ENDBRANCH  20  21
ENDBRANCH   6  20
BRANCH   3  29
HETATM   29  C   UNL     1      28.379  42.491  52.771  1.00  0.00     0.012 A 
HETATM   30  C   UNL     1      27.757  43.415  53.632  1.00  0.00     0.015 A 
HETATM   31  C   UNL     1      28.478  44.085  54.629  1.00  0.00     0.001 A 
HETATM   32  C   UNL     1      29.841  43.852  54.786  1.00  0.00     0.000 A 
HETATM   33  C   UNL     1      30.484  42.941  53.954  1.00  0.00     0.001 A 
HETATM   34  C   UNL     1      29.761  42.271  52.962  1.00  0.00     0.015 A 
ENDBRANCH   3  29
BRANCH   5  35
HETATM   35  C   UNL     1      28.056  38.646  49.904  1.00  0.00     0.226 C 
BRANCH  35  36
HETATM   36  O   UNL     1      29.425  38.550  50.300  1.00  0.00    -0.390 OA
HETATM   37  C   UNL     1      30.254  38.179  49.208  1.00  0.00     0.201 C 
ENDBRANCH  35  36
ENDBRANCH   5  35
TORSDOF 8
ENDMDL
MODEL 10
REMARK VINA RESULT:      -7.9      4.080      7.713
REMARK  8 active torsions:
REMARK  status: ('A' for Active; 'I' for Inactive)
REMARK    1  A    between atoms: C_2  and  N_3 
REMARK       I    between atoms: N_3  and  C_4 
REMARK       I    between atoms: C_4  and  N_5 
REMARK    2  A    between atoms: N_8  and  C_9 
REMARK    3  A    between atoms: C_11  and  C_12 
REMARK    4  A    between atoms: C_19  and  C_20 
REMARK    5  A    between atoms: C_20  and  O_21 
REMARK    6  A    between atoms: C_23  and  C_24 
REMARK    7  A    between atoms: C_24  and  C_25 
REMARK    8  A    between atoms: C_27  and  O_28 
ROOT
HETATM    1  C   UNL     1      23.319  45.580  49.115  1.00  0.00     0.137 A 
HETATM    2  N   UNL     1      24.165  45.317  50.131  1.00  0.00    -0.210 NA
HETATM    3  C   UNL     1      24.751  46.356  50.757  1.00  0.00     0.162 A 
HETATM    4  N   UNL     1      24.584  47.639  50.408  1.00  0.00    -0.230 NA
HETATM    5  C   UNL     1      23.717  47.908  49.410  1.00  0.00     0.071 A 
HETATM    6  C   UNL     1      23.034  46.898  48.727  1.00  0.00     0.019 A 
ENDROOT
BRANCH   1   7
HETATM    7  N   UNL     1      22.670  44.496  48.528  1.00  0.00    -0.362 N 
HETATM    8  C   UNL     1      22.677  44.370  47.050  1.00  0.00     0.144 C 
HETATM    9  C   UNL     1      23.514  43.181  46.545  1.00  0.00     0.147 C 
HETATM   10  N   UNL     1      23.182  41.966  47.286  1.00  0.00    -0.331 N 
HETATM   11  C   UNL     1      22.371  41.027  46.675  1.00  0.00     0.318 C 
HETATM   12  C   UNL     1      23.454  42.118  48.719  1.00  0.00     0.147 C 
HETATM   13  N   UNL     1      21.915  40.020  47.485  1.00  0.00    -0.339 N 
HETATM   14  O   UNL     1      22.096  41.080  45.480  1.00  0.00    -0.247 OA
HETATM   15  H   UNL     1      21.793  40.255  48.454  1.00  0.00     0.164 HD
HETATM   16  C   UNL     1      22.578  43.241  49.301  1.00  0.00     0.144 C 
BRANCH  13  17
HETATM   17  C   UNL     1      21.089  38.908  47.017  1.00  0.00     0.078 C 
HETATM   18  C   UNL     1      19.763  38.793  47.768  1.00  0.00     0.032 C 
HETATM   19  C   UNL     1      21.845  37.581  47.007  1.00  0.00     0.032 C 
ENDBRANCH  13  17
ENDBRANCH   1   7
BRANCH   6  20
HETATM   20  C   UNL     1      21.962  47.230  47.715  1.00  0.00     0.083 C 
BRANCH  20  21
HETATM   21  C   UNL     1      20.520  47.315  48.187  1.00  0.00    -0.051 A 
HETATM   22  C   UNL     1      20.199  48.336  49.103  1.00  0.00     0.044 A 
HETATM   23  C   UNL     1      18.901  48.482  49.597  1.00  0.00     0.068 A 
HETATM   24  C   UNL     1      17.903  47.617  49.154  1.00  0.00     0.037 A 
HETATM   25  C   UNL     1      18.200  46.599  48.248  1.00  0.00     0.003 A 
HETATM   26  C   UNL     1      19.502  46.445  47.771  1.00  0.00     0.007 A 
BRANCH  23  27
HETATM   27  O   UNL     1      18.489  49.427  50.497  1.00  0.00    -0.356 OA
HETATM   28  C   UNL     1      18.080  50.680  49.963  1.00  0.00     0.210 C 
ENDBRANCH  23  27
ENDBRANCH  20  21
ENDBRANCH   6  20
BRANCH   3  29
HETATM   29  C   UNL     1      25.581  46.089  51.952  1.00  0.00     0.012 A 
HETATM   30  C   UNL     1      25.717  47.031  52.989  1.00  0.00     0.015 A 
HETATM   31  C   UNL     1      26.532  46.782  54.101  1.00  0.00     0.001 A 
HETATM   32  C   UNL     1      27.236  45.585  54.200  1.00  0.00     0.000 A 
HETATM   33  C   UNL     1      27.120  44.632  53.195  1.00  0.00     0.001 A 
HETATM   34  C   UNL     1      26.302  44.882  52.088  1.00  0.00     0.015 A 
ENDBRANCH   3  29
BRANCH   5  35
HETATM   35  C   UNL     1      23.523  49.382  49.117  1.00  0.00     0.226 C 
BRANCH  35  36
HETATM   36  O   UNL     1      24.089  49.724  47.850  1.00  0.00    -0.390 OA
HETATM   37  C   UNL     1      25.478  49.996  47.962  1.00  0.00     0.201 C 
ENDBRANCH  35  36
ENDBRANCH   5  35
TORSDOF 8
ENDMDL
