MODEL 1
REMARK VINA RESULT:      -8.0      0.000      0.000
REMARK  7 active torsions:
REMARK  status: ('A' for Active; 'I' for Inactive)
REMARK    1  A    between atoms: O_2  and  C_3 
REMARK    2  A    between atoms: C_4  and  O_5 
REMARK    3  A    between atoms: C_8  and  C_9 
REMARK    4  A    between atoms: N_10  and  N_11 
REMARK    5  A    between atoms: C_22  and  C_23 
REMARK       I    between atoms: C_23  and  N_24 
REMARK    6  A    between atoms: N_24  and  C_25 
REMARK    7  A    between atoms: C_32  and  N_33 
ROOT
HETATM    1  N   UNL     1      17.773  50.339  48.854  1.00  0.00    -0.197 N 
HETATM    2  C   UNL     1      17.648  49.281  47.974  1.00  0.00     0.183 A 
HETATM    3  C   UNL     1      17.234  49.804  46.760  1.00  0.00     0.125 A 
HETATM    4  N   UNL     1      16.935  49.002  45.701  1.00  0.00    -0.242 NA
HETATM    5  C   UNL     1      17.093  47.688  45.934  1.00  0.00     0.086 A 
HETATM    6  C   UNL     1      17.507  47.174  47.192  1.00  0.00     0.088 A 
HETATM    7  N   UNL     1      17.785  47.961  48.245  1.00  0.00    -0.225 NA
HETATM    8  C   UNL     1      16.827  46.803  44.896  1.00  0.00     0.034 A 
HETATM    9  C   UNL     1      16.945  45.424  45.066  1.00  0.00     0.002 A 
HETATM   10  C   UNL     1      17.336  44.919  46.298  1.00  0.00     0.002 A 
HETATM   11  C   UNL     1      17.614  45.799  47.347  1.00  0.00     0.034 A 
HETATM   12  C   UNL     1      17.132  51.215  46.875  1.00  0.00     0.110 C 
HETATM   13  C   UNL     1      17.562  51.528  48.156  1.00  0.00     0.143 C 
ENDROOT
BRANCH   1  14
HETATM   14  N   UNL     1      18.074  50.233  50.185  1.00  0.00    -0.176 NA
HETATM   15  C   UNL     1      19.323  50.021  50.484  1.00  0.00     0.150 C 
BRANCH  15  16
HETATM   16  C   UNL     1      20.528  50.037  49.621  1.00  0.00    -0.014 A 
HETATM   17  C   UNL     1      21.021  48.814  49.158  1.00  0.00     0.052 A 
HETATM   18  C   UNL     1      22.180  48.779  48.374  1.00  0.00     0.102 A 
HETATM   19  C   UNL     1      22.859  49.981  48.076  1.00  0.00     0.101 A 
HETATM   20  C   UNL     1      22.361  51.197  48.557  1.00  0.00     0.040 A 
HETATM   21  C   UNL     1      21.204  51.225  49.340  1.00  0.00     0.016 A 
BRANCH  18  22
HETATM   22  O   UNL     1      22.742  47.632  47.872  1.00  0.00    -0.353 OA
HETATM   23  C   UNL     1      23.085  46.606  48.792  1.00  0.00     0.210 C 
ENDBRANCH  18  22
BRANCH  19  24
HETATM   24  O   UNL     1      23.990  49.857  47.306  1.00  0.00    -0.353 OA
HETATM   25  C   UNL     1      25.244  50.047  47.943  1.00  0.00     0.210 C 
ENDBRANCH  19  24
ENDBRANCH  15  16
ENDBRANCH   1  14
BRANCH  13  26
HETATM   26  N   UNL     1      17.712  52.738  48.756  1.00  0.00    -0.383 N 
HETATM   27  H   UNL     1      18.116  53.502  48.208  1.00  0.00     0.157 HD
HETATM   28  H   UNL     1      17.941  52.779  49.748  1.00  0.00     0.157 HD
ENDBRANCH  13  26
BRANCH  12  29
HETATM   29  C   UNL     1      16.596  52.159  45.907  1.00  0.00     0.258 C 
HETATM   30  N   UNL     1      17.167  52.051  44.652  1.00  0.00    -0.352 N 
HETATM   31  H   UNL     1      17.957  51.414  44.595  1.00  0.00     0.163 HD
HETATM   32  O   UNL     1      15.640  52.892  46.146  1.00  0.00    -0.267 OA
BRANCH  30  33
HETATM   33  C   UNL     1      16.323  52.134  43.467  1.00  0.00     0.084 C 
HETATM   34  C   UNL     1      16.495  53.489  42.771  1.00  0.00     0.025 C 
HETATM   35  C   UNL     1      17.873  53.655  42.124  1.00  0.00     0.002 C 
HETATM   36  C   UNL     1      18.228  52.488  41.205  1.00  0.00     0.000 C 
HETATM   37  C   UNL     1      18.055  51.136  41.888  1.00  0.00     0.002 C 
HETATM   38  C   UNL     1      16.657  50.989  42.492  1.00  0.00     0.025 C 
ENDBRANCH  30  33
ENDBRANCH  12  29
TORSDOF 7
ENDMDL
MODEL 2
REMARK VINA RESULT:      -7.9      3.167      6.453
REMARK  7 active torsions:
REMARK  status: ('A' for Active; 'I' for Inactive)
REMARK    1  A    between atoms: O_2  and  C_3 
REMARK    2  A    between atoms: C_4  and  O_5 
REMARK    3  A    between atoms: C_8  and  C_9 
REMARK    4  A    between atoms: N_10  and  N_11 
REMARK    5  A    between atoms: C_22  and  C_23 
REMARK       I    between atoms: C_23  and  N_24 
REMARK    6  A    between atoms: N_24  and  C_25 
REMARK    7  A    between atoms: C_32  and  N_33 
ROOT
HETATM    1  N   UNL     1      19.516  45.831  48.275  1.00  0.00    -0.197 N 
HETATM    2  C   UNL     1      20.306  46.945  48.488  1.00  0.00     0.183 A 
HETATM    3  C   UNL     1      19.455  48.020  48.687  1.00  0.00     0.125 A 
HETATM    4  N   UNL     1      19.929  49.288  48.839  1.00  0.00    -0.242 NA
HETATM    5  C   UNL     1      21.267  49.392  48.796  1.00  0.00     0.086 A 
HETATM    6  C   UNL     1      22.120  48.276  48.578  1.00  0.00     0.088 A 
HETATM    7  N   UNL     1      21.656  47.026  48.410  1.00  0.00    -0.225 NA
HETATM    8  C   UNL     1      21.831  50.651  48.963  1.00  0.00     0.034 A 
HETATM    9  C   UNL     1      23.211  50.845  48.909  1.00  0.00     0.002 A 
HETATM   10  C   UNL     1      24.045  49.759  48.683  1.00  0.00     0.002 A 
HETATM   11  C   UNL     1      23.491  48.486  48.522  1.00  0.00     0.034 A 
HETATM   12  C   UNL     1      18.113  47.563  48.631  1.00  0.00     0.110 C 
HETATM   13  C   UNL     1      18.181  46.188  48.468  1.00  0.00     0.143 C 
ENDROOT
BRANCH   1  14
HETATM   14  N   UNL     1      19.974  44.583  47.950  1.00  0.00    -0.176 NA
HETATM   15  C   UNL     1      19.905  44.247  46.694  1.00  0.00     0.150 C 
BRANCH  15  16
HETATM   16  C   UNL     1      19.559  45.061  45.505  1.00  0.00    -0.014 A 
HETATM   17  C   UNL     1      18.255  44.976  45.007  1.00  0.00     0.052 A 
HETATM   18  C   UNL     1      17.896  45.696  43.863  1.00  0.00     0.102 A 
HETATM   19  C   UNL     1      18.862  46.486  43.201  1.00  0.00     0.101 A 
HETATM   20  C   UNL     1      20.167  46.551  43.704  1.00  0.00     0.040 A 
HETATM   21  C   UNL     1      20.520  45.830  44.847  1.00  0.00     0.016 A 
BRANCH  18  22
HETATM   22  O   UNL     1      16.645  45.681  43.297  1.00  0.00    -0.353 OA
HETATM   23  C   UNL     1      15.558  46.144  44.084  1.00  0.00     0.210 C 
ENDBRANCH  18  22
BRANCH  19  24
HETATM   24  O   UNL     1      18.429  47.155  42.083  1.00  0.00    -0.353 OA
HETATM   25  C   UNL     1      18.974  48.442  41.833  1.00  0.00     0.210 C 
ENDBRANCH  19  24
ENDBRANCH  15  16
ENDBRANCH   1  14
BRANCH  13  26
HETATM   26  N   UNL     1      17.186  45.264  48.411  1.00  0.00    -0.383 N 
HETATM   27  H   UNL     1      17.219  44.477  49.065  1.00  0.00     0.157 HD
HETATM   28  H   UNL     1      16.772  45.031  47.510  1.00  0.00     0.157 HD
ENDBRANCH  13  26
BRANCH  12  29
HETATM   29  C   UNL     1      16.893  48.356  48.638  1.00  0.00     0.258 C 
HETATM   30  N   UNL     1      17.055  49.620  49.175  1.00  0.00    -0.352 N 
HETATM   31  H   UNL     1      17.965  49.791  49.596  1.00  0.00     0.163 HD
HETATM   32  O   UNL     1      15.851  47.987  48.101  1.00  0.00    -0.267 OA
BRANCH  30  33
HETATM   33  C   UNL     1      16.420  50.763  48.534  1.00  0.00     0.084 C 
HETATM   34  C   UNL     1      16.537  52.013  49.413  1.00  0.00     0.025 C 
HETATM   35  C   UNL     1      17.973  52.536  49.516  1.00  0.00     0.002 C 
HETATM   36  C   UNL     1      18.620  52.733  48.146  1.00  0.00     0.000 C 
HETATM   37  C   UNL     1      18.503  51.495  47.263  1.00  0.00     0.002 C 
HETATM   38  C   UNL     1      17.053  51.021  47.153  1.00  0.00     0.025 C 
ENDBRANCH  30  33
ENDBRANCH  12  29
TORSDOF 7
ENDMDL
MODEL 3
REMARK VINA RESULT:      -7.6      2.464      5.069
REMARK  7 active torsions:
REMARK  status: ('A' for Active; 'I' for Inactive)
REMARK    1  A    between atoms: O_2  and  C_3 
REMARK    2  A    between atoms: C_4  and  O_5 
REMARK    3  A    between atoms: C_8  and  C_9 
REMARK    4  A    between atoms: N_10  and  N_11 
REMARK    5  A    between atoms: C_22  and  C_23 
REMARK       I    between atoms: C_23  and  N_24 
REMARK    6  A    between atoms: N_24  and  C_25 
REMARK    7  A    between atoms: C_32  and  N_33 
ROOT
HETATM    1  N   UNL     1      18.842  49.385  48.896  1.00  0.00    -0.197 N 
HETATM    2  C   UNL     1      18.597  49.395  47.536  1.00  0.00     0.183 A 
HETATM    3  C   UNL     1      18.674  48.084  47.096  1.00  0.00     0.125 A 
HETATM    4  N   UNL     1      18.565  47.765  45.776  1.00  0.00    -0.242 NA
HETATM    5  C   UNL     1      18.361  48.816  44.964  1.00  0.00     0.086 A 
HETATM    6  C   UNL     1      18.298  50.154  45.438  1.00  0.00     0.088 A 
HETATM    7  N   UNL     1      18.424  50.474  46.736  1.00  0.00    -0.225 NA
HETATM    8  C   UNL     1      18.219  48.573  43.603  1.00  0.00     0.034 A 
HETATM    9  C   UNL     1      18.028  49.612  42.693  1.00  0.00     0.002 A 
HETATM   10  C   UNL     1      17.979  50.920  43.152  1.00  0.00     0.002 A 
HETATM   11  C   UNL     1      18.113  51.177  44.518  1.00  0.00     0.034 A 
HETATM   12  C   UNL     1      18.938  47.239  48.205  1.00  0.00     0.110 C 
HETATM   13  C   UNL     1      18.944  48.061  49.321  1.00  0.00     0.143 C 
ENDROOT
BRANCH   1  14
HETATM   14  N   UNL     1      18.945  50.494  49.692  1.00  0.00    -0.176 NA
HETATM   15  C   UNL     1      20.146  50.943  49.911  1.00  0.00     0.150 C 
BRANCH  15  16
HETATM   16  C   UNL     1      21.439  50.551  49.301  1.00  0.00    -0.014 A 
HETATM   17  C   UNL     1      22.191  49.559  49.937  1.00  0.00     0.052 A 
HETATM   18  C   UNL     1      23.436  49.185  49.418  1.00  0.00     0.102 A 
HETATM   19  C   UNL     1      23.937  49.833  48.268  1.00  0.00     0.101 A 
HETATM   20  C   UNL     1      23.179  50.834  47.649  1.00  0.00     0.040 A 
HETATM   21  C   UNL     1      21.937  51.202  48.172  1.00  0.00     0.016 A 
BRANCH  18  22
HETATM   22  O   UNL     1      24.248  48.224  49.967  1.00  0.00    -0.353 OA
HETATM   23  C   UNL     1      23.947  46.865  49.688  1.00  0.00     0.210 C 
ENDBRANCH  18  22
BRANCH  19  24
HETATM   24  O   UNL     1      25.168  49.411  47.829  1.00  0.00    -0.353 OA
HETATM   25  C   UNL     1      26.296  50.204  48.169  1.00  0.00     0.210 C 
ENDBRANCH  19  24
ENDBRANCH  15  16
ENDBRANCH   1  14
BRANCH  13  26
HETATM   26  N   UNL     1      19.096  47.748  50.636  1.00  0.00    -0.383 N 
HETATM   27  H   UNL     1      19.806  48.253  51.173  1.00  0.00     0.157 HD
HETATM   28  H   UNL     1      18.961  46.785  50.939  1.00  0.00     0.157 HD
ENDBRANCH  13  26
BRANCH  12  29
HETATM   29  C   UNL     1      19.246  45.816  48.198  1.00  0.00     0.258 C 
HETATM   30  N   UNL     1      18.852  45.169  47.040  1.00  0.00    -0.352 N 
HETATM   31  H   UNL     1      18.303  45.736  46.399  1.00  0.00     0.163 HD
HETATM   32  O   UNL     1      19.906  45.270  49.078  1.00  0.00    -0.267 OA
BRANCH  30  33
HETATM   33  C   UNL     1      19.734  44.184  46.430  1.00  0.00     0.084 C 
HETATM   34  C   UNL     1      19.073  43.551  45.201  1.00  0.00     0.025 C 
HETATM   35  C   UNL     1      18.928  44.531  44.033  1.00  0.00     0.002 C 
HETATM   36  C   UNL     1      20.246  45.221  43.686  1.00  0.00     0.000 C 
HETATM   37  C   UNL     1      20.912  45.849  44.905  1.00  0.00     0.002 C 
HETATM   38  C   UNL     1      21.074  44.835  46.039  1.00  0.00     0.025 C 
ENDBRANCH  30  33
ENDBRANCH  12  29
TORSDOF 7
ENDMDL
MODEL 4
REMARK VINA RESULT:      -7.4      1.759      4.671
REMARK  7 active torsions:
REMARK  status: ('A' for Active; 'I' for Inactive)
REMARK    1  A    between atoms: O_2  and  C_3 
REMARK    2  A    between atoms: C_4  and  O_5 
REMARK    3  A    between atoms: C_8  and  C_9 
REMARK    4  A    between atoms: N_10  and  N_11 
REMARK    5  A    between atoms: C_22  and  C_23 
REMARK       I    between atoms: C_23  and  N_24 
REMARK    6  A    between atoms: N_24  and  C_25 
REMARK    7  A    between atoms: C_32  and  N_33 
ROOT
HETATM    1  N   UNL     1      17.515  49.668  48.614  1.00  0.00    -0.197 N 
HETATM    2  C   UNL     1      17.329  50.168  47.339  1.00  0.00     0.183 A 
HETATM    3  C   UNL     1      17.279  49.085  46.477  1.00  0.00     0.125 A 
HETATM    4  N   UNL     1      17.190  49.248  45.128  1.00  0.00    -0.242 NA
HETATM    5  C   UNL     1      17.137  50.528  44.724  1.00  0.00     0.086 A 
HETATM    6  C   UNL     1      17.201  51.624  45.627  1.00  0.00     0.088 A 
HETATM    7  N   UNL     1      17.308  51.467  46.957  1.00  0.00    -0.225 NA
HETATM    8  C   UNL     1      17.024  50.781  43.363  1.00  0.00     0.034 A 
HETATM    9  C   UNL     1      16.986  52.082  42.862  1.00  0.00     0.002 A 
HETATM   10  C   UNL     1      17.063  53.153  43.741  1.00  0.00     0.002 A 
HETATM   11  C   UNL     1      17.168  52.913  45.113  1.00  0.00     0.034 A 
HETATM   12  C   UNL     1      17.403  47.889  47.231  1.00  0.00     0.110 C 
HETATM   13  C   UNL     1      17.454  48.276  48.561  1.00  0.00     0.143 C 
ENDROOT
BRANCH   1  14
HETATM   14  N   UNL     1      17.706  50.420  49.742  1.00  0.00    -0.176 NA
HETATM   15  C   UNL     1      18.940  50.667  50.074  1.00  0.00     0.150 C 
BRANCH  15  16
HETATM   16  C   UNL     1      20.199  50.405  49.336  1.00  0.00    -0.014 A 
HETATM   17  C   UNL     1      20.789  49.145  49.468  1.00  0.00     0.052 A 
HETATM   18  C   UNL     1      21.998  48.869  48.821  1.00  0.00     0.102 A 
HETATM   19  C   UNL     1      22.630  49.875  48.059  1.00  0.00     0.101 A 
HETATM   20  C   UNL     1      22.034  51.137  47.946  1.00  0.00     0.040 A 
HETATM   21  C   UNL     1      20.826  51.407  48.594  1.00  0.00     0.016 A 
BRANCH  18  22
HETATM   22  O   UNL     1      22.656  47.665  48.888  1.00  0.00    -0.353 OA
HETATM   23  C   UNL     1      22.081  46.559  48.207  1.00  0.00     0.210 C 
ENDBRANCH  18  22
BRANCH  19  24
HETATM   24  O   UNL     1      23.816  49.522  47.463  1.00  0.00    -0.353 OA
HETATM   25  C   UNL     1      25.013  50.054  48.011  1.00  0.00     0.210 C 
ENDBRANCH  19  24
ENDBRANCH  15  16
ENDBRANCH   1  14
BRANCH  13  26
HETATM   26  N   UNL     1      17.516  47.520  49.689  1.00  0.00    -0.383 N 
HETATM   27  H   UNL     1      18.108  46.685  49.678  1.00  0.00     0.157 HD
HETATM   28  H   UNL     1      16.688  47.428  50.275  1.00  0.00     0.157 HD
ENDBRANCH  13  26
BRANCH  12  29
HETATM   29  C   UNL     1      17.553  46.528  46.738  1.00  0.00     0.258 C 
HETATM   30  N   UNL     1      16.679  46.209  45.714  1.00  0.00    -0.352 N 
HETATM   31  H   UNL     1      15.976  46.917  45.516  1.00  0.00     0.163 HD
HETATM   32  O   UNL     1      18.453  45.777  47.106  1.00  0.00    -0.267 OA
BRANCH  30  33
HETATM   33  C   UNL     1      17.156  45.443  44.571  1.00  0.00     0.084 C 
HETATM   34  C   UNL     1      16.228  44.257  44.286  1.00  0.00     0.025 C 
HETATM   35  C   UNL     1      14.857  44.689  43.758  1.00  0.00     0.002 C 
HETATM   36  C   UNL     1      14.966  45.634  42.563  1.00  0.00     0.000 C 
HETATM   37  C   UNL     1      15.891  46.814  42.836  1.00  0.00     0.002 C 
HETATM   38  C   UNL     1      17.263  46.347  43.328  1.00  0.00     0.025 C 
ENDBRANCH  30  33
ENDBRANCH  12  29
TORSDOF 7
ENDMDL
MODEL 5
REMARK VINA RESULT:      -7.4     25.724     29.355
REMARK  7 active torsions:
REMARK  status: ('A' for Active; 'I' for Inactive)
REMARK    1  A    between atoms: O_2  and  C_3 
REMARK    2  A    between atoms: C_4  and  O_5 
REMARK    3  A    between atoms: C_8  and  C_9 
REMARK    4  A    between atoms: N_10  and  N_11 
REMARK    5  A    between atoms: C_22  and  C_23 
REMARK       I    between atoms: C_23  and  N_24 
REMARK    6  A    between atoms: N_24  and  C_25 
REMARK    7  A    between atoms: C_32  and  N_33 
ROOT
HETATM    1  N   UNL     1      38.282  44.399  63.541  1.00  0.00    -0.197 N 
HETATM    2  C   UNL     1      39.606  44.527  63.918  1.00  0.00     0.183 A 
HETATM    3  C   UNL     1      40.051  43.269  64.290  1.00  0.00     0.125 A 
HETATM    4  N   UNL     1      41.300  43.074  64.797  1.00  0.00    -0.242 NA
HETATM    5  C   UNL     1      42.047  44.187  64.883  1.00  0.00     0.086 A 
HETATM    6  C   UNL     1      41.564  45.469  64.506  1.00  0.00     0.088 A 
HETATM    7  N   UNL     1      40.327  45.669  64.023  1.00  0.00    -0.225 NA
HETATM    8  C   UNL     1      43.342  44.069  65.372  1.00  0.00     0.034 A 
HETATM    9  C   UNL     1      44.172  45.181  65.513  1.00  0.00     0.002 A 
HETATM   10  C   UNL     1      43.698  46.436  65.159  1.00  0.00     0.002 A 
HETATM   11  C   UNL     1      42.401  46.567  64.658  1.00  0.00     0.034 A 
HETATM   12  C   UNL     1      38.998  42.335  64.111  1.00  0.00     0.110 C 
HETATM   13  C   UNL     1      37.943  43.045  63.558  1.00  0.00     0.143 C 
ENDROOT
BRANCH   1  14
HETATM   14  N   UNL     1      37.452  45.429  63.192  1.00  0.00    -0.176 NA
HETATM   15  C   UNL     1      36.594  45.816  64.091  1.00  0.00     0.150 C 
BRANCH  15  16
HETATM   16  C   UNL     1      36.467  45.433  65.518  1.00  0.00    -0.014 A 
HETATM   17  C   UNL     1      35.475  44.512  65.865  1.00  0.00     0.052 A 
HETATM   18  C   UNL     1      35.294  44.152  67.205  1.00  0.00     0.102 A 
HETATM   19  C   UNL     1      36.098  44.744  68.203  1.00  0.00     0.101 A 
HETATM   20  C   UNL     1      37.079  45.675  67.842  1.00  0.00     0.040 A 
HETATM   21  C   UNL     1      37.256  46.029  66.502  1.00  0.00     0.016 A 
BRANCH  18  22
HETATM   22  O   UNL     1      34.350  43.258  67.647  1.00  0.00    -0.353 OA
HETATM   23  C   UNL     1      33.628  42.521  66.671  1.00  0.00     0.210 C 
ENDBRANCH  18  22
BRANCH  19  24
HETATM   24  O   UNL     1      35.850  44.340  69.492  1.00  0.00    -0.353 OA
HETATM   25  C   UNL     1      36.929  44.385  70.415  1.00  0.00     0.210 C 
ENDBRANCH  19  24
ENDBRANCH  15  16
ENDBRANCH   1  14
BRANCH  13  26
HETATM   26  N   UNL     1      36.722  42.616  63.144  1.00  0.00    -0.383 N 
HETATM   27  H   UNL     1      36.255  41.889  63.693  1.00  0.00     0.157 HD
HETATM   28  H   UNL     1      36.521  42.569  62.146  1.00  0.00     0.157 HD
ENDBRANCH  13  26
BRANCH  12  29
HETATM   29  C   UNL     1      38.961  40.936  64.508  1.00  0.00     0.258 C 
HETATM   30  N   UNL     1      40.210  40.347  64.583  1.00  0.00    -0.352 N 
HETATM   31  H   UNL     1      40.976  40.924  64.246  1.00  0.00     0.163 HD
HETATM   32  O   UNL     1      37.932  40.368  64.867  1.00  0.00    -0.267 OA
BRANCH  30  33
HETATM   33  C   UNL     1      40.521  39.455  65.692  1.00  0.00     0.084 C 
HETATM   34  C   UNL     1      40.499  37.992  65.235  1.00  0.00     0.025 C 
HETATM   35  C   UNL     1      41.653  37.647  64.289  1.00  0.00     0.002 C 
HETATM   36  C   UNL     1      43.012  38.050  64.859  1.00  0.00     0.000 C 
HETATM   37  C   UNL     1      43.041  39.503  65.321  1.00  0.00     0.002 C 
HETATM   38  C   UNL     1      41.897  39.805  66.291  1.00  0.00     0.025 C 
ENDBRANCH  30  33
ENDBRANCH  12  29
TORSDOF 7
ENDMDL
MODEL 6
REMARK VINA RESULT:      -7.4     26.067     29.028
REMARK  7 active torsions:
REMARK  status: ('A' for Active; 'I' for Inactive)
REMARK    1  A    between atoms: O_2  and  C_3 
REMARK    2  A    between atoms: C_4  and  O_5 
REMARK    3  A    between atoms: C_8  and  C_9 
REMARK    4  A    between atoms: N_10  and  N_11 
REMARK    5  A    between atoms: C_22  and  C_23 
REMARK       I    between atoms: C_23  and  N_24 
REMARK    6  A    between atoms: N_24  and  C_25 
REMARK    7  A    between atoms: C_32  and  N_33 
ROOT
HETATM    1  N   UNL     1      38.738  43.321  63.582  1.00  0.00    -0.197 N 
HETATM    2  C   UNL     1      39.765  44.104  64.073  1.00  0.00     0.183 A 
HETATM    3  C   UNL     1      39.256  44.830  65.137  1.00  0.00     0.125 A 
HETATM    4  N   UNL     1      40.002  45.767  65.786  1.00  0.00    -0.242 NA
HETATM    5  C   UNL     1      41.254  45.903  65.320  1.00  0.00     0.086 A 
HETATM    6  C   UNL     1      41.751  45.156  64.218  1.00  0.00     0.088 A 
HETATM    7  N   UNL     1      41.013  44.244  63.563  1.00  0.00    -0.225 NA
HETATM    8  C   UNL     1      42.087  46.826  65.941  1.00  0.00     0.034 A 
HETATM    9  C   UNL     1      43.392  47.042  65.501  1.00  0.00     0.002 A 
HETATM   10  C   UNL     1      43.875  46.323  64.417  1.00  0.00     0.002 A 
HETATM   11  C   UNL     1      43.051  45.387  63.788  1.00  0.00     0.034 A 
HETATM   12  C   UNL     1      37.898  44.469  65.334  1.00  0.00     0.110 C 
HETATM   13  C   UNL     1      37.630  43.464  64.417  1.00  0.00     0.143 C 
ENDROOT
BRANCH   1  14
HETATM   14  N   UNL     1      38.809  42.523  62.473  1.00  0.00    -0.176 NA
HETATM   15  C   UNL     1      39.308  41.333  62.641  1.00  0.00     0.150 C 
BRANCH  15  16
HETATM   16  C   UNL     1      39.673  40.618  63.888  1.00  0.00    -0.014 A 
HETATM   17  C   UNL     1      40.822  41.028  64.568  1.00  0.00     0.052 A 
HETATM   18  C   UNL     1      41.226  40.355  65.727  1.00  0.00     0.102 A 
HETATM   19  C   UNL     1      40.482  39.247  66.187  1.00  0.00     0.101 A 
HETATM   20  C   UNL     1      39.339  38.840  65.488  1.00  0.00     0.040 A 
HETATM   21  C   UNL     1      38.942  39.516  64.332  1.00  0.00     0.016 A 
BRANCH  18  22
HETATM   22  O   UNL     1      42.337  40.680  66.466  1.00  0.00    -0.353 OA
HETATM   23  C   UNL     1      42.832  42.008  66.366  1.00  0.00     0.210 C 
ENDBRANCH  18  22
BRANCH  19  24
HETATM   24  O   UNL     1      40.950  38.641  67.328  1.00  0.00    -0.353 OA
HETATM   25  C   UNL     1      41.199  37.244  67.275  1.00  0.00     0.210 C 
ENDBRANCH  19  24
ENDBRANCH  15  16
ENDBRANCH   1  14
BRANCH  13  26
HETATM   26  N   UNL     1      36.498  42.736  64.224  1.00  0.00    -0.383 N 
HETATM   27  H   UNL     1      36.412  41.839  64.710  1.00  0.00     0.157 HD
HETATM   28  H   UNL     1      36.043  42.754  63.313  1.00  0.00     0.157 HD
ENDBRANCH  13  26
BRANCH  12  29
HETATM   29  C   UNL     1      36.928  45.076  66.234  1.00  0.00     0.258 C 
HETATM   30  N   UNL     1      37.351  46.275  66.778  1.00  0.00    -0.352 N 
HETATM   31  H   UNL     1      38.316  46.520  66.574  1.00  0.00     0.163 HD
HETATM   32  O   UNL     1      35.794  44.632  66.393  1.00  0.00    -0.267 OA
BRANCH  30  33
HETATM   33  C   UNL     1      36.416  47.387  66.885  1.00  0.00     0.084 C 
HETATM   34  C   UNL     1      37.021  48.527  67.712  1.00  0.00     0.025 C 
HETATM   35  C   UNL     1      38.182  49.228  67.000  1.00  0.00     0.002 C 
HETATM   36  C   UNL     1      37.811  49.676  65.587  1.00  0.00     0.000 C 
HETATM   37  C   UNL     1      37.204  48.549  64.759  1.00  0.00     0.002 C 
HETATM   38  C   UNL     1      36.026  47.894  65.484  1.00  0.00     0.025 C 
ENDBRANCH  30  33
ENDBRANCH  12  29
TORSDOF 7
ENDMDL
MODEL 7
REMARK VINA RESULT:      -7.3      1.416      2.020
REMARK  7 active torsions:
REMARK  status: ('A' for Active; 'I' for Inactive)
REMARK    1  A    between atoms: O_2  and  C_3 
REMARK    2  A    between atoms: C_4  and  O_5 
REMARK    3  A    between atoms: C_8  and  C_9 
REMARK    4  A    between atoms: N_10  and  N_11 
REMARK    5  A    between atoms: C_22  and  C_23 
REMARK       I    between atoms: C_23  and  N_24 
REMARK    6  A    between atoms: N_24  and  C_25 
REMARK    7  A    between atoms: C_32  and  N_33 
ROOT
HETATM    1  N   UNL     1      17.695  50.142  48.224  1.00  0.00    -0.197 N 
HETATM    2  C   UNL     1      17.632  49.024  47.415  1.00  0.00     0.183 A 
HETATM    3  C   UNL     1      17.349  49.461  46.131  1.00  0.00     0.125 A 
HETATM    4  N   UNL     1      17.135  48.587  45.109  1.00  0.00    -0.242 NA
HETATM    5  C   UNL     1      17.241  47.292  45.451  1.00  0.00     0.086 A 
HETATM    6  C   UNL     1      17.520  46.867  46.778  1.00  0.00     0.088 A 
HETATM    7  N   UNL     1      17.713  47.726  47.794  1.00  0.00    -0.225 NA
HETATM    8  C   UNL     1      17.056  46.336  44.460  1.00  0.00     0.034 A 
HETATM    9  C   UNL     1      17.127  44.972  44.740  1.00  0.00     0.002 A 
HETATM   10  C   UNL     1      17.386  44.554  46.038  1.00  0.00     0.002 A 
HETATM   11  C   UNL     1      17.581  45.505  47.042  1.00  0.00     0.034 A 
HETATM   12  C   UNL     1      17.267  50.878  46.133  1.00  0.00     0.110 C 
HETATM   13  C   UNL     1      17.579  51.279  47.423  1.00  0.00     0.143 C 
ENDROOT
BRANCH   1  14
HETATM   14  N   UNL     1      17.865  50.132  49.582  1.00  0.00    -0.176 NA
HETATM   15  C   UNL     1      19.084  49.996  50.015  1.00  0.00     0.150 C 
BRANCH  15  16
HETATM   16  C   UNL     1      20.369  50.015  49.276  1.00  0.00    -0.014 A 
HETATM   17  C   UNL     1      20.917  48.792  48.879  1.00  0.00     0.052 A 
HETATM   18  C   UNL     1      22.147  48.760  48.214  1.00  0.00     0.102 A 
HETATM   19  C   UNL     1      22.842  49.965  47.970  1.00  0.00     0.101 A 
HETATM   20  C   UNL     1      22.287  51.182  48.384  1.00  0.00     0.040 A 
HETATM   21  C   UNL     1      21.058  51.207  49.047  1.00  0.00     0.016 A 
BRANCH  18  22
HETATM   22  O   UNL     1      22.768  47.613  47.784  1.00  0.00    -0.353 OA
HETATM   23  C   UNL     1      23.058  46.616  48.753  1.00  0.00     0.210 C 
ENDBRANCH  18  22
BRANCH  19  24
HETATM   24  O   UNL     1      24.044  49.844  47.317  1.00  0.00    -0.353 OA
HETATM   25  C   UNL     1      25.228  50.007  48.083  1.00  0.00     0.210 C 
ENDBRANCH  19  24
ENDBRANCH  15  16
ENDBRANCH   1  14
BRANCH  13  26
HETATM   26  N   UNL     1      17.697  52.528  47.945  1.00  0.00    -0.383 N 
HETATM   27  H   UNL     1      18.608  52.992  47.888  1.00  0.00     0.157 HD
HETATM   28  H   UNL     1      17.164  52.774  48.778  1.00  0.00     0.157 HD
ENDBRANCH  13  26
BRANCH  12  29
HETATM   29  C   UNL     1      16.848  51.755  45.051  1.00  0.00     0.258 C 
HETATM   30  N   UNL     1      16.028  51.139  44.123  1.00  0.00    -0.352 N 
HETATM   31  H   UNL     1      15.917  50.136  44.250  1.00  0.00     0.163 HD
HETATM   32  O   UNL     1      17.092  52.959  45.032  1.00  0.00    -0.267 OA
BRANCH  30  33
HETATM   33  C   UNL     1      14.871  51.850  43.599  1.00  0.00     0.084 C 
HETATM   34  C   UNL     1      14.478  51.309  42.219  1.00  0.00     0.025 C 
HETATM   35  C   UNL     1      13.908  49.889  42.278  1.00  0.00     0.002 C 
HETATM   36  C   UNL     1      12.772  49.760  43.290  1.00  0.00     0.000 C 
HETATM   37  C   UNL     1      13.152  50.301  44.664  1.00  0.00     0.002 C 
HETATM   38  C   UNL     1      13.684  51.732  44.574  1.00  0.00     0.025 C 
ENDBRANCH  30  33
ENDBRANCH  12  29
TORSDOF 7
ENDMDL
MODEL 8
REMARK VINA RESULT:      -7.3      3.415      6.772
REMARK  7 active torsions:
REMARK  status: ('A' for Active; 'I' for Inactive)
REMARK    1  A    between atoms: O_2  and  C_3 
REMARK    2  A    between atoms: C_4  and  O_5 
REMARK    3  A    between atoms: C_8  and  C_9 
REMARK    4  A    between atoms: N_10  and  N_11 
REMARK    5  A    between atoms: C_22  and  C_23 
REMARK       I    between atoms: C_23  and  N_24 
REMARK    6  A    between atoms: N_24  and  C_25 
REMARK    7  A    between atoms: C_32  and  N_33 
ROOT
HETATM    1  N   UNL     1      19.440  44.774  47.575  1.00  0.00    -0.197 N 
HETATM    2  C   UNL     1      20.589  45.321  48.114  1.00  0.00     0.183 A 
HETATM    3  C   UNL     1      20.331  46.660  48.359  1.00  0.00     0.125 A 
HETATM    4  N   UNL     1      21.300  47.503  48.813  1.00  0.00    -0.242 NA
HETATM    5  C   UNL     1      22.495  46.923  49.014  1.00  0.00     0.086 A 
HETATM    6  C   UNL     1      22.739  45.549  48.744  1.00  0.00     0.088 A 
HETATM    7  N   UNL     1      21.791  44.718  48.278  1.00  0.00    -0.225 NA
HETATM    8  C   UNL     1      23.532  47.711  49.496  1.00  0.00     0.034 A 
HETATM    9  C   UNL     1      24.807  47.189  49.709  1.00  0.00     0.002 A 
HETATM   10  C   UNL     1      25.051  45.851  49.433  1.00  0.00     0.002 A 
HETATM   11  C   UNL     1      24.015  45.045  48.955  1.00  0.00     0.034 A 
HETATM   12  C   UNL     1      18.989  46.945  47.998  1.00  0.00     0.110 C 
HETATM   13  C   UNL     1      18.432  45.738  47.604  1.00  0.00     0.143 C 
ENDROOT
BRANCH   1  14
HETATM   14  N   UNL     1      19.311  43.493  47.112  1.00  0.00    -0.176 NA
HETATM   15  C   UNL     1      19.430  43.325  45.826  1.00  0.00     0.150 C 
BRANCH  15  16
HETATM   16  C   UNL     1      19.850  44.278  44.773  1.00  0.00    -0.014 A 
HETATM   17  C   UNL     1      21.220  44.476  44.573  1.00  0.00     0.052 A 
HETATM   18  C   UNL     1      21.661  45.396  43.616  1.00  0.00     0.102 A 
HETATM   19  C   UNL     1      20.718  46.141  42.875  1.00  0.00     0.101 A 
HETATM   20  C   UNL     1      19.350  45.942  43.094  1.00  0.00     0.040 A 
HETATM   21  C   UNL     1      18.915  45.021  44.051  1.00  0.00     0.016 A 
BRANCH  18  22
HETATM   22  O   UNL     1      22.981  45.661  43.346  1.00  0.00    -0.353 OA
HETATM   23  C   UNL     1      23.899  44.580  43.408  1.00  0.00     0.210 C 
ENDBRANCH  18  22
BRANCH  19  24
HETATM   24  O   UNL     1      21.235  47.027  41.961  1.00  0.00    -0.353 OA
HETATM   25  C   UNL     1      20.319  47.818  41.220  1.00  0.00     0.210 C 
ENDBRANCH  19  24
ENDBRANCH  15  16
ENDBRANCH   1  14
BRANCH  13  26
HETATM   26  N   UNL     1      17.162  45.447  47.216  1.00  0.00    -0.383 N 
HETATM   27  H   UNL     1      17.032  44.796  46.437  1.00  0.00     0.157 HD
HETATM   28  H   UNL     1      16.445  46.169  47.270  1.00  0.00     0.157 HD
ENDBRANCH  13  26
BRANCH  12  29
HETATM   29  C   UNL     1      18.329  48.241  47.944  1.00  0.00     0.258 C 
HETATM   30  N   UNL     1      18.856  49.169  48.824  1.00  0.00    -0.352 N 
HETATM   31  H   UNL     1      19.550  48.801  49.469  1.00  0.00     0.163 HD
HETATM   32  O   UNL     1      17.474  48.523  47.108  1.00  0.00    -0.267 OA
BRANCH  30  33
HETATM   33  C   UNL     1      19.051  50.545  48.388  1.00  0.00     0.084 C 
HETATM   34  C   UNL     1      19.583  51.408  49.538  1.00  0.00     0.025 C 
HETATM   35  C   UNL     1      21.019  51.052  49.934  1.00  0.00     0.002 C 
HETATM   36  C   UNL     1      21.967  51.042  48.737  1.00  0.00     0.000 C 
HETATM   37  C   UNL     1      21.443  50.189  47.587  1.00  0.00     0.002 C 
HETATM   38  C   UNL     1      20.021  50.594  47.192  1.00  0.00     0.025 C 
ENDBRANCH  30  33
ENDBRANCH  12  29
TORSDOF 7
ENDMDL
MODEL 9
REMARK VINA RESULT:      -7.2      1.667      2.022
REMARK  7 active torsions:
REMARK  status: ('A' for Active; 'I' for Inactive)
REMARK    1  A    between atoms: O_2  and  C_3 
REMARK    2  A    between atoms: C_4  and  O_5 
REMARK    3  A    between atoms: C_8  and  C_9 
REMARK    4  A    between atoms: N_10  and  N_11 
REMARK    5  A    between atoms: C_22  and  C_23 
REMARK       I    between atoms: C_23  and  N_24 
REMARK    6  A    between atoms: N_24  and  C_25 
REMARK    7  A    between atoms: C_32  and  N_33 
ROOT
HETATM    1  N   UNL     1      17.610  49.955  47.524  1.00  0.00    -0.197 N 
HETATM    2  C   UNL     1      17.838  48.785  46.825  1.00  0.00     0.183 A 
HETATM    3  C   UNL     1      18.078  49.134  45.506  1.00  0.00     0.125 A 
HETATM    4  N   UNL     1      18.254  48.193  44.538  1.00  0.00    -0.242 NA
HETATM    5  C   UNL     1      18.194  46.925  44.976  1.00  0.00     0.086 A 
HETATM    6  C   UNL     1      17.935  46.590  46.332  1.00  0.00     0.088 A 
HETATM    7  N   UNL     1      17.742  47.515  47.287  1.00  0.00    -0.225 NA
HETATM    8  C   UNL     1      18.384  45.904  44.052  1.00  0.00     0.034 A 
HETATM    9  C   UNL     1      18.314  44.562  44.424  1.00  0.00     0.002 A 
HETATM   10  C   UNL     1      18.047  44.233  45.745  1.00  0.00     0.002 A 
HETATM   11  C   UNL     1      17.862  45.250  46.685  1.00  0.00     0.034 A 
HETATM   12  C   UNL     1      18.031  50.548  45.387  1.00  0.00     0.110 C 
HETATM   13  C   UNL     1      17.833  51.035  46.670  1.00  0.00     0.143 C 
ENDROOT
BRANCH   1  14
HETATM   14  N   UNL     1      17.246  50.035  48.841  1.00  0.00    -0.176 NA
HETATM   15  C   UNL     1      18.207  49.961  49.716  1.00  0.00     0.150 C 
BRANCH  15  16
HETATM   16  C   UNL     1      19.677  49.967  49.524  1.00  0.00    -0.014 A 
HETATM   17  C   UNL     1      20.323  48.740  49.355  1.00  0.00     0.052 A 
HETATM   18  C   UNL     1      21.714  48.696  49.211  1.00  0.00     0.102 A 
HETATM   19  C   UNL     1      22.460  49.893  49.263  1.00  0.00     0.101 A 
HETATM   20  C   UNL     1      21.801  51.115  49.445  1.00  0.00     0.040 A 
HETATM   21  C   UNL     1      20.412  51.152  49.588  1.00  0.00     0.016 A 
BRANCH  18  22
HETATM   22  O   UNL     1      22.440  47.544  49.040  1.00  0.00    -0.353 OA
HETATM   23  C   UNL     1      21.918  46.556  48.164  1.00  0.00     0.210 C 
ENDBRANCH  18  22
BRANCH  19  24
HETATM   24  O   UNL     1      23.820  49.761  49.119  1.00  0.00    -0.353 OA
HETATM   25  C   UNL     1      24.398  50.199  47.899  1.00  0.00     0.210 C 
ENDBRANCH  19  24
ENDBRANCH  15  16
ENDBRANCH   1  14
BRANCH  13  26
HETATM   26  N   UNL     1      17.767  52.317  47.117  1.00  0.00    -0.383 N 
HETATM   27  H   UNL     1      17.361  53.024  46.499  1.00  0.00     0.157 HD
HETATM   28  H   UNL     1      18.509  52.675  47.717  1.00  0.00     0.157 HD
ENDBRANCH  13  26
BRANCH  12  29
HETATM   29  C   UNL     1      18.076  51.349  44.173  1.00  0.00     0.258 C 
HETATM   30  N   UNL     1      18.911  50.833  43.198  1.00  0.00    -0.352 N 
HETATM   31  H   UNL     1      19.467  50.034  43.491  1.00  0.00     0.163 HD
HETATM   32  O   UNL     1      17.347  52.319  43.984  1.00  0.00    -0.267 OA
BRANCH  30  33
HETATM   33  C   UNL     1      18.484  50.842  41.807  1.00  0.00     0.084 C 
HETATM   34  C   UNL     1      19.408  51.724  40.960  1.00  0.00     0.025 C 
HETATM   35  C   UNL     1      20.812  51.133  40.799  1.00  0.00     0.002 C 
HETATM   36  C   UNL     1      20.781  49.689  40.302  1.00  0.00     0.000 C 
HETATM   37  C   UNL     1      19.860  48.806  41.135  1.00  0.00     0.002 C 
HETATM   38  C   UNL     1      18.457  49.407  41.246  1.00  0.00     0.025 C 
ENDBRANCH  30  33
ENDBRANCH  12  29
TORSDOF 7
ENDMDL
MODEL 10
REMARK VINA RESULT:      -7.1     26.262     27.929
REMARK  7 active torsions:
REMARK  status: ('A' for Active; 'I' for Inactive)
REMARK    1  A    between atoms: O_2  and  C_3 
REMARK    2  A    between atoms: C_4  and  O_5 
REMARK    3  A    between atoms: C_8  and  C_9 
REMARK    4  A    between atoms: N_10  and  N_11 
REMARK    5  A    between atoms: C_22  and  C_23 
REMARK       I    between atoms: C_23  and  N_24 
REMARK    6  A    between atoms: N_24  and  C_25 
REMARK    7  A    between atoms: C_32  and  N_33 
ROOT
HETATM    1  N   UNL     1      36.393  46.708  65.256  1.00  0.00    -0.197 N 
HETATM    2  C   UNL     1      36.880  45.448  64.966  1.00  0.00     0.183 A 
HETATM    3  C   UNL     1      36.668  44.658  66.084  1.00  0.00     0.125 A 
HETATM    4  N   UNL     1      37.117  43.374  66.149  1.00  0.00    -0.242 NA
HETATM    5  C   UNL     1      37.756  42.951  65.045  1.00  0.00     0.086 A 
HETATM    6  C   UNL     1      37.973  43.784  63.914  1.00  0.00     0.088 A 
HETATM    7  N   UNL     1      37.547  45.057  63.853  1.00  0.00    -0.225 NA
HETATM    8  C   UNL     1      38.228  41.645  65.023  1.00  0.00     0.034 A 
HETATM    9  C   UNL     1      38.921  41.138  63.924  1.00  0.00     0.002 A 
HETATM   10  C   UNL     1      39.146  41.954  62.824  1.00  0.00     0.002 A 
HETATM   11  C   UNL     1      38.669  43.266  62.830  1.00  0.00     0.034 A 
HETATM   12  C   UNL     1      36.007  45.430  67.075  1.00  0.00     0.110 C 
HETATM   13  C   UNL     1      35.765  46.668  66.501  1.00  0.00     0.143 C 
ENDROOT
BRANCH   1  14
HETATM   14  N   UNL     1      36.495  47.805  64.444  1.00  0.00    -0.176 NA
HETATM   15  C   UNL     1      37.596  48.494  64.530  1.00  0.00     0.150 C 
BRANCH  15  16
HETATM   16  C   UNL     1      38.854  48.196  65.255  1.00  0.00    -0.014 A 
HETATM   17  C   UNL     1      39.920  47.658  64.528  1.00  0.00     0.052 A 
HETATM   18  C   UNL     1      41.113  47.325  65.179  1.00  0.00     0.102 A 
HETATM   19  C   UNL     1      41.223  47.511  66.574  1.00  0.00     0.101 A 
HETATM   20  C   UNL     1      40.143  48.039  67.292  1.00  0.00     0.040 A 
HETATM   21  C   UNL     1      38.955  48.370  66.636  1.00  0.00     0.016 A 
BRANCH  18  22
HETATM   22  O   UNL     1      42.214  46.793  64.556  1.00  0.00    -0.353 OA
HETATM   23  C   UNL     1      42.134  45.449  64.105  1.00  0.00     0.210 C 
ENDBRANCH  18  22
BRANCH  19  24
HETATM   24  O   UNL     1      42.425  47.153  67.135  1.00  0.00    -0.353 OA
HETATM   25  C   UNL     1      42.412  46.139  68.128  1.00  0.00     0.210 C 
ENDBRANCH  19  24
ENDBRANCH  15  16
ENDBRANCH   1  14
BRANCH  13  26
HETATM   26  N   UNL     1      35.115  47.752  67.001  1.00  0.00    -0.383 N 
HETATM   27  H   UNL     1      35.580  48.662  66.947  1.00  0.00     0.157 HD
HETATM   28  H   UNL     1      34.522  47.643  67.823  1.00  0.00     0.157 HD
ENDBRANCH  13  26
BRANCH  12  29
HETATM   29  C   UNL     1      35.717  45.063  68.453  1.00  0.00     0.258 C 
HETATM   30  N   UNL     1      34.396  44.718  68.670  1.00  0.00    -0.352 N 
HETATM   31  H   UNL     1      33.778  44.871  67.877  1.00  0.00     0.163 HD
HETATM   32  O   UNL     1      36.588  44.948  69.312  1.00  0.00    -0.267 OA
BRANCH  30  33
HETATM   33  C   UNL     1      34.079  43.577  69.517  1.00  0.00     0.084 C 
HETATM   34  C   UNL     1      33.341  44.027  70.783  1.00  0.00     0.025 C 
HETATM   35  C   UNL     1      31.927  44.541  70.496  1.00  0.00     0.002 C 
HETATM   36  C   UNL     1      31.105  43.551  69.673  1.00  0.00     0.000 C 
HETATM   37  C   UNL     1      31.834  43.093  68.415  1.00  0.00     0.002 C 
HETATM   38  C   UNL     1      33.228  42.554  68.741  1.00  0.00     0.025 C 
ENDBRANCH  30  33
ENDBRANCH  12  29
TORSDOF 7
ENDMDL
