MODEL 1
REMARK VINA RESULT:      -8.9      0.000      0.000
REMARK  7 active torsions:
REMARK  status: ('A' for Active; 'I' for Inactive)
REMARK       I    between atoms: N_2  and  C_3 
REMARK    1  A    between atoms: C_3  and  C_4 
REMARK    2  A    between atoms: C_4  and  C_5 
REMARK    3  A    between atoms: C_5  and  O_6 
REMARK    4  A    between atoms: O_6  and  C_7 
REMARK    5  A    between atoms: C_10  and  N_11 
REMARK       I    between atoms: N_11  and  C_12 
REMARK    6  A    between atoms: C_12  and  C_13 
REMARK    7  A    between atoms: C_15  and  C_16 
ROOT
HETATM    1  N   UNL     1      26.925  45.176  51.534  1.00  0.00    -0.323 N 
HETATM    2  C   UNL     1      26.965  44.879  52.885  1.00  0.00     0.256 C 
HETATM    3  O   UNL     1      26.095  45.122  53.713  1.00  0.00    -0.267 OA
HETATM    4  H   UNL     1      27.766  45.009  50.999  1.00  0.00     0.169 HD
ENDROOT
BRANCH   1   5
HETATM    5  C   UNL     1      25.859  45.766  50.820  1.00  0.00     0.035 A 
HETATM    6  C   UNL     1      24.810  45.048  50.247  1.00  0.00     0.032 A 
HETATM    7  C   UNL     1      23.782  45.706  49.555  1.00  0.00     0.039 A 
HETATM    8  C   UNL     1      23.798  47.091  49.424  1.00  0.00     0.068 A 
HETATM    9  C   UNL     1      24.850  47.814  49.987  1.00  0.00     0.039 A 
HETATM   10  C   UNL     1      25.871  47.158  50.683  1.00  0.00     0.032 A 
BRANCH   8  11
HETATM   11  O   UNL     1      22.867  47.850  48.770  1.00  0.00    -0.351 OA
BRANCH  11  12
HETATM   12  C   UNL     1      23.231  49.201  48.462  1.00  0.00     0.185 C 
BRANCH  12  13
HETATM   13  C   UNL     1      22.081  50.110  48.872  1.00  0.00     0.129 C 
BRANCH  13  14
HETATM   14  C   UNL     1      20.745  49.414  48.721  1.00  0.00     0.219 C 
HETATM   15  N   UNL     1      20.307  48.767  49.853  1.00  0.00    -0.365 N 
HETATM   16  C   UNL     1      19.018  48.128  49.893  1.00  0.00     0.149 C 
HETATM   17  H   UNL     1      20.774  48.981  50.730  1.00  0.00     0.161 HD
HETATM   18  O   UNL     1      20.134  49.407  47.656  1.00  0.00    -0.274 OA
ENDBRANCH  13  14
ENDBRANCH  12  13
ENDBRANCH  11  12
ENDBRANCH   8  11
ENDBRANCH   1   5
BRANCH   2  19
HETATM   19  C   UNL     1      28.222  44.229  53.359  1.00  0.00     0.033 A 
HETATM   20  C   UNL     1      28.726  44.608  54.612  1.00  0.00     0.029 A 
HETATM   21  C   UNL     1      29.896  44.026  55.119  1.00  0.00    -0.023 A 
HETATM   22  C   UNL     1      30.557  43.061  54.349  1.00  0.00     0.012 A 
HETATM   23  C   UNL     1      30.049  42.667  53.107  1.00  0.00     0.002 A 
HETATM   24  C   UNL     1      28.879  43.244  52.614  1.00  0.00     0.017 A 
BRANCH  21  25
HETATM   25  C   UNL     1      30.425  44.410  56.419  1.00  0.00    -0.002 A 
HETATM   26  C   UNL     1      31.397  43.709  57.107  1.00  0.00     0.153 A 
HETATM   27  O   UNL     1      31.694  44.320  58.284  1.00  0.00    -0.334 OA
HETATM   28  C   UNL     1      30.916  45.428  58.358  1.00  0.00     0.142 A 
HETATM   29  C   UNL     1      30.124  45.535  57.239  1.00  0.00     0.038 A 
ENDBRANCH  21  25
ENDBRANCH   2  19
TORSDOF 7
ENDMDL
MODEL 2
REMARK VINA RESULT:      -8.8      1.691      2.248
REMARK  7 active torsions:
REMARK  status: ('A' for Active; 'I' for Inactive)
REMARK       I    between atoms: N_2  and  C_3 
REMARK    1  A    between atoms: C_3  and  C_4 
REMARK    2  A    between atoms: C_4  and  C_5 
REMARK    3  A    between atoms: C_5  and  O_6 
REMARK    4  A    between atoms: O_6  and  C_7 
REMARK    5  A    between atoms: C_10  and  N_11 
REMARK       I    between atoms: N_11  and  C_12 
REMARK    6  A    between atoms: C_12  and  C_13 
REMARK    7  A    between atoms: C_15  and  C_16 
ROOT
HETATM    1  N   UNL     1      26.553  45.568  51.161  1.00  0.00    -0.323 N 
HETATM    2  C   UNL     1      27.100  44.416  50.624  1.00  0.00     0.256 C 
HETATM    3  O   UNL     1      27.091  44.082  49.445  1.00  0.00    -0.267 OA
HETATM    4  H   UNL     1      26.547  45.651  52.168  1.00  0.00     0.169 HD
ENDROOT
BRANCH   1   5
HETATM    5  C   UNL     1      25.925  46.621  50.462  1.00  0.00     0.035 A 
HETATM    6  C   UNL     1      26.603  47.707  49.908  1.00  0.00     0.032 A 
HETATM    7  C   UNL     1      25.908  48.714  49.223  1.00  0.00     0.039 A 
HETATM    8  C   UNL     1      24.524  48.649  49.090  1.00  0.00     0.068 A 
HETATM    9  C   UNL     1      23.840  47.569  49.649  1.00  0.00     0.039 A 
HETATM   10  C   UNL     1      24.534  46.561  50.327  1.00  0.00     0.032 A 
BRANCH   8  11
HETATM   11  O   UNL     1      23.731  49.564  48.456  1.00  0.00    -0.351 OA
BRANCH  11  12
HETATM   12  C   UNL     1      22.320  49.475  48.692  1.00  0.00     0.185 C 
BRANCH  12  13
HETATM   13  C   UNL     1      21.867  50.761  49.369  1.00  0.00     0.129 C 
BRANCH  13  14
HETATM   14  C   UNL     1      20.454  50.639  49.898  1.00  0.00     0.219 C 
HETATM   15  N   UNL     1      20.082  49.360  50.242  1.00  0.00    -0.365 N 
HETATM   16  C   UNL     1      18.799  49.093  50.837  1.00  0.00     0.149 C 
HETATM   17  H   UNL     1      20.815  48.661  50.328  1.00  0.00     0.161 HD
HETATM   18  O   UNL     1      19.703  51.607  49.974  1.00  0.00    -0.274 OA
ENDBRANCH  13  14
ENDBRANCH  12  13
ENDBRANCH  11  12
ENDBRANCH   8  11
ENDBRANCH   1   5
BRANCH   2  19
HETATM   19  C   UNL     1      27.727  43.487  51.609  1.00  0.00     0.033 A 
HETATM   20  C   UNL     1      28.392  44.047  52.711  1.00  0.00     0.029 A 
HETATM   21  C   UNL     1      28.992  43.228  53.677  1.00  0.00    -0.023 A 
HETATM   22  C   UNL     1      28.918  41.838  53.522  1.00  0.00     0.012 A 
HETATM   23  C   UNL     1      28.242  41.275  52.437  1.00  0.00     0.002 A 
HETATM   24  C   UNL     1      27.639  42.096  51.484  1.00  0.00     0.017 A 
BRANCH  21  25
HETATM   25  C   UNL     1      29.682  43.799  54.824  1.00  0.00    -0.002 A 
HETATM   26  C   UNL     1      29.360  45.009  55.409  1.00  0.00     0.153 A 
HETATM   27  O   UNL     1      30.172  45.267  56.467  1.00  0.00    -0.334 OA
HETATM   28  C   UNL     1      31.023  44.217  56.574  1.00  0.00     0.142 A 
HETATM   29  C   UNL     1      30.763  43.286  55.596  1.00  0.00     0.038 A 
ENDBRANCH  21  25
ENDBRANCH   2  19
TORSDOF 7
ENDMDL
MODEL 3
REMARK VINA RESULT:      -8.5      4.045      7.792
REMARK  7 active torsions:
REMARK  status: ('A' for Active; 'I' for Inactive)
REMARK       I    between atoms: N_2  and  C_3 
REMARK    1  A    between atoms: C_3  and  C_4 
REMARK    2  A    between atoms: C_4  and  C_5 
REMARK    3  A    between atoms: C_5  and  O_6 
REMARK    4  A    between atoms: O_6  and  C_7 
REMARK    5  A    between atoms: C_10  and  N_11 
REMARK       I    between atoms: N_11  and  C_12 
REMARK    6  A    between atoms: C_12  and  C_13 
REMARK    7  A    between atoms: C_15  and  C_16 
ROOT
HETATM    1  N   UNL     1      22.239  50.093  49.533  1.00  0.00    -0.323 N 
HETATM    2  C   UNL     1      22.968  49.609  48.462  1.00  0.00     0.256 C 
HETATM    3  O   UNL     1      22.555  49.414  47.324  1.00  0.00    -0.267 OA
HETATM    4  H   UNL     1      22.693  50.099  50.436  1.00  0.00     0.169 HD
ENDROOT
BRANCH   1   5
HETATM    5  C   UNL     1      20.892  50.516  49.529  1.00  0.00     0.035 A 
HETATM    6  C   UNL     1      20.430  51.650  48.862  1.00  0.00     0.032 A 
HETATM    7  C   UNL     1      19.073  52.003  48.900  1.00  0.00     0.039 A 
HETATM    8  C   UNL     1      18.164  51.227  49.613  1.00  0.00     0.068 A 
HETATM    9  C   UNL     1      18.622  50.096  50.290  1.00  0.00     0.039 A 
HETATM   10  C   UNL     1      19.974  49.740  50.246  1.00  0.00     0.032 A 
BRANCH   8  11
HETATM   11  O   UNL     1      16.823  51.465  49.737  1.00  0.00    -0.351 OA
BRANCH  11  12
HETATM   12  C   UNL     1      16.424  52.819  49.985  1.00  0.00     0.185 C 
BRANCH  12  13
HETATM   13  C   UNL     1      14.916  52.912  49.802  1.00  0.00     0.129 C 
BRANCH  13  14
HETATM   14  C   UNL     1      14.275  53.730  50.902  1.00  0.00     0.219 C 
HETATM   15  N   UNL     1      15.161  54.458  51.661  1.00  0.00    -0.365 N 
HETATM   16  C   UNL     1      14.700  55.349  52.693  1.00  0.00     0.149 C 
HETATM   17  H   UNL     1      16.108  54.569  51.308  1.00  0.00     0.161 HD
HETATM   18  O   UNL     1      13.065  53.707  51.109  1.00  0.00    -0.274 OA
ENDBRANCH  13  14
ENDBRANCH  12  13
ENDBRANCH  11  12
ENDBRANCH   8  11
ENDBRANCH   1   5
BRANCH   2  19
HETATM   19  C   UNL     1      24.389  49.264  48.759  1.00  0.00     0.033 A 
HETATM   20  C   UNL     1      24.639  48.163  49.592  1.00  0.00     0.029 A 
HETATM   21  C   UNL     1      25.951  47.781  49.901  1.00  0.00    -0.023 A 
HETATM   22  C   UNL     1      27.012  48.522  49.365  1.00  0.00     0.012 A 
HETATM   23  C   UNL     1      26.770  49.610  48.521  1.00  0.00     0.002 A 
HETATM   24  C   UNL     1      25.460  49.977  48.210  1.00  0.00     0.017 A 
BRANCH  21  25
HETATM   25  C   UNL     1      26.220  46.639  50.762  1.00  0.00    -0.002 A 
HETATM   26  C   UNL     1      26.716  45.427  50.322  1.00  0.00     0.153 A 
HETATM   27  O   UNL     1      26.874  44.563  51.359  1.00  0.00    -0.334 OA
HETATM   28  C   UNL     1      26.485  45.220  52.480  1.00  0.00     0.142 A 
HETATM   29  C   UNL     1      26.081  46.498  52.172  1.00  0.00     0.038 A 
ENDBRANCH  21  25
ENDBRANCH   2  19
TORSDOF 7
ENDMDL
MODEL 4
REMARK VINA RESULT:      -8.2      2.193      2.906
REMARK  7 active torsions:
REMARK  status: ('A' for Active; 'I' for Inactive)
REMARK       I    between atoms: N_2  and  C_3 
REMARK    1  A    between atoms: C_3  and  C_4 
REMARK    2  A    between atoms: C_4  and  C_5 
REMARK    3  A    between atoms: C_5  and  O_6 
REMARK    4  A    between atoms: O_6  and  C_7 
REMARK    5  A    between atoms: C_10  and  N_11 
REMARK       I    between atoms: N_11  and  C_12 
REMARK    6  A    between atoms: C_12  and  C_13 
REMARK    7  A    between atoms: C_15  and  C_16 
ROOT
HETATM    1  N   UNL     1      26.443  43.710  51.498  1.00  0.00    -0.323 N 
HETATM    2  C   UNL     1      26.699  44.081  52.806  1.00  0.00     0.256 C 
HETATM    3  O   UNL     1      25.934  44.666  53.564  1.00  0.00    -0.267 OA
HETATM    4  H   UNL     1      27.213  43.328  50.967  1.00  0.00     0.169 HD
ENDROOT
BRANCH   1   5
HETATM    5  C   UNL     1      25.236  43.875  50.784  1.00  0.00     0.035 A 
HETATM    6  C   UNL     1      24.845  45.067  50.174  1.00  0.00     0.032 A 
HETATM    7  C   UNL     1      23.631  45.152  49.477  1.00  0.00     0.039 A 
HETATM    8  C   UNL     1      22.791  44.045  49.388  1.00  0.00     0.068 A 
HETATM    9  C   UNL     1      23.174  42.854  50.004  1.00  0.00     0.039 A 
HETATM   10  C   UNL     1      24.388  42.767  50.694  1.00  0.00     0.032 A 
BRANCH   8  11
HETATM   11  O   UNL     1      21.583  43.999  48.750  1.00  0.00    -0.351 OA
BRANCH  11  12
HETATM   12  C   UNL     1      21.599  44.111  47.321  1.00  0.00     0.185 C 
BRANCH  12  13
HETATM   13  C   UNL     1      20.168  44.311  46.843  1.00  0.00     0.129 C 
BRANCH  13  14
HETATM   14  C   UNL     1      19.369  45.142  47.824  1.00  0.00     0.219 C 
HETATM   15  N   UNL     1      19.938  46.354  48.141  1.00  0.00    -0.365 N 
HETATM   16  C   UNL     1      19.261  47.292  48.997  1.00  0.00     0.149 C 
HETATM   17  H   UNL     1      20.698  46.688  47.555  1.00  0.00     0.161 HD
HETATM   18  O   UNL     1      18.319  44.737  48.314  1.00  0.00    -0.274 OA
ENDBRANCH  13  14
ENDBRANCH  12  13
ENDBRANCH  11  12
ENDBRANCH   8  11
ENDBRANCH   1   5
BRANCH   2  19
HETATM   19  C   UNL     1      28.066  43.754  53.307  1.00  0.00     0.033 A 
HETATM   20  C   UNL     1      28.477  44.327  54.521  1.00  0.00     0.029 A 
HETATM   21  C   UNL     1      29.745  44.051  55.051  1.00  0.00    -0.023 A 
HETATM   22  C   UNL     1      30.598  43.194  54.343  1.00  0.00     0.012 A 
HETATM   23  C   UNL     1      30.188  42.608  53.143  1.00  0.00     0.002 A 
HETATM   24  C   UNL     1      28.920  42.879  52.628  1.00  0.00     0.017 A 
BRANCH  21  25
HETATM   25  C   UNL     1      30.178  44.638  56.309  1.00  0.00    -0.002 A 
HETATM   26  C   UNL     1      29.717  45.839  56.813  1.00  0.00     0.153 A 
HETATM   27  O   UNL     1      30.295  46.116  58.011  1.00  0.00    -0.334 OA
HETATM   28  C   UNL     1      31.133  45.086  58.290  1.00  0.00     0.142 A 
HETATM   29  C   UNL     1      31.095  44.150  57.284  1.00  0.00     0.038 A 
ENDBRANCH  21  25
ENDBRANCH   2  19
TORSDOF 7
ENDMDL
MODEL 5
REMARK VINA RESULT:      -8.1      1.484      1.967
REMARK  7 active torsions:
REMARK  status: ('A' for Active; 'I' for Inactive)
REMARK       I    between atoms: N_2  and  C_3 
REMARK    1  A    between atoms: C_3  and  C_4 
REMARK    2  A    between atoms: C_4  and  C_5 
REMARK    3  A    between atoms: C_5  and  O_6 
REMARK    4  A    between atoms: O_6  and  C_7 
REMARK    5  A    between atoms: C_10  and  N_11 
REMARK       I    between atoms: N_11  and  C_12 
REMARK    6  A    between atoms: C_12  and  C_13 
REMARK    7  A    between atoms: C_15  and  C_16 
ROOT
HETATM    1  N   UNL     1      26.008  45.398  50.867  1.00  0.00    -0.323 N 
HETATM    2  C   UNL     1      25.936  44.591  51.989  1.00  0.00     0.256 C 
HETATM    3  O   UNL     1      24.917  44.215  52.556  1.00  0.00    -0.267 OA
HETATM    4  H   UNL     1      26.925  45.709  50.580  1.00  0.00     0.169 HD
ENDROOT
BRANCH   1   5
HETATM    5  C   UNL     1      24.930  45.909  50.112  1.00  0.00     0.035 A 
HETATM    6  C   UNL     1      24.178  45.154  49.212  1.00  0.00     0.032 A 
HETATM    7  C   UNL     1      23.117  45.732  48.501  1.00  0.00     0.039 A 
HETATM    8  C   UNL     1      22.800  47.076  48.677  1.00  0.00     0.068 A 
HETATM    9  C   UNL     1      23.555  47.838  49.570  1.00  0.00     0.039 A 
HETATM   10  C   UNL     1      24.609  47.260  50.285  1.00  0.00     0.032 A 
BRANCH   8  11
HETATM   11  O   UNL     1      21.802  47.760  48.042  1.00  0.00    -0.351 OA
BRANCH  11  12
HETATM   12  C   UNL     1      20.694  46.991  47.557  1.00  0.00     0.185 C 
BRANCH  12  13
HETATM   13  C   UNL     1      19.843  46.577  48.749  1.00  0.00     0.129 C 
BRANCH  13  14
HETATM   14  C   UNL     1      19.041  47.744  49.287  1.00  0.00     0.219 C 
HETATM   15  N   UNL     1      19.737  48.569  50.139  1.00  0.00    -0.365 N 
HETATM   16  C   UNL     1      19.139  49.766  50.669  1.00  0.00     0.149 C 
HETATM   17  H   UNL     1      20.749  48.475  50.169  1.00  0.00     0.161 HD
HETATM   18  O   UNL     1      17.858  47.904  49.004  1.00  0.00    -0.274 OA
ENDBRANCH  13  14
ENDBRANCH  12  13
ENDBRANCH  11  12
ENDBRANCH   8  11
ENDBRANCH   1   5
BRANCH   2  19
HETATM   19  C   UNL     1      27.250  44.180  52.565  1.00  0.00     0.033 A 
HETATM   20  C   UNL     1      27.653  44.772  53.771  1.00  0.00     0.029 A 
HETATM   21  C   UNL     1      28.871  44.421  54.370  1.00  0.00    -0.023 A 
HETATM   22  C   UNL     1      29.682  43.468  53.739  1.00  0.00     0.012 A 
HETATM   23  C   UNL     1      29.276  42.862  52.546  1.00  0.00     0.002 A 
HETATM   24  C   UNL     1      28.058  43.210  51.963  1.00  0.00     0.017 A 
BRANCH  21  25
HETATM   25  C   UNL     1      29.297  45.028  55.621  1.00  0.00    -0.002 A 
HETATM   26  C   UNL     1      28.538  45.915  56.360  1.00  0.00     0.153 A 
HETATM   27  O   UNL     1      29.196  46.298  57.485  1.00  0.00    -0.334 OA
HETATM   28  C   UNL     1      30.389  45.652  57.481  1.00  0.00     0.142 A 
HETATM   29  C   UNL     1      30.500  44.855  56.365  1.00  0.00     0.038 A 
ENDBRANCH  21  25
ENDBRANCH   2  19
TORSDOF 7
ENDMDL
MODEL 6
REMARK VINA RESULT:      -8.0      4.821      7.327
REMARK  7 active torsions:
REMARK  status: ('A' for Active; 'I' for Inactive)
REMARK       I    between atoms: N_2  and  C_3 
REMARK    1  A    between atoms: C_3  and  C_4 
REMARK    2  A    between atoms: C_4  and  C_5 
REMARK    3  A    between atoms: C_5  and  O_6 
REMARK    4  A    between atoms: O_6  and  C_7 
REMARK    5  A    between atoms: C_10  and  N_11 
REMARK       I    between atoms: N_11  and  C_12 
REMARK    6  A    between atoms: C_12  and  C_13 
REMARK    7  A    between atoms: C_15  and  C_16 
ROOT
HETATM    1  N   UNL     1      27.533  43.349  52.236  1.00  0.00    -0.323 N 
HETATM    2  C   UNL     1      26.751  44.238  52.953  1.00  0.00     0.256 C 
HETATM    3  O   UNL     1      25.548  44.428  52.817  1.00  0.00    -0.267 OA
HETATM    4  H   UNL     1      28.530  43.383  52.391  1.00  0.00     0.169 HD
ENDROOT
BRANCH   1   5
HETATM    5  C   UNL     1      27.103  42.441  51.244  1.00  0.00     0.035 A 
HETATM    6  C   UNL     1      26.638  41.154  51.511  1.00  0.00     0.032 A 
HETATM    7  C   UNL     1      26.224  40.310  50.470  1.00  0.00     0.039 A 
HETATM    8  C   UNL     1      26.277  40.744  49.148  1.00  0.00     0.068 A 
HETATM    9  C   UNL     1      26.750  42.028  48.876  1.00  0.00     0.039 A 
HETATM   10  C   UNL     1      27.156  42.872  49.914  1.00  0.00     0.032 A 
BRANCH   8  11
HETATM   11  O   UNL     1      25.913  40.021  48.047  1.00  0.00    -0.351 OA
BRANCH  11  12
HETATM   12  C   UNL     1      26.362  38.662  47.984  1.00  0.00     0.185 C 
BRANCH  12  13
HETATM   13  C   UNL     1      27.883  38.660  48.011  1.00  0.00     0.129 C 
BRANCH  13  14
HETATM   14  C   UNL     1      28.414  37.964  49.246  1.00  0.00     0.219 C 
HETATM   15  N   UNL     1      29.615  38.452  49.704  1.00  0.00    -0.365 N 
HETATM   16  C   UNL     1      30.209  37.950  50.915  1.00  0.00     0.149 C 
HETATM   17  H   UNL     1      29.934  39.345  49.338  1.00  0.00     0.161 HD
HETATM   18  O   UNL     1      27.824  37.020  49.763  1.00  0.00    -0.274 OA
ENDBRANCH  13  14
ENDBRANCH  12  13
ENDBRANCH  11  12
ENDBRANCH   8  11
ENDBRANCH   1   5
BRANCH   2  19
HETATM   19  C   UNL     1      27.479  45.059  53.963  1.00  0.00     0.033 A 
HETATM   20  C   UNL     1      28.510  44.445  54.691  1.00  0.00     0.029 A 
HETATM   21  C   UNL     1      29.240  45.165  55.647  1.00  0.00    -0.023 A 
HETATM   22  C   UNL     1      28.919  46.511  55.866  1.00  0.00     0.012 A 
HETATM   23  C   UNL     1      27.905  47.132  55.132  1.00  0.00     0.002 A 
HETATM   24  C   UNL     1      27.190  46.411  54.175  1.00  0.00     0.017 A 
BRANCH  21  25
HETATM   25  C   UNL     1      30.312  44.538  56.404  1.00  0.00    -0.002 A 
HETATM   26  C   UNL     1      30.751  44.967  57.642  1.00  0.00     0.153 A 
HETATM   27  O   UNL     1      31.754  44.175  58.102  1.00  0.00    -0.334 OA
HETATM   28  C   UNL     1      31.964  43.221  57.161  1.00  0.00     0.142 A 
HETATM   29  C   UNL     1      31.104  43.393  56.102  1.00  0.00     0.038 A 
ENDBRANCH  21  25
ENDBRANCH   2  19
TORSDOF 7
ENDMDL
MODEL 7
REMARK VINA RESULT:      -7.8      3.021     10.024
REMARK  7 active torsions:
REMARK  status: ('A' for Active; 'I' for Inactive)
REMARK       I    between atoms: N_2  and  C_3 
REMARK    1  A    between atoms: C_3  and  C_4 
REMARK    2  A    between atoms: C_4  and  C_5 
REMARK    3  A    between atoms: C_5  and  O_6 
REMARK    4  A    between atoms: O_6  and  C_7 
REMARK    5  A    between atoms: C_10  and  N_11 
REMARK       I    between atoms: N_11  and  C_12 
REMARK    6  A    between atoms: C_12  and  C_13 
REMARK    7  A    between atoms: C_15  and  C_16 
ROOT
HETATM    1  N   UNL     1      24.982  47.247  50.867  1.00  0.00    -0.323 N 
HETATM    2  C   UNL     1      25.372  48.019  49.786  1.00  0.00     0.256 C 
HETATM    3  O   UNL     1      26.512  48.154  49.358  1.00  0.00    -0.267 OA
HETATM    4  H   UNL     1      24.019  47.321  51.164  1.00  0.00     0.169 HD
ENDROOT
BRANCH   1   5
HETATM    5  C   UNL     1      25.799  46.416  51.663  1.00  0.00     0.035 A 
HETATM    6  C   UNL     1      26.143  46.692  52.986  1.00  0.00     0.032 A 
HETATM    7  C   UNL     1      26.959  45.813  53.714  1.00  0.00     0.039 A 
HETATM    8  C   UNL     1      27.445  44.651  53.123  1.00  0.00     0.068 A 
HETATM    9  C   UNL     1      27.111  44.374  51.797  1.00  0.00     0.039 A 
HETATM   10  C   UNL     1      26.292  45.247  51.073  1.00  0.00     0.032 A 
BRANCH   8  11
HETATM   11  O   UNL     1      28.251  43.720  53.717  1.00  0.00    -0.351 OA
BRANCH  11  12
HETATM   12  C   UNL     1      27.681  42.428  53.963  1.00  0.00     0.185 C 
BRANCH  12  13
HETATM   13  C   UNL     1      28.641  41.375  53.429  1.00  0.00     0.129 C 
BRANCH  13  14
HETATM   14  C   UNL     1      28.145  40.785  52.126  1.00  0.00     0.219 C 
HETATM   15  N   UNL     1      26.787  40.883  51.936  1.00  0.00    -0.365 N 
HETATM   16  C   UNL     1      26.173  40.442  50.711  1.00  0.00     0.149 C 
HETATM   17  H   UNL     1      26.268  41.512  52.543  1.00  0.00     0.161 HD
HETATM   18  O   UNL     1      28.903  40.235  51.332  1.00  0.00    -0.274 OA
ENDBRANCH  13  14
ENDBRANCH  12  13
ENDBRANCH  11  12
ENDBRANCH   8  11
ENDBRANCH   1   5
BRANCH   2  19
HETATM   19  C   UNL     1      24.277  48.779  49.116  1.00  0.00     0.033 A 
HETATM   20  C   UNL     1      22.953  48.402  49.385  1.00  0.00     0.029 A 
HETATM   21  C   UNL     1      21.879  49.083  48.796  1.00  0.00    -0.023 A 
HETATM   22  C   UNL     1      22.153  50.148  47.928  1.00  0.00     0.012 A 
HETATM   23  C   UNL     1      23.469  50.539  47.669  1.00  0.00     0.002 A 
HETATM   24  C   UNL     1      24.532  49.862  48.268  1.00  0.00     0.017 A 
BRANCH  21  25
HETATM   25  C   UNL     1      20.503  48.701  49.071  1.00  0.00    -0.002 A 
HETATM   26  C   UNL     1      19.932  47.502  48.689  1.00  0.00     0.153 A 
HETATM   27  O   UNL     1      18.638  47.428  49.099  1.00  0.00    -0.334 OA
HETATM   28  C   UNL     1      18.369  48.583  49.758  1.00  0.00     0.142 A 
HETATM   29  C   UNL     1      19.478  49.396  49.776  1.00  0.00     0.038 A 
ENDBRANCH  21  25
ENDBRANCH   2  19
TORSDOF 7
ENDMDL
MODEL 8
REMARK VINA RESULT:      -7.7      4.051      7.500
REMARK  7 active torsions:
REMARK  status: ('A' for Active; 'I' for Inactive)
REMARK       I    between atoms: N_2  and  C_3 
REMARK    1  A    between atoms: C_3  and  C_4 
REMARK    2  A    between atoms: C_4  and  C_5 
REMARK    3  A    between atoms: C_5  and  O_6 
REMARK    4  A    between atoms: O_6  and  C_7 
REMARK    5  A    between atoms: C_10  and  N_11 
REMARK       I    between atoms: N_11  and  C_12 
REMARK    6  A    between atoms: C_12  and  C_13 
REMARK    7  A    between atoms: C_15  and  C_16 
ROOT
HETATM    1  N   UNL     1      22.073  49.799  49.631  1.00  0.00    -0.323 N 
HETATM    2  C   UNL     1      22.752  49.198  48.586  1.00  0.00     0.256 C 
HETATM    3  O   UNL     1      22.269  48.809  47.528  1.00  0.00    -0.267 OA
HETATM    4  H   UNL     1      22.591  49.967  50.482  1.00  0.00     0.169 HD
ENDROOT
BRANCH   1   5
HETATM    5  C   UNL     1      20.704  50.141  49.677  1.00  0.00     0.035 A 
HETATM    6  C   UNL     1      19.681  49.235  49.955  1.00  0.00     0.032 A 
HETATM    7  C   UNL     1      18.342  49.652  49.987  1.00  0.00     0.039 A 
HETATM    8  C   UNL     1      18.012  50.980  49.735  1.00  0.00     0.068 A 
HETATM    9  C   UNL     1      19.032  51.888  49.447  1.00  0.00     0.039 A 
HETATM   10  C   UNL     1      20.367  51.474  49.422  1.00  0.00     0.032 A 
BRANCH   8  11
HETATM   11  O   UNL     1      16.752  51.511  49.727  1.00  0.00    -0.351 OA
BRANCH  11  12
HETATM   12  C   UNL     1      16.339  52.187  48.532  1.00  0.00     0.185 C 
BRANCH  12  13
HETATM   13  C   UNL     1      15.800  51.148  47.559  1.00  0.00     0.129 C 
BRANCH  13  14
HETATM   14  C   UNL     1      15.279  51.795  46.294  1.00  0.00     0.219 C 
HETATM   15  N   UNL     1      15.577  53.133  46.172  1.00  0.00    -0.365 N 
HETATM   16  C   UNL     1      15.221  53.869  44.988  1.00  0.00     0.149 C 
HETATM   17  H   UNL     1      16.282  53.519  46.794  1.00  0.00     0.161 HD
HETATM   18  O   UNL     1      14.615  51.171  45.471  1.00  0.00    -0.274 OA
ENDBRANCH  13  14
ENDBRANCH  12  13
ENDBRANCH  11  12
ENDBRANCH   8  11
ENDBRANCH   1   5
BRANCH   2  19
HETATM   19  C   UNL     1      24.210  48.981  48.811  1.00  0.00     0.033 A 
HETATM   20  C   UNL     1      24.605  47.826  49.504  1.00  0.00     0.029 A 
HETATM   21  C   UNL     1      25.961  47.559  49.738  1.00  0.00    -0.023 A 
HETATM   22  C   UNL     1      26.917  48.470  49.271  1.00  0.00     0.012 A 
HETATM   23  C   UNL     1      26.531  49.613  48.566  1.00  0.00     0.002 A 
HETATM   24  C   UNL     1      25.180  49.866  48.328  1.00  0.00     0.017 A 
BRANCH  21  25
HETATM   25  C   UNL     1      26.380  46.363  50.453  1.00  0.00    -0.002 A 
HETATM   26  C   UNL     1      26.180  46.148  51.803  1.00  0.00     0.153 A 
HETATM   27  O   UNL     1      26.668  44.936  52.178  1.00  0.00    -0.334 OA
HETATM   28  C   UNL     1      27.181  44.358  51.064  1.00  0.00     0.142 A 
HETATM   29  C   UNL     1      27.025  45.186  49.977  1.00  0.00     0.038 A 
ENDBRANCH  21  25
ENDBRANCH   2  19
TORSDOF 7
ENDMDL
MODEL 9
REMARK VINA RESULT:      -7.7      5.046      7.331
REMARK  7 active torsions:
REMARK  status: ('A' for Active; 'I' for Inactive)
REMARK       I    between atoms: N_2  and  C_3 
REMARK    1  A    between atoms: C_3  and  C_4 
REMARK    2  A    between atoms: C_4  and  C_5 
REMARK    3  A    between atoms: C_5  and  O_6 
REMARK    4  A    between atoms: O_6  and  C_7 
REMARK    5  A    between atoms: C_10  and  N_11 
REMARK       I    between atoms: N_11  and  C_12 
REMARK    6  A    between atoms: C_12  and  C_13 
REMARK    7  A    between atoms: C_15  and  C_16 
ROOT
HETATM    1  N   UNL     1      27.831  42.363  52.456  1.00  0.00    -0.323 N 
HETATM    2  C   UNL     1      27.691  43.729  52.283  1.00  0.00     0.256 C 
HETATM    3  O   UNL     1      27.382  44.307  51.247  1.00  0.00    -0.267 OA
HETATM    4  H   UNL     1      28.196  42.045  53.343  1.00  0.00     0.169 HD
ENDROOT
BRANCH   1   5
HETATM    5  C   UNL     1      27.595  41.352  51.500  1.00  0.00     0.035 A 
HETATM    6  C   UNL     1      28.559  40.440  51.071  1.00  0.00     0.032 A 
HETATM    7  C   UNL     1      28.246  39.458  50.119  1.00  0.00     0.039 A 
HETATM    8  C   UNL     1      26.965  39.384  49.580  1.00  0.00     0.068 A 
HETATM    9  C   UNL     1      25.999  40.299  49.999  1.00  0.00     0.039 A 
HETATM   10  C   UNL     1      26.309  41.273  50.954  1.00  0.00     0.032 A 
BRANCH   8  11
HETATM   11  O   UNL     1      26.535  38.485  48.644  1.00  0.00    -0.351 OA
BRANCH  11  12
HETATM   12  C   UNL     1      27.476  37.493  48.215  1.00  0.00     0.185 C 
BRANCH  12  13
HETATM   13  C   UNL     1      27.301  37.284  46.718  1.00  0.00     0.129 C 
BRANCH  13  14
HETATM   14  C   UNL     1      27.103  38.601  45.997  1.00  0.00     0.219 C 
HETATM   15  N   UNL     1      28.078  39.539  46.243  1.00  0.00    -0.365 N 
HETATM   16  C   UNL     1      28.075  40.810  45.568  1.00  0.00     0.149 C 
HETATM   17  H   UNL     1      28.937  39.223  46.686  1.00  0.00     0.161 HD
HETATM   18  O   UNL     1      26.126  38.809  45.283  1.00  0.00    -0.274 OA
ENDBRANCH  13  14
ENDBRANCH  12  13
ENDBRANCH  11  12
ENDBRANCH   8  11
ENDBRANCH   1   5
BRANCH   2  19
HETATM   19  C   UNL     1      27.987  44.559  53.486  1.00  0.00     0.033 A 
HETATM   20  C   UNL     1      29.006  44.128  54.350  1.00  0.00     0.029 A 
HETATM   21  C   UNL     1      29.339  44.869  55.492  1.00  0.00    -0.023 A 
HETATM   22  C   UNL     1      28.633  46.050  55.758  1.00  0.00     0.012 A 
HETATM   23  C   UNL     1      27.630  46.494  54.892  1.00  0.00     0.002 A 
HETATM   24  C   UNL     1      27.311  45.755  53.752  1.00  0.00     0.017 A 
BRANCH  21  25
HETATM   25  C   UNL     1      30.395  44.432  56.391  1.00  0.00    -0.002 A 
HETATM   26  C   UNL     1      30.694  45.033  57.599  1.00  0.00     0.153 A 
HETATM   27  O   UNL     1      31.719  44.392  58.219  1.00  0.00    -0.334 OA
HETATM   28  C   UNL     1      32.084  43.364  57.413  1.00  0.00     0.142 A 
HETATM   29  C   UNL     1      31.301  43.339  56.283  1.00  0.00     0.038 A 
ENDBRANCH  21  25
ENDBRANCH   2  19
TORSDOF 7
ENDMDL
MODEL 10
REMARK VINA RESULT:      -7.6      4.920      8.086
REMARK  7 active torsions:
REMARK  status: ('A' for Active; 'I' for Inactive)
REMARK       I    between atoms: N_2  and  C_3 
REMARK    1  A    between atoms: C_3  and  C_4 
REMARK    2  A    between atoms: C_4  and  C_5 
REMARK    3  A    between atoms: C_5  and  O_6 
REMARK    4  A    between atoms: O_6  and  C_7 
REMARK    5  A    between atoms: C_10  and  N_11 
REMARK       I    between atoms: N_11  and  C_12 
REMARK    6  A    between atoms: C_12  and  C_13 
REMARK    7  A    between atoms: C_15  and  C_16 
ROOT
HETATM    1  N   UNL     1      27.833  42.673  51.915  1.00  0.00    -0.323 N 
HETATM    2  C   UNL     1      28.629  42.324  52.991  1.00  0.00     0.256 C 
HETATM    3  O   UNL     1      29.067  41.207  53.245  1.00  0.00    -0.267 OA
HETATM    4  H   UNL     1      27.463  43.613  51.899  1.00  0.00     0.169 HD
ENDROOT
BRANCH   1   5
HETATM    5  C   UNL     1      27.407  41.837  50.860  1.00  0.00     0.035 A 
HETATM    6  C   UNL     1      27.935  41.875  49.569  1.00  0.00     0.032 A 
HETATM    7  C   UNL     1      27.462  41.007  48.574  1.00  0.00     0.039 A 
HETATM    8  C   UNL     1      26.450  40.095  48.858  1.00  0.00     0.068 A 
HETATM    9  C   UNL     1      25.913  40.059  50.145  1.00  0.00     0.039 A 
HETATM   10  C   UNL     1      26.389  40.919  51.140  1.00  0.00     0.032 A 
BRANCH   8  11
HETATM   11  O   UNL     1      25.897  39.205  47.981  1.00  0.00    -0.351 OA
BRANCH  11  12
HETATM   12  C   UNL     1      26.773  38.224  47.411  1.00  0.00     0.185 C 
BRANCH  12  13
HETATM   13  C   UNL     1      27.060  37.169  48.469  1.00  0.00     0.129 C 
BRANCH  13  14
HETATM   14  C   UNL     1      28.402  37.401  49.131  1.00  0.00     0.219 C 
HETATM   15  N   UNL     1      28.496  36.916  50.415  1.00  0.00    -0.365 N 
HETATM   16  C   UNL     1      29.732  36.986  51.148  1.00  0.00     0.149 C 
HETATM   17  H   UNL     1      27.777  36.271  50.731  1.00  0.00     0.161 HD
HETATM   18  O   UNL     1      29.308  38.006  48.567  1.00  0.00    -0.274 OA
ENDBRANCH  13  14
ENDBRANCH  12  13
ENDBRANCH  11  12
ENDBRANCH   8  11
ENDBRANCH   1   5
BRANCH   2  19
HETATM   19  C   UNL     1      28.941  43.431  53.941  1.00  0.00     0.033 A 
HETATM   20  C   UNL     1      28.059  44.521  53.994  1.00  0.00     0.029 A 
HETATM   21  C   UNL     1      28.290  45.588  54.873  1.00  0.00    -0.023 A 
HETATM   22  C   UNL     1      29.422  45.548  55.697  1.00  0.00     0.012 A 
HETATM   23  C   UNL     1      30.295  44.457  55.661  1.00  0.00     0.002 A 
HETATM   24  C   UNL     1      30.053  43.394  54.790  1.00  0.00     0.017 A 
BRANCH  21  25
HETATM   25  C   UNL     1      27.380  46.720  54.938  1.00  0.00    -0.002 A 
HETATM   26  C   UNL     1      26.342  46.942  54.053  1.00  0.00     0.153 A 
HETATM   27  O   UNL     1      25.661  48.072  54.377  1.00  0.00    -0.334 OA
HETATM   28  C   UNL     1      26.255  48.584  55.484  1.00  0.00     0.142 A 
HETATM   29  C   UNL     1      27.310  47.792  55.873  1.00  0.00     0.038 A 
ENDBRANCH  21  25
ENDBRANCH   2  19
TORSDOF 7
ENDMDL
