MODEL 1
REMARK VINA RESULT:      -8.9      0.000      0.000
REMARK  6 active torsions:
REMARK  status: ('A' for Active; 'I' for Inactive)
REMARK    1  A    between atoms: C_2  and  C_3 
REMARK    2  A    between atoms: C_7  and  O_8 
REMARK    3  A    between atoms: O_8  and  C_9 
REMARK    4  A    between atoms: C_9  and  C_10 
REMARK       I    between atoms: C_10  and  N_11 
REMARK    5  A    between atoms: N_11  and  N_12 
REMARK    6  A    between atoms: C_13  and  C_14 
ROOT
HETATM    1  C   UNL     1      26.541  43.199  51.308  1.00  0.00     0.261 C 
HETATM    2  N   UNL     1      25.533  43.592  50.462  1.00  0.00    -0.246 N 
HETATM    3  O   UNL     1      26.509  42.078  51.824  1.00  0.00    -0.269 OA
HETATM    4  H   UNL     1      24.815  42.902  50.265  1.00  0.00     0.192 HD
ENDROOT
BRANCH   2   5
HETATM    5  N   UNL     1      25.507  44.817  49.870  1.00  0.00    -0.184 NA
HETATM    6  C   UNL     1      24.562  45.605  50.271  1.00  0.00     0.152 C 
BRANCH   6   7
HETATM    7  C   UNL     1      24.426  46.919  49.681  1.00  0.00     0.011 A 
HETATM    8  C   UNL     1      25.474  47.850  49.384  1.00  0.00     0.004 A 
HETATM    9  C   UNL     1      24.879  48.989  48.839  1.00  0.00     0.043 A 
HETATM   10  C   UNL     1      26.879  47.832  49.525  1.00  0.00     0.014 A 
HETATM   11  C   UNL     1      25.613  50.108  48.431  1.00  0.00     0.030 A 
HETATM   12  N   UNL     1      23.521  48.761  48.807  1.00  0.00    -0.364 N 
HETATM   13  C   UNL     1      27.002  50.063  48.580  1.00  0.00     0.002 A 
HETATM   14  C   UNL     1      27.628  48.943  49.119  1.00  0.00     0.001 A 
HETATM   15  H   UNL     1      22.837  49.422  48.467  1.00  0.00     0.165 HD
HETATM   16  C   UNL     1      23.239  47.519  49.306  1.00  0.00     0.102 A 
ENDBRANCH   6   7
ENDBRANCH   2   5
BRANCH   1  17
HETATM   17  C   UNL     1      27.649  44.203  51.607  1.00  0.00     0.280 C 
BRANCH  17  18
HETATM   18  O   UNL     1      27.500  44.722  52.922  1.00  0.00    -0.341 OA
BRANCH  18  19
HETATM   19  C   UNL     1      28.474  44.403  53.832  1.00  0.00     0.086 A 
HETATM   20  C   UNL     1      28.739  45.338  54.842  1.00  0.00     0.044 A 
HETATM   21  C   UNL     1      29.742  45.105  55.790  1.00  0.00     0.029 A 
HETATM   22 BR   UNL     1      27.747  46.954  54.983  1.00  0.00    -0.048 Br
HETATM   23  C   UNL     1      30.500  43.929  55.745  1.00  0.00    -0.057 A 
HETATM   24  C   UNL     1      30.241  42.999  54.734  1.00  0.00     0.010 A 
HETATM   25  C   UNL     1      29.237  43.232  53.786  1.00  0.00     0.039 A 
BRANCH  23  26
HETATM   26  C   UNL     1      31.604  43.688  56.742  1.00  0.00     0.034 C 
HETATM   27  C   UNL     1      31.358  44.427  58.049  1.00  0.00     0.010 C 
ENDBRANCH  23  26
ENDBRANCH  18  19
ENDBRANCH  17  18
ENDBRANCH   1  17
TORSDOF 6
ENDMDL
MODEL 2
REMARK VINA RESULT:      -8.9      3.316      8.985
REMARK  6 active torsions:
REMARK  status: ('A' for Active; 'I' for Inactive)
REMARK    1  A    between atoms: C_2  and  C_3 
REMARK    2  A    between atoms: C_7  and  O_8 
REMARK    3  A    between atoms: O_8  and  C_9 
REMARK    4  A    between atoms: C_9  and  C_10 
REMARK       I    between atoms: C_10  and  N_11 
REMARK    5  A    between atoms: N_11  and  N_12 
REMARK    6  A    between atoms: C_13  and  C_14 
ROOT
HETATM    1  C   UNL     1      24.278  45.553  50.485  1.00  0.00     0.261 C 
HETATM    2  N   UNL     1      24.896  44.898  51.523  1.00  0.00    -0.246 N 
HETATM    3  O   UNL     1      23.564  44.924  49.700  1.00  0.00    -0.269 OA
HETATM    4  H   UNL     1      24.690  43.909  51.619  1.00  0.00     0.192 HD
ENDROOT
BRANCH   2   5
HETATM    5  N   UNL     1      25.703  45.534  52.416  1.00  0.00    -0.184 NA
HETATM    6  C   UNL     1      26.525  44.769  53.060  1.00  0.00     0.152 C 
BRANCH   6   7
HETATM    7  C   UNL     1      27.405  45.342  54.055  1.00  0.00     0.011 A 
HETATM    8  C   UNL     1      28.607  44.769  54.584  1.00  0.00     0.004 A 
HETATM    9  C   UNL     1      29.116  45.664  55.526  1.00  0.00     0.043 A 
HETATM   10  C   UNL     1      29.315  43.570  54.350  1.00  0.00     0.014 A 
HETATM   11  C   UNL     1      30.293  45.423  56.246  1.00  0.00     0.030 A 
HETATM   12  N   UNL     1      28.257  46.739  55.571  1.00  0.00    -0.364 N 
HETATM   13  C   UNL     1      30.974  44.229  55.992  1.00  0.00     0.002 A 
HETATM   14  C   UNL     1      30.495  43.315  55.058  1.00  0.00     0.001 A 
HETATM   15  H   UNL     1      28.373  47.541  56.174  1.00  0.00     0.165 HD
HETATM   16  C   UNL     1      27.229  46.558  54.688  1.00  0.00     0.102 A 
ENDBRANCH   6   7
ENDBRANCH   2   5
BRANCH   1  17
HETATM   17  C   UNL     1      24.548  47.045  50.327  1.00  0.00     0.280 C 
BRANCH  17  18
HETATM   18  O   UNL     1      24.249  47.460  49.001  1.00  0.00    -0.341 OA
BRANCH  18  19
HETATM   19  C   UNL     1      23.287  48.426  48.851  1.00  0.00     0.086 A 
HETATM   20  C   UNL     1      23.715  49.702  48.460  1.00  0.00     0.044 A 
HETATM   21  C   UNL     1      22.801  50.752  48.319  1.00  0.00     0.029 A 
HETATM   22 BR   UNL     1      25.544  50.065  48.088  1.00  0.00    -0.048 Br
HETATM   23  C   UNL     1      21.439  50.546  48.568  1.00  0.00    -0.057 A 
HETATM   24  C   UNL     1      21.013  49.274  48.966  1.00  0.00     0.010 A 
HETATM   25  C   UNL     1      21.927  48.223  49.106  1.00  0.00     0.039 A 
BRANCH  23  26
HETATM   26  C   UNL     1      20.455  51.681  48.452  1.00  0.00     0.034 C 
HETATM   27  C   UNL     1      19.441  51.669  49.586  1.00  0.00     0.010 C 
ENDBRANCH  23  26
ENDBRANCH  18  19
ENDBRANCH  17  18
ENDBRANCH   1  17
TORSDOF 6
ENDMDL
MODEL 3
REMARK VINA RESULT:      -8.8      3.305      6.300
REMARK  6 active torsions:
REMARK  status: ('A' for Active; 'I' for Inactive)
REMARK    1  A    between atoms: C_2  and  C_3 
REMARK    2  A    between atoms: C_7  and  O_8 
REMARK    3  A    between atoms: O_8  and  C_9 
REMARK    4  A    between atoms: C_9  and  C_10 
REMARK       I    between atoms: C_10  and  N_11 
REMARK    5  A    between atoms: N_11  and  N_12 
REMARK    6  A    between atoms: C_13  and  C_14 
ROOT
HETATM    1  C   UNL     1      25.248  44.502  51.713  1.00  0.00     0.261 C 
HETATM    2  N   UNL     1      25.363  43.492  50.788  1.00  0.00    -0.246 N 
HETATM    3  O   UNL     1      24.624  45.528  51.428  1.00  0.00    -0.269 OA
HETATM    4  H   UNL     1      24.875  43.629  49.908  1.00  0.00     0.192 HD
ENDROOT
BRANCH   2   5
HETATM    5  N   UNL     1      26.046  42.342  51.038  1.00  0.00    -0.184 NA
HETATM    6  C   UNL     1      27.129  42.181  50.349  1.00  0.00     0.152 C 
BRANCH   6   7
HETATM    7  C   UNL     1      27.913  40.977  50.516  1.00  0.00     0.011 A 
HETATM    8  C   UNL     1      28.215  39.992  49.520  1.00  0.00     0.004 A 
HETATM    9  C   UNL     1      28.985  39.002  50.132  1.00  0.00     0.043 A 
HETATM   10  C   UNL     1      27.909  39.849  48.149  1.00  0.00     0.014 A 
HETATM   11  C   UNL     1      29.460  37.877  49.447  1.00  0.00     0.030 A 
HETATM   12  N   UNL     1      29.143  39.368  51.450  1.00  0.00    -0.364 N 
HETATM   13  C   UNL     1      29.143  37.762  48.091  1.00  0.00     0.002 A 
HETATM   14  C   UNL     1      28.379  38.732  47.449  1.00  0.00     0.001 A 
HETATM   15  H   UNL     1      29.653  38.830  52.137  1.00  0.00     0.165 HD
HETATM   16  C   UNL     1      28.508  40.554  51.690  1.00  0.00     0.102 A 
ENDBRANCH   6   7
ENDBRANCH   2   5
BRANCH   1  17
HETATM   17  C   UNL     1      25.949  44.319  53.054  1.00  0.00     0.280 C 
BRANCH  17  18
HETATM   18  O   UNL     1      27.138  45.096  53.098  1.00  0.00    -0.341 OA
BRANCH  18  19
HETATM   19  C   UNL     1      28.155  44.635  53.893  1.00  0.00     0.086 A 
HETATM   20  C   UNL     1      28.602  45.482  54.917  1.00  0.00     0.044 A 
HETATM   21  C   UNL     1      29.660  45.103  55.752  1.00  0.00     0.029 A 
HETATM   22 BR   UNL     1      27.789  47.173  55.232  1.00  0.00    -0.048 Br
HETATM   23  C   UNL     1      30.292  43.867  55.577  1.00  0.00    -0.057 A 
HETATM   24  C   UNL     1      29.852  43.024  54.550  1.00  0.00     0.010 A 
HETATM   25  C   UNL     1      28.793  43.404  53.716  1.00  0.00     0.039 A 
BRANCH  23  26
HETATM   26  C   UNL     1      31.454  43.467  56.449  1.00  0.00     0.034 C 
HETATM   27  C   UNL     1      31.392  44.134  57.815  1.00  0.00     0.010 C 
ENDBRANCH  23  26
ENDBRANCH  18  19
ENDBRANCH  17  18
ENDBRANCH   1  17
TORSDOF 6
ENDMDL
MODEL 4
REMARK VINA RESULT:      -8.7      1.228      2.139
REMARK  6 active torsions:
REMARK  status: ('A' for Active; 'I' for Inactive)
REMARK    1  A    between atoms: C_2  and  C_3 
REMARK    2  A    between atoms: C_7  and  O_8 
REMARK    3  A    between atoms: O_8  and  C_9 
REMARK    4  A    between atoms: C_9  and  C_10 
REMARK       I    between atoms: C_10  and  N_11 
REMARK    5  A    between atoms: N_11  and  N_12 
REMARK    6  A    between atoms: C_13  and  C_14 
ROOT
HETATM    1  C   UNL     1      26.298  43.643  50.978  1.00  0.00     0.261 C 
HETATM    2  N   UNL     1      25.463  44.221  50.052  1.00  0.00    -0.246 N 
HETATM    3  O   UNL     1      26.095  42.484  51.350  1.00  0.00    -0.269 OA
HETATM    4  H   UNL     1      24.727  43.630  49.679  1.00  0.00     0.192 HD
ENDROOT
BRANCH   2   5
HETATM    5  N   UNL     1      25.629  45.496  49.610  1.00  0.00    -0.184 NA
HETATM    6  C   UNL     1      24.661  46.309  49.890  1.00  0.00     0.152 C 
BRANCH   6   7
HETATM    7  C   UNL     1      24.724  47.682  49.437  1.00  0.00     0.011 A 
HETATM    8  C   UNL     1      23.631  48.512  49.028  1.00  0.00     0.004 A 
HETATM    9  C   UNL     1      24.162  49.750  48.661  1.00  0.00     0.043 A 
HETATM   10  C   UNL     1      22.234  48.331  48.937  1.00  0.00     0.014 A 
HETATM   11  C   UNL     1      23.370  50.812  48.207  1.00  0.00     0.030 A 
HETATM   12  N   UNL     1      25.525  49.675  48.837  1.00  0.00    -0.364 N 
HETATM   13  C   UNL     1      21.990  50.604  48.129  1.00  0.00     0.002 A 
HETATM   14  C   UNL     1      21.428  49.383  48.488  1.00  0.00     0.001 A 
HETATM   15  H   UNL     1      26.171  50.428  48.642  1.00  0.00     0.165 HD
HETATM   16  C   UNL     1      25.873  48.439  49.307  1.00  0.00     0.102 A 
ENDBRANCH   6   7
ENDBRANCH   2   5
BRANCH   1  17
HETATM   17  C   UNL     1      27.430  44.494  51.543  1.00  0.00     0.280 C 
BRANCH  17  18
HETATM   18  O   UNL     1      27.226  44.725  52.930  1.00  0.00    -0.341 OA
BRANCH  18  19
HETATM   19  C   UNL     1      28.239  44.360  53.778  1.00  0.00     0.086 A 
HETATM   20  C   UNL     1      28.620  45.286  54.760  1.00  0.00     0.044 A 
HETATM   21  C   UNL     1      29.669  45.005  55.642  1.00  0.00     0.029 A 
HETATM   22 BR   UNL     1      27.726  46.953  54.949  1.00  0.00    -0.048 Br
HETATM   23  C   UNL     1      30.359  43.790  55.560  1.00  0.00    -0.057 A 
HETATM   24  C   UNL     1      29.985  42.868  54.576  1.00  0.00     0.010 A 
HETATM   25  C   UNL     1      28.935  43.149  53.693  1.00  0.00     0.039 A 
BRANCH  23  26
HETATM   26  C   UNL     1      31.512  43.497  56.484  1.00  0.00     0.034 C 
HETATM   27  C   UNL     1      31.352  44.192  57.827  1.00  0.00     0.010 C 
ENDBRANCH  23  26
ENDBRANCH  18  19
ENDBRANCH  17  18
ENDBRANCH   1  17
TORSDOF 6
ENDMDL
MODEL 5
REMARK VINA RESULT:      -8.7     12.124     14.006
REMARK  6 active torsions:
REMARK  status: ('A' for Active; 'I' for Inactive)
REMARK    1  A    between atoms: C_2  and  C_3 
REMARK    2  A    between atoms: C_7  and  O_8 
REMARK    3  A    between atoms: O_8  and  C_9 
REMARK    4  A    between atoms: C_9  and  C_10 
REMARK       I    between atoms: C_10  and  N_11 
REMARK    5  A    between atoms: N_11  and  N_12 
REMARK    6  A    between atoms: C_13  and  C_14 
ROOT
HETATM    1  C   UNL     1      35.965  52.311  40.650  1.00  0.00     0.261 C 
HETATM    2  N   UNL     1      35.069  52.948  39.825  1.00  0.00    -0.246 N 
HETATM    3  O   UNL     1      36.940  52.926  41.091  1.00  0.00    -0.269 OA
HETATM    4  H   UNL     1      35.238  53.934  39.652  1.00  0.00     0.192 HD
ENDROOT
BRANCH   2   5
HETATM    5  N   UNL     1      33.981  52.322  39.301  1.00  0.00    -0.184 NA
HETATM    6  C   UNL     1      32.840  52.700  39.783  1.00  0.00     0.152 C 
BRANCH   6   7
HETATM    7  C   UNL     1      31.622  52.074  39.317  1.00  0.00     0.011 A 
HETATM    8  C   UNL     1      30.344  52.071  39.964  1.00  0.00     0.004 A 
HETATM    9  C   UNL     1      29.471  51.336  39.161  1.00  0.00     0.043 A 
HETATM   10  C   UNL     1      29.843  52.629  41.161  1.00  0.00     0.014 A 
HETATM   11  C   UNL     1      28.127  51.127  39.493  1.00  0.00     0.030 A 
HETATM   12  N   UNL     1      30.190  50.906  38.069  1.00  0.00    -0.364 N 
HETATM   13  C   UNL     1      27.658  51.692  40.683  1.00  0.00     0.002 A 
HETATM   14  C   UNL     1      28.501  52.433  41.506  1.00  0.00     0.001 A 
HETATM   15  H   UNL     1      29.812  50.341  37.321  1.00  0.00     0.165 HD
HETATM   16  C   UNL     1      31.481  51.347  38.150  1.00  0.00     0.102 A 
ENDBRANCH   6   7
ENDBRANCH   2   5
BRANCH   1  17
HETATM   17  C   UNL     1      35.727  50.835  40.951  1.00  0.00     0.280 C 
BRANCH  17  18
HETATM   18  O   UNL     1      34.992  50.692  42.159  1.00  0.00    -0.341 OA
BRANCH  18  19
HETATM   19  C   UNL     1      33.725  50.177  42.060  1.00  0.00     0.086 A 
HETATM   20  C   UNL     1      32.778  50.620  42.995  1.00  0.00     0.044 A 
HETATM   21  C   UNL     1      31.472  50.117  42.985  1.00  0.00     0.029 A 
HETATM   22 BR   UNL     1      33.214  51.927  44.305  1.00  0.00    -0.048 Br
HETATM   23  C   UNL     1      31.088  49.161  42.039  1.00  0.00    -0.057 A 
HETATM   24  C   UNL     1      32.033  48.713  41.110  1.00  0.00     0.010 A 
HETATM   25  C   UNL     1      33.340  49.217  41.120  1.00  0.00     0.039 A 
BRANCH  23  26
HETATM   26  C   UNL     1      29.693  48.590  42.046  1.00  0.00     0.034 C 
HETATM   27  C   UNL     1      29.375  47.858  40.751  1.00  0.00     0.010 C 
ENDBRANCH  23  26
ENDBRANCH  18  19
ENDBRANCH  17  18
ENDBRANCH   1  17
TORSDOF 6
ENDMDL
MODEL 6
REMARK VINA RESULT:      -8.6      3.385      7.815
REMARK  6 active torsions:
REMARK  status: ('A' for Active; 'I' for Inactive)
REMARK    1  A    between atoms: C_2  and  C_3 
REMARK    2  A    between atoms: C_7  and  O_8 
REMARK    3  A    between atoms: O_8  and  C_9 
REMARK    4  A    between atoms: C_9  and  C_10 
REMARK       I    between atoms: C_10  and  N_11 
REMARK    5  A    between atoms: N_11  and  N_12 
REMARK    6  A    between atoms: C_13  and  C_14 
ROOT
HETATM    1  C   UNL     1      28.329  40.591  51.273  1.00  0.00     0.261 C 
HETATM    2  N   UNL     1      29.182  40.881  52.310  1.00  0.00    -0.246 N 
HETATM    3  O   UNL     1      28.647  39.743  50.434  1.00  0.00    -0.269 OA
HETATM    4  H   UNL     1      30.036  40.334  52.358  1.00  0.00     0.192 HD
ENDROOT
BRANCH   2   5
HETATM    5  N   UNL     1      28.893  41.810  53.261  1.00  0.00    -0.184 NA
HETATM    6  C   UNL     1      29.688  42.831  53.296  1.00  0.00     0.152 C 
BRANCH   6   7
HETATM    7  C   UNL     1      29.487  43.862  54.291  1.00  0.00     0.011 A 
HETATM    8  C   UNL     1      30.171  44.007  55.541  1.00  0.00     0.004 A 
HETATM    9  C   UNL     1      29.643  45.132  56.177  1.00  0.00     0.043 A 
HETATM   10  C   UNL     1      31.195  43.288  56.196  1.00  0.00     0.014 A 
HETATM   11  C   UNL     1      30.083  45.573  57.431  1.00  0.00     0.030 A 
HETATM   12  N   UNL     1      28.674  45.650  55.348  1.00  0.00    -0.364 N 
HETATM   13  C   UNL     1      31.099  44.843  58.055  1.00  0.00     0.002 A 
HETATM   14  C   UNL     1      31.649  43.717  57.448  1.00  0.00     0.001 A 
HETATM   15  H   UNL     1      28.116  46.466  55.557  1.00  0.00     0.165 HD
HETATM   16  C   UNL     1      28.576  44.898  54.210  1.00  0.00     0.102 A 
ENDBRANCH   6   7
ENDBRANCH   2   5
BRANCH   1  17
HETATM   17  C   UNL     1      27.025  41.377  51.185  1.00  0.00     0.280 C 
BRANCH  17  18
HETATM   18  O   UNL     1      27.021  42.193  50.021  1.00  0.00    -0.341 OA
BRANCH  18  19
HETATM   19  C   UNL     1      26.477  43.445  50.139  1.00  0.00     0.086 A 
HETATM   20  C   UNL     1      25.264  43.683  49.476  1.00  0.00     0.044 A 
HETATM   21  C   UNL     1      24.661  44.945  49.517  1.00  0.00     0.029 A 
HETATM   22 BR   UNL     1      24.378  42.308  48.507  1.00  0.00    -0.048 Br
HETATM   23  C   UNL     1      25.259  45.995  50.223  1.00  0.00    -0.057 A 
HETATM   24  C   UNL     1      26.473  45.760  50.878  1.00  0.00     0.010 A 
HETATM   25  C   UNL     1      27.076  44.498  50.838  1.00  0.00     0.039 A 
BRANCH  23  26
HETATM   26  C   UNL     1      24.632  47.365  50.241  1.00  0.00     0.034 C 
HETATM   27  C   UNL     1      23.514  47.489  49.217  1.00  0.00     0.010 C 
ENDBRANCH  23  26
ENDBRANCH  18  19
ENDBRANCH  17  18
ENDBRANCH   1  17
TORSDOF 6
ENDMDL
MODEL 7
REMARK VINA RESULT:      -8.5      2.581      8.456
REMARK  6 active torsions:
REMARK  status: ('A' for Active; 'I' for Inactive)
REMARK    1  A    between atoms: C_2  and  C_3 
REMARK    2  A    between atoms: C_7  and  O_8 
REMARK    3  A    between atoms: O_8  and  C_9 
REMARK    4  A    between atoms: C_9  and  C_10 
REMARK       I    between atoms: C_10  and  N_11 
REMARK    5  A    between atoms: N_11  and  N_12 
REMARK    6  A    between atoms: C_13  and  C_14 
ROOT
HETATM    1  C   UNL     1      24.555  44.615  51.461  1.00  0.00     0.261 C 
HETATM    2  N   UNL     1      25.357  43.671  52.056  1.00  0.00    -0.246 N 
HETATM    3  O   UNL     1      23.460  44.286  50.994  1.00  0.00    -0.269 OA
HETATM    4  H   UNL     1      24.975  42.732  52.123  1.00  0.00     0.192 HD
ENDROOT
BRANCH   2   5
HETATM    5  N   UNL     1      26.576  43.969  52.580  1.00  0.00    -0.184 NA
HETATM    6  C   UNL     1      27.117  43.031  53.289  1.00  0.00     0.152 C 
BRANCH   6   7
HETATM    7  C   UNL     1      28.400  43.259  53.919  1.00  0.00     0.011 A 
HETATM    8  C   UNL     1      28.727  44.264  54.886  1.00  0.00     0.004 A 
HETATM    9  C   UNL     1      30.079  44.117  55.201  1.00  0.00     0.043 A 
HETATM   10  C   UNL     1      27.999  45.289  55.528  1.00  0.00     0.014 A 
HETATM   11  C   UNL     1      30.739  44.940  56.121  1.00  0.00     0.030 A 
HETATM   12  N   UNL     1      30.557  43.064  54.453  1.00  0.00    -0.364 N 
HETATM   13  C   UNL     1      29.993  45.945  56.743  1.00  0.00     0.002 A 
HETATM   14  C   UNL     1      28.643  46.119  56.453  1.00  0.00     0.001 A 
HETATM   15  H   UNL     1      31.512  42.735  54.472  1.00  0.00     0.165 HD
HETATM   16  C   UNL     1      29.556  42.538  53.684  1.00  0.00     0.102 A 
ENDBRANCH   6   7
ENDBRANCH   2   5
BRANCH   1  17
HETATM   17  C   UNL     1      25.087  46.040  51.366  1.00  0.00     0.280 C 
BRANCH  17  18
HETATM   18  O   UNL     1      25.307  46.393  50.007  1.00  0.00    -0.341 OA
BRANCH  18  19
HETATM   19  C   UNL     1      24.664  47.510  49.540  1.00  0.00     0.086 A 
HETATM   20  C   UNL     1      25.460  48.607  49.183  1.00  0.00     0.044 A 
HETATM   21  C   UNL     1      24.880  49.797  48.731  1.00  0.00     0.029 A 
HETATM   22 BR   UNL     1      27.358  48.529  49.280  1.00  0.00    -0.048 Br
HETATM   23  C   UNL     1      23.489  49.913  48.628  1.00  0.00    -0.057 A 
HETATM   24  C   UNL     1      22.693  48.822  48.991  1.00  0.00     0.010 A 
HETATM   25  C   UNL     1      23.274  47.630  49.442  1.00  0.00     0.039 A 
BRANCH  23  26
HETATM   26  C   UNL     1      22.856  51.204  48.175  1.00  0.00     0.034 C 
HETATM   27  C   UNL     1      21.352  51.208  48.402  1.00  0.00     0.010 C 
ENDBRANCH  23  26
ENDBRANCH  18  19
ENDBRANCH  17  18
ENDBRANCH   1  17
TORSDOF 6
ENDMDL
MODEL 8
REMARK VINA RESULT:      -8.4      3.372      5.069
REMARK  6 active torsions:
REMARK  status: ('A' for Active; 'I' for Inactive)
REMARK    1  A    between atoms: C_2  and  C_3 
REMARK    2  A    between atoms: C_7  and  O_8 
REMARK    3  A    between atoms: O_8  and  C_9 
REMARK    4  A    between atoms: C_9  and  C_10 
REMARK       I    between atoms: C_10  and  N_11 
REMARK    5  A    between atoms: N_11  and  N_12 
REMARK    6  A    between atoms: C_13  and  C_14 
ROOT
HETATM    1  C   UNL     1      25.561  47.804  49.978  1.00  0.00     0.261 C 
HETATM    2  N   UNL     1      24.649  48.602  49.329  1.00  0.00    -0.246 N 
HETATM    3  O   UNL     1      26.768  47.962  49.778  1.00  0.00    -0.269 OA
HETATM    4  H   UNL     1      25.030  49.331  48.735  1.00  0.00     0.192 HD
ENDROOT
BRANCH   2   5
HETATM    5  N   UNL     1      23.306  48.470  49.501  1.00  0.00    -0.184 NA
HETATM    6  C   UNL     1      22.574  49.152  48.679  1.00  0.00     0.152 C 
BRANCH   6   7
HETATM    7  C   UNL     1      21.133  49.108  48.797  1.00  0.00     0.011 A 
HETATM    8  C   UNL     1      20.221  50.210  48.719  1.00  0.00     0.004 A 
HETATM    9  C   UNL     1      18.934  49.700  48.901  1.00  0.00     0.043 A 
HETATM   10  C   UNL     1      20.366  51.598  48.507  1.00  0.00     0.014 A 
HETATM   11  C   UNL     1      17.789  50.505  48.885  1.00  0.00     0.030 A 
HETATM   12  N   UNL     1      19.058  48.342  49.085  1.00  0.00    -0.364 N 
HETATM   13  C   UNL     1      17.962  51.876  48.672  1.00  0.00     0.002 A 
HETATM   14  C   UNL     1      19.231  52.417  48.485  1.00  0.00     0.001 A 
HETATM   15  H   UNL     1      18.284  47.712  49.249  1.00  0.00     0.165 HD
HETATM   16  C   UNL     1      20.373  47.974  49.020  1.00  0.00     0.102 A 
ENDBRANCH   6   7
ENDBRANCH   2   5
BRANCH   1  17
HETATM   17  C   UNL     1      25.022  46.713  50.897  1.00  0.00     0.280 C 
BRANCH  17  18
HETATM   18  O   UNL     1      25.504  46.903  52.221  1.00  0.00    -0.341 OA
BRANCH  18  19
HETATM   19  C   UNL     1      26.393  45.976  52.699  1.00  0.00     0.086 A 
HETATM   20  C   UNL     1      26.977  46.232  53.948  1.00  0.00     0.044 A 
HETATM   21  C   UNL     1      27.921  45.353  54.492  1.00  0.00     0.029 A 
HETATM   22 BR   UNL     1      26.507  47.768  54.966  1.00  0.00    -0.048 Br
HETATM   23  C   UNL     1      28.300  44.200  53.795  1.00  0.00    -0.057 A 
HETATM   24  C   UNL     1      27.724  43.948  52.545  1.00  0.00     0.010 A 
HETATM   25  C   UNL     1      26.779  44.826  52.002  1.00  0.00     0.039 A 
BRANCH  23  26
HETATM   26  C   UNL     1      29.342  43.269  54.359  1.00  0.00     0.034 C 
HETATM   27  C   UNL     1      30.284  42.754  53.282  1.00  0.00     0.010 C 
ENDBRANCH  23  26
ENDBRANCH  18  19
ENDBRANCH  17  18
ENDBRANCH   1  17
TORSDOF 6
ENDMDL
MODEL 9
REMARK VINA RESULT:      -8.2      3.158      6.714
REMARK  6 active torsions:
REMARK  status: ('A' for Active; 'I' for Inactive)
REMARK    1  A    between atoms: C_2  and  C_3 
REMARK    2  A    between atoms: C_7  and  O_8 
REMARK    3  A    between atoms: O_8  and  C_9 
REMARK    4  A    between atoms: C_9  and  C_10 
REMARK       I    between atoms: C_10  and  N_11 
REMARK    5  A    between atoms: N_11  and  N_12 
REMARK    6  A    between atoms: C_13  and  C_14 
ROOT
HETATM    1  C   UNL     1      28.248  40.845  50.937  1.00  0.00     0.261 C 
HETATM    2  N   UNL     1      28.800  41.100  52.170  1.00  0.00    -0.246 N 
HETATM    3  O   UNL     1      28.096  39.680  50.560  1.00  0.00    -0.269 OA
HETATM    4  H   UNL     1      29.019  40.291  52.742  1.00  0.00     0.192 HD
ENDROOT
BRANCH   2   5
HETATM    5  N   UNL     1      29.001  42.362  52.636  1.00  0.00    -0.184 NA
HETATM    6  C   UNL     1      28.471  42.616  53.790  1.00  0.00     0.152 C 
BRANCH   6   7
HETATM    7  C   UNL     1      28.599  43.938  54.362  1.00  0.00     0.011 A 
HETATM    8  C   UNL     1      27.696  45.040  54.212  1.00  0.00     0.004 A 
HETATM    9  C   UNL     1      28.228  46.116  54.926  1.00  0.00     0.043 A 
HETATM   10  C   UNL     1      26.470  45.227  53.536  1.00  0.00     0.014 A 
HETATM   11  C   UNL     1      27.601  47.365  54.997  1.00  0.00     0.030 A 
HETATM   12  N   UNL     1      29.410  45.686  55.486  1.00  0.00    -0.364 N 
HETATM   13  C   UNL     1      26.388  47.521  54.320  1.00  0.00     0.002 A 
HETATM   14  C   UNL     1      25.828  46.469  53.600  1.00  0.00     0.001 A 
HETATM   15  H   UNL     1      30.017  46.260  56.054  1.00  0.00     0.165 HD
HETATM   16  C   UNL     1      29.640  44.379  55.158  1.00  0.00     0.102 A 
ENDBRANCH   6   7
ENDBRANCH   2   5
BRANCH   1  17
HETATM   17  C   UNL     1      27.885  42.040  50.061  1.00  0.00     0.280 C 
BRANCH  17  18
HETATM   18  O   UNL     1      26.536  42.424  50.289  1.00  0.00    -0.341 OA
BRANCH  18  19
HETATM   19  C   UNL     1      26.237  43.756  50.160  1.00  0.00     0.086 A 
HETATM   20  C   UNL     1      24.882  44.103  50.075  1.00  0.00     0.044 A 
HETATM   21  C   UNL     1      24.493  45.437  49.906  1.00  0.00     0.029 A 
HETATM   22 BR   UNL     1      23.511  42.790  50.198  1.00  0.00    -0.048 Br
HETATM   23  C   UNL     1      25.454  46.450  49.819  1.00  0.00    -0.057 A 
HETATM   24  C   UNL     1      26.807  46.104  49.897  1.00  0.00     0.010 A 
HETATM   25  C   UNL     1      27.196  44.769  50.066  1.00  0.00     0.039 A 
BRANCH  23  26
HETATM   26  C   UNL     1      25.043  47.884  49.603  1.00  0.00     0.034 C 
HETATM   27  C   UNL     1      26.235  48.772  49.282  1.00  0.00     0.010 C 
ENDBRANCH  23  26
ENDBRANCH  18  19
ENDBRANCH  17  18
ENDBRANCH   1  17
TORSDOF 6
ENDMDL
MODEL 10
REMARK VINA RESULT:      -8.2      3.383      6.265
REMARK  6 active torsions:
REMARK  status: ('A' for Active; 'I' for Inactive)
REMARK    1  A    between atoms: C_2  and  C_3 
REMARK    2  A    between atoms: C_7  and  O_8 
REMARK    3  A    between atoms: O_8  and  C_9 
REMARK    4  A    between atoms: C_9  and  C_10 
REMARK       I    between atoms: C_10  and  N_11 
REMARK    5  A    between atoms: N_11  and  N_12 
REMARK    6  A    between atoms: C_13  and  C_14 
ROOT
HETATM    1  C   UNL     1      26.300  44.590  50.490  1.00  0.00     0.261 C 
HETATM    2  N   UNL     1      26.101  43.967  49.282  1.00  0.00    -0.246 N 
HETATM    3  O   UNL     1      25.516  45.466  50.867  1.00  0.00    -0.269 OA
HETATM    4  H   UNL     1      25.268  44.236  48.768  1.00  0.00     0.192 HD
ENDROOT
BRANCH   2   5
HETATM    5  N   UNL     1      26.934  43.002  48.808  1.00  0.00    -0.184 NA
HETATM    6  C   UNL     1      26.498  41.789  48.925  1.00  0.00     0.152 C 
BRANCH   6   7
HETATM    7  C   UNL     1      27.322  40.685  48.482  1.00  0.00     0.011 A 
HETATM    8  C   UNL     1      28.177  39.863  49.284  1.00  0.00     0.004 A 
HETATM    9  C   UNL     1      28.785  38.937  48.433  1.00  0.00     0.043 A 
HETATM   10  C   UNL     1      28.493  39.814  50.660  1.00  0.00     0.014 A 
HETATM   11  C   UNL     1      29.691  37.970  48.885  1.00  0.00     0.030 A 
HETATM   12  N   UNL     1      28.319  39.188  47.163  1.00  0.00    -0.364 N 
HETATM   13  C   UNL     1      29.983  37.944  50.252  1.00  0.00     0.002 A 
HETATM   14  C   UNL     1      29.394  38.851  51.128  1.00  0.00     0.001 A 
HETATM   15  H   UNL     1      28.597  38.674  46.338  1.00  0.00     0.165 HD
HETATM   16  C   UNL     1      27.437  40.232  47.181  1.00  0.00     0.102 A 
ENDBRANCH   6   7
ENDBRANCH   2   5
BRANCH   1  17
HETATM   17  C   UNL     1      27.529  44.192  51.300  1.00  0.00     0.280 C 
BRANCH  17  18
HETATM   18  O   UNL     1      27.157  43.879  52.636  1.00  0.00    -0.341 OA
BRANCH  18  19
HETATM   19  C   UNL     1      28.140  43.946  53.589  1.00  0.00     0.086 A 
HETATM   20  C   UNL     1      28.122  45.050  54.452  1.00  0.00     0.044 A 
HETATM   21  C   UNL     1      29.110  45.212  55.430  1.00  0.00     0.029 A 
HETATM   22 BR   UNL     1      26.755  46.368  54.349  1.00  0.00    -0.048 Br
HETATM   23  C   UNL     1      30.136  44.270  55.563  1.00  0.00    -0.057 A 
HETATM   24  C   UNL     1      30.160  43.172  54.697  1.00  0.00     0.010 A 
HETATM   25  C   UNL     1      29.171  43.010  53.719  1.00  0.00     0.039 A 
BRANCH  23  26
HETATM   26  C   UNL     1      31.223  44.457  56.591  1.00  0.00     0.034 C 
HETATM   27  C   UNL     1      31.655  43.134  57.205  1.00  0.00     0.010 C 
ENDBRANCH  23  26
ENDBRANCH  18  19
ENDBRANCH  17  18
ENDBRANCH   1  17
TORSDOF 6
ENDMDL
