MODEL 1
REMARK VINA RESULT:      -8.8      0.000      0.000
REMARK  9 active torsions:
REMARK  status: ('A' for Active; 'I' for Inactive)
REMARK    1  A    between atoms: C_2  and  O_3 
REMARK    2  A    between atoms: O_3  and  C_4 
REMARK    3  A    between atoms: C_5  and  N_6 
REMARK       I    between atoms: N_6  and  C_7 
REMARK    4  A    between atoms: C_7  and  C_8 
REMARK    5  A    between atoms: C_11  and  N_12 
REMARK    6  A    between atoms: C_17  and  N_18 
REMARK       I    between atoms: N_18  and  C_19 
REMARK    7  A    between atoms: C_19  and  C_20 
REMARK    8  A    between atoms: C_23  and  N_24 
REMARK    9  A    between atoms: C_29  and  C_30 
REMARK       I    between atoms: C_30  and  N_31 
ROOT
HETATM    1  C   UNL     1      25.768  41.690  50.562  1.00  0.00     0.111 A 
HETATM    2  C   UNL     1      26.852  40.930  51.045  1.00  0.00     0.071 A 
HETATM    3  C   UNL     1      27.707  41.470  52.017  1.00  0.00     0.062 A 
HETATM    4  C   UNL     1      27.469  42.754  52.524  1.00  0.00     0.038 A 
HETATM    5  C   UNL     1      26.381  43.493  52.042  1.00  0.00     0.049 A 
HETATM    6  C   UNL     1      25.505  42.958  51.090  1.00  0.00     0.069 A 
ENDROOT
BRANCH   2   7
HETATM    7  N   UNL     1      26.952  39.599  50.568  1.00  0.00    -0.320 N 
HETATM    8  C   UNL     1      27.916  39.090  49.731  1.00  0.00     0.256 C 
HETATM    9  O   UNL     1      28.662  38.197  50.125  1.00  0.00    -0.267 OA
HETATM   10  H   UNL     1      26.668  38.930  51.279  1.00  0.00     0.169 HD
BRANCH   8  11
HETATM   11  C   UNL     1      27.872  39.443  48.279  1.00  0.00     0.032 A 
HETATM   12  C   UNL     1      27.065  38.670  47.436  1.00  0.00     0.019 A 
HETATM   13  C   UNL     1      26.837  39.062  46.113  1.00  0.00     0.024 A 
HETATM   14  C   UNL     1      27.443  40.207  45.593  1.00  0.00     0.005 A 
HETATM   15  C   UNL     1      28.222  40.995  46.445  1.00  0.00     0.024 A 
HETATM   16  C   UNL     1      28.452  40.611  47.772  1.00  0.00     0.019 A 
BRANCH  14  17
HETATM   17  N   UNL     1      27.073  40.688  44.332  1.00  0.00    -0.303 NA
HETATM   18  H   UNL     1      26.247  40.239  43.948  1.00  0.00     0.124 HD
HETATM   19  H   UNL     1      27.837  40.725  43.664  1.00  0.00     0.124 HD
ENDBRANCH  14  17
ENDBRANCH   8  11
ENDBRANCH   2   7
BRANCH   1  20
HETATM   20  O   UNL     1      24.961  41.108  49.608  1.00  0.00    -0.348 OA
BRANCH  20  21
HETATM   21  C   UNL     1      25.087  41.762  48.333  1.00  0.00     0.171 C 
HETATM   22  C   UNL     1      24.074  41.204  47.349  1.00  0.00     0.034 C 
ENDBRANCH  20  21
ENDBRANCH   1  20
BRANCH   6  23
HETATM   23  C   UNL     1      24.309  43.772  50.752  1.00  0.00     0.252 C 
HETATM   24  N   UNL     1      24.513  44.954  50.100  1.00  0.00    -0.366 N 
HETATM   25  H   UNL     1      25.437  45.278  49.841  1.00  0.00     0.159 HD
HETATM   26  H   UNL     1      23.706  45.492  49.815  1.00  0.00     0.159 HD
HETATM   27  O   UNL     1      23.177  43.376  51.005  1.00  0.00    -0.268 OA
ENDBRANCH   6  23
BRANCH   4  28
HETATM   28  N   UNL     1      28.204  43.357  53.569  1.00  0.00    -0.323 N 
HETATM   29  C   UNL     1      29.575  43.373  53.743  1.00  0.00     0.256 C 
HETATM   30  O   UNL     1      30.407  43.024  52.916  1.00  0.00    -0.267 OA
HETATM   31  H   UNL     1      27.647  43.802  54.286  1.00  0.00     0.169 HD
BRANCH  29  32
HETATM   32  C   UNL     1      30.048  43.883  55.073  1.00  0.00     0.032 A 
HETATM   33  C   UNL     1      29.576  45.078  55.636  1.00  0.00     0.019 A 
HETATM   34  C   UNL     1      30.037  45.498  56.890  1.00  0.00     0.024 A 
HETATM   35  C   UNL     1      30.983  44.752  57.595  1.00  0.00     0.005 A 
HETATM   36  C   UNL     1      31.384  43.520  57.070  1.00  0.00     0.024 A 
HETATM   37  C   UNL     1      30.937  43.096  55.813  1.00  0.00     0.019 A 
BRANCH  35  38
HETATM   38  N   UNL     1      31.330  45.109  58.901  1.00  0.00    -0.303 NA
HETATM   39  H   UNL     1      31.201  46.094  59.111  1.00  0.00     0.124 HD
HETATM   40  H   UNL     1      32.240  44.769  59.196  1.00  0.00     0.124 HD
ENDBRANCH  35  38
ENDBRANCH  29  32
ENDBRANCH   4  28
TORSDOF 9
ENDMDL
MODEL 2
REMARK VINA RESULT:      -8.8      2.201      4.763
REMARK  9 active torsions:
REMARK  status: ('A' for Active; 'I' for Inactive)
REMARK    1  A    between atoms: C_2  and  O_3 
REMARK    2  A    between atoms: O_3  and  C_4 
REMARK    3  A    between atoms: C_5  and  N_6 
REMARK       I    between atoms: N_6  and  C_7 
REMARK    4  A    between atoms: C_7  and  C_8 
REMARK    5  A    between atoms: C_11  and  N_12 
REMARK    6  A    between atoms: C_17  and  N_18 
REMARK       I    between atoms: N_18  and  C_19 
REMARK    7  A    between atoms: C_19  and  C_20 
REMARK    8  A    between atoms: C_23  and  N_24 
REMARK    9  A    between atoms: C_29  and  C_30 
REMARK       I    between atoms: C_30  and  N_31 
ROOT
HETATM    1  C   UNL     1      27.700  39.593  50.332  1.00  0.00     0.111 A 
HETATM    2  C   UNL     1      26.855  40.660  50.700  1.00  0.00     0.071 A 
HETATM    3  C   UNL     1      27.155  41.432  51.831  1.00  0.00     0.062 A 
HETATM    4  C   UNL     1      28.307  41.160  52.580  1.00  0.00     0.038 A 
HETATM    5  C   UNL     1      29.143  40.103  52.196  1.00  0.00     0.049 A 
HETATM    6  C   UNL     1      28.869  39.338  51.055  1.00  0.00     0.069 A 
ENDROOT
BRANCH   2   7
HETATM    7  N   UNL     1      25.778  40.943  49.822  1.00  0.00    -0.320 N 
HETATM    8  C   UNL     1      25.722  41.937  48.875  1.00  0.00     0.256 C 
HETATM    9  O   UNL     1      25.617  41.646  47.685  1.00  0.00    -0.267 OA
HETATM   10  H   UNL     1      25.321  40.089  49.512  1.00  0.00     0.169 HD
BRANCH   8  11
HETATM   11  C   UNL     1      25.527  43.350  49.321  1.00  0.00     0.032 A 
HETATM   12  C   UNL     1      24.241  43.750  49.702  1.00  0.00     0.019 A 
HETATM   13  C   UNL     1      24.031  44.996  50.303  1.00  0.00     0.024 A 
HETATM   14  C   UNL     1      25.092  45.884  50.494  1.00  0.00     0.005 A 
HETATM   15  C   UNL     1      26.380  45.470  50.142  1.00  0.00     0.024 A 
HETATM   16  C   UNL     1      26.598  44.222  49.544  1.00  0.00     0.019 A 
BRANCH  14  17
HETATM   17  N   UNL     1      24.908  47.046  51.250  1.00  0.00    -0.303 NA
HETATM   18  H   UNL     1      25.084  47.903  50.734  1.00  0.00     0.124 HD
HETATM   19  H   UNL     1      25.380  47.034  52.148  1.00  0.00     0.124 HD
ENDBRANCH  14  17
ENDBRANCH   8  11
ENDBRANCH   2   7
BRANCH   1  20
HETATM   20  O   UNL     1      27.355  38.869  49.211  1.00  0.00    -0.348 OA
BRANCH  20  21
HETATM   21  C   UNL     1      26.805  37.585  49.555  1.00  0.00     0.171 C 
HETATM   22  C   UNL     1      26.854  36.651  48.359  1.00  0.00     0.034 C 
ENDBRANCH  20  21
ENDBRANCH   1  20
BRANCH   6  23
HETATM   23  C   UNL     1      29.893  38.336  50.663  1.00  0.00     0.252 C 
HETATM   24  N   UNL     1      30.480  38.478  49.439  1.00  0.00    -0.366 N 
HETATM   25  H   UNL     1      30.245  39.236  48.809  1.00  0.00     0.159 HD
HETATM   26  H   UNL     1      31.217  37.837  49.181  1.00  0.00     0.159 HD
HETATM   27  O   UNL     1      30.234  37.441  51.428  1.00  0.00    -0.268 OA
ENDBRANCH   6  23
BRANCH   4  28
HETATM   28  N   UNL     1      28.757  41.930  53.676  1.00  0.00    -0.323 N 
HETATM   29  C   UNL     1      29.115  43.265  53.685  1.00  0.00     0.256 C 
HETATM   30  O   UNL     1      28.927  44.064  52.778  1.00  0.00    -0.267 OA
HETATM   31  H   UNL     1      28.851  41.425  54.546  1.00  0.00     0.169 HD
BRANCH  29  32
HETATM   32  C   UNL     1      29.782  43.741  54.943  1.00  0.00     0.032 A 
HETATM   33  C   UNL     1      29.441  44.949  55.568  1.00  0.00     0.019 A 
HETATM   34  C   UNL     1      30.082  45.337  56.751  1.00  0.00     0.024 A 
HETATM   35  C   UNL     1      31.081  44.546  57.320  1.00  0.00     0.005 A 
HETATM   36  C   UNL     1      31.356  43.304  56.741  1.00  0.00     0.024 A 
HETATM   37  C   UNL     1      30.728  42.911  55.553  1.00  0.00     0.019 A 
BRANCH  35  38
HETATM   38  N   UNL     1      31.613  44.875  58.570  1.00  0.00    -0.303 NA
HETATM   39  H   UNL     1      31.556  45.864  58.798  1.00  0.00     0.124 HD
HETATM   40  H   UNL     1      32.540  44.496  58.739  1.00  0.00     0.124 HD
ENDBRANCH  35  38
ENDBRANCH  29  32
ENDBRANCH   4  28
TORSDOF 9
ENDMDL
MODEL 3
REMARK VINA RESULT:      -8.7      5.591      8.917
REMARK  9 active torsions:
REMARK  status: ('A' for Active; 'I' for Inactive)
REMARK    1  A    between atoms: C_2  and  O_3 
REMARK    2  A    between atoms: O_3  and  C_4 
REMARK    3  A    between atoms: C_5  and  N_6 
REMARK       I    between atoms: N_6  and  C_7 
REMARK    4  A    between atoms: C_7  and  C_8 
REMARK    5  A    between atoms: C_11  and  N_12 
REMARK    6  A    between atoms: C_17  and  N_18 
REMARK       I    between atoms: N_18  and  C_19 
REMARK    7  A    between atoms: C_19  and  C_20 
REMARK    8  A    between atoms: C_23  and  N_24 
REMARK    9  A    between atoms: C_29  and  C_30 
REMARK       I    between atoms: C_30  and  N_31 
ROOT
HETATM    1  C   UNL     1      22.627  47.173  48.212  1.00  0.00     0.111 A 
HETATM    2  C   UNL     1      23.394  48.116  48.925  1.00  0.00     0.071 A 
HETATM    3  C   UNL     1      24.231  47.693  49.967  1.00  0.00     0.062 A 
HETATM    4  C   UNL     1      24.324  46.331  50.282  1.00  0.00     0.038 A 
HETATM    5  C   UNL     1      23.564  45.404  49.557  1.00  0.00     0.049 A 
HETATM    6  C   UNL     1      22.741  45.809  48.498  1.00  0.00     0.069 A 
ENDROOT
BRANCH   2   7
HETATM    7  N   UNL     1      23.332  49.456  48.465  1.00  0.00    -0.320 N 
HETATM    8  C   UNL     1      22.794  50.533  49.127  1.00  0.00     0.256 C 
HETATM    9  O   UNL     1      23.511  51.479  49.447  1.00  0.00    -0.267 OA
HETATM   10  H   UNL     1      24.167  49.704  47.941  1.00  0.00     0.169 HD
BRANCH   8  11
HETATM   11  C   UNL     1      21.307  50.659  49.214  1.00  0.00     0.032 A 
HETATM   12  C   UNL     1      20.639  49.920  50.198  1.00  0.00     0.019 A 
HETATM   13  C   UNL     1      19.280  50.136  50.451  1.00  0.00     0.024 A 
HETATM   14  C   UNL     1      18.552  51.060  49.698  1.00  0.00     0.005 A 
HETATM   15  C   UNL     1      19.228  51.819  48.738  1.00  0.00     0.024 A 
HETATM   16  C   UNL     1      20.589  51.611  48.482  1.00  0.00     0.019 A 
BRANCH  14  17
HETATM   17  N   UNL     1      17.246  51.397  50.070  1.00  0.00    -0.303 NA
HETATM   18  H   UNL     1      16.572  50.652  49.923  1.00  0.00     0.124 HD
HETATM   19  H   UNL     1      16.927  52.285  49.696  1.00  0.00     0.124 HD
ENDBRANCH  14  17
ENDBRANCH   8  11
ENDBRANCH   2   7
BRANCH   1  20
HETATM   20  O   UNL     1      21.822  47.646  47.198  1.00  0.00    -0.348 OA
BRANCH  20  21
HETATM   21  C   UNL     1      20.426  47.477  47.503  1.00  0.00     0.171 C 
HETATM   22  C   UNL     1      19.591  48.490  46.740  1.00  0.00     0.034 C 
ENDBRANCH  20  21
ENDBRANCH   1  20
BRANCH   6  23
HETATM   23  C   UNL     1      22.089  44.731  47.711  1.00  0.00     0.252 C 
HETATM   24  N   UNL     1      22.434  44.612  46.396  1.00  0.00    -0.366 N 
HETATM   25  H   UNL     1      23.113  45.222  45.956  1.00  0.00     0.159 HD
HETATM   26  H   UNL     1      22.041  43.850  45.862  1.00  0.00     0.159 HD
HETATM   27  O   UNL     1      21.305  43.946  48.233  1.00  0.00    -0.268 OA
ENDBRANCH   6  23
BRANCH   4  28
HETATM   28  N   UNL     1      25.204  45.784  51.243  1.00  0.00    -0.323 N 
HETATM   29  C   UNL     1      25.693  46.386  52.387  1.00  0.00     0.256 C 
HETATM   30  O   UNL     1      25.299  47.442  52.866  1.00  0.00    -0.267 OA
HETATM   31  H   UNL     1      25.531  44.848  51.043  1.00  0.00     0.169 HD
BRANCH  29  32
HETATM   32  C   UNL     1      26.797  45.644  53.081  1.00  0.00     0.032 A 
HETATM   33  C   UNL     1      27.272  46.008  54.349  1.00  0.00     0.019 A 
HETATM   34  C   UNL     1      28.292  45.268  54.960  1.00  0.00     0.024 A 
HETATM   35  C   UNL     1      28.868  44.172  54.318  1.00  0.00     0.005 A 
HETATM   36  C   UNL     1      28.333  43.761  53.094  1.00  0.00     0.024 A 
HETATM   37  C   UNL     1      27.320  44.500  52.470  1.00  0.00     0.019 A 
BRANCH  35  38
HETATM   38  N   UNL     1      29.785  43.362  54.994  1.00  0.00    -0.303 NA
HETATM   39  H   UNL     1      30.634  43.169  54.471  1.00  0.00     0.124 HD
HETATM   40  H   UNL     1      29.381  42.520  55.392  1.00  0.00     0.124 HD
ENDBRANCH  35  38
ENDBRANCH  29  32
ENDBRANCH   4  28
TORSDOF 9
ENDMDL
MODEL 4
REMARK VINA RESULT:      -8.4      3.963      9.006
REMARK  9 active torsions:
REMARK  status: ('A' for Active; 'I' for Inactive)
REMARK    1  A    between atoms: C_2  and  O_3 
REMARK    2  A    between atoms: O_3  and  C_4 
REMARK    3  A    between atoms: C_5  and  N_6 
REMARK       I    between atoms: N_6  and  C_7 
REMARK    4  A    between atoms: C_7  and  C_8 
REMARK    5  A    between atoms: C_11  and  N_12 
REMARK    6  A    between atoms: C_17  and  N_18 
REMARK       I    between atoms: N_18  and  C_19 
REMARK    7  A    between atoms: C_19  and  C_20 
REMARK    8  A    between atoms: C_23  and  N_24 
REMARK    9  A    between atoms: C_29  and  C_30 
REMARK       I    between atoms: C_30  and  N_31 
ROOT
HETATM    1  C   UNL     1      25.819  43.031  50.875  1.00  0.00     0.111 A 
HETATM    2  C   UNL     1      25.223  43.882  51.828  1.00  0.00     0.071 A 
HETATM    3  C   UNL     1      24.553  45.040  51.409  1.00  0.00     0.062 A 
HETATM    4  C   UNL     1      24.452  45.336  50.044  1.00  0.00     0.038 A 
HETATM    5  C   UNL     1      25.040  44.475  49.108  1.00  0.00     0.049 A 
HETATM    6  C   UNL     1      25.693  43.303  49.510  1.00  0.00     0.069 A 
ENDROOT
BRANCH   2   7
HETATM    7  N   UNL     1      25.268  43.448  53.177  1.00  0.00    -0.320 N 
HETATM    8  C   UNL     1      25.467  44.227  54.291  1.00  0.00     0.256 C 
HETATM    9  O   UNL     1      24.587  44.314  55.145  1.00  0.00    -0.267 OA
HETATM   10  H   UNL     1      24.601  42.699  53.345  1.00  0.00     0.169 HD
BRANCH   8  11
HETATM   11  C   UNL     1      26.839  44.745  54.575  1.00  0.00     0.032 A 
HETATM   12  C   UNL     1      26.969  46.071  55.005  1.00  0.00     0.019 A 
HETATM   13  C   UNL     1      28.200  46.553  55.464  1.00  0.00     0.024 A 
HETATM   14  C   UNL     1      29.333  45.737  55.460  1.00  0.00     0.005 A 
HETATM   15  C   UNL     1      29.194  44.405  55.061  1.00  0.00     0.024 A 
HETATM   16  C   UNL     1      27.964  43.913  54.605  1.00  0.00     0.019 A 
BRANCH  14  17
HETATM   17  N   UNL     1      30.510  46.167  56.081  1.00  0.00    -0.303 NA
HETATM   18  H   UNL     1      30.771  45.616  56.893  1.00  0.00     0.124 HD
HETATM   19  H   UNL     1      30.539  47.164  56.267  1.00  0.00     0.124 HD
ENDBRANCH  14  17
ENDBRANCH   8  11
ENDBRANCH   2   7
BRANCH   1  20
HETATM   20  O   UNL     1      26.465  41.907  51.345  1.00  0.00    -0.348 OA
BRANCH  20  21
HETATM   21  C   UNL     1      27.868  42.149  51.556  1.00  0.00     0.171 C 
HETATM   22  C   UNL     1      28.499  40.985  52.299  1.00  0.00     0.034 C 
ENDBRANCH  20  21
ENDBRANCH   1  20
BRANCH   6  23
HETATM   23  C   UNL     1      26.157  42.395  48.429  1.00  0.00     0.252 C 
HETATM   24  N   UNL     1      25.220  41.916  47.560  1.00  0.00    -0.366 N 
HETATM   25  H   UNL     1      24.240  42.164  47.628  1.00  0.00     0.159 HD
HETATM   26  H   UNL     1      25.528  41.342  46.787  1.00  0.00     0.159 HD
HETATM   27  O   UNL     1      27.344  42.123  48.292  1.00  0.00    -0.268 OA
ENDBRANCH   6  23
BRANCH   4  28
HETATM   28  N   UNL     1      23.720  46.418  49.505  1.00  0.00    -0.323 N 
HETATM   29  C   UNL     1      23.988  47.769  49.625  1.00  0.00     0.256 C 
HETATM   30  O   UNL     1      25.020  48.258  50.068  1.00  0.00    -0.267 OA
HETATM   31  H   UNL     1      22.885  46.161  48.997  1.00  0.00     0.169 HD
BRANCH  29  32
HETATM   32  C   UNL     1      22.899  48.685  49.150  1.00  0.00     0.032 A 
HETATM   33  C   UNL     1      23.081  50.068  49.012  1.00  0.00     0.019 A 
HETATM   34  C   UNL     1      22.035  50.875  48.545  1.00  0.00     0.024 A 
HETATM   35  C   UNL     1      20.792  50.326  48.228  1.00  0.00     0.005 A 
HETATM   36  C   UNL     1      20.643  48.938  48.284  1.00  0.00     0.024 A 
HETATM   37  C   UNL     1      21.679  48.124  48.759  1.00  0.00     0.019 A 
BRANCH  35  38
HETATM   38  N   UNL     1      19.805  51.119  47.634  1.00  0.00    -0.303 NA
HETATM   39  H   UNL     1      20.102  52.068  47.429  1.00  0.00     0.124 HD
HETATM   40  H   UNL     1      18.909  51.091  48.111  1.00  0.00     0.124 HD
ENDBRANCH  35  38
ENDBRANCH  29  32
ENDBRANCH   4  28
TORSDOF 9
ENDMDL
MODEL 5
REMARK VINA RESULT:      -8.4      3.102      7.709
REMARK  9 active torsions:
REMARK  status: ('A' for Active; 'I' for Inactive)
REMARK    1  A    between atoms: C_2  and  O_3 
REMARK    2  A    between atoms: O_3  and  C_4 
REMARK    3  A    between atoms: C_5  and  N_6 
REMARK       I    between atoms: N_6  and  C_7 
REMARK    4  A    between atoms: C_7  and  C_8 
REMARK    5  A    between atoms: C_11  and  N_12 
REMARK    6  A    between atoms: C_17  and  N_18 
REMARK       I    between atoms: N_18  and  C_19 
REMARK    7  A    between atoms: C_19  and  C_20 
REMARK    8  A    between atoms: C_23  and  N_24 
REMARK    9  A    between atoms: C_29  and  C_30 
REMARK       I    between atoms: C_30  and  N_31 
ROOT
HETATM    1  C   UNL     1      27.080  41.250  50.182  1.00  0.00     0.111 A 
HETATM    2  C   UNL     1      27.825  42.226  50.874  1.00  0.00     0.071 A 
HETATM    3  C   UNL     1      27.572  43.587  50.653  1.00  0.00     0.062 A 
HETATM    4  C   UNL     1      26.561  43.976  49.765  1.00  0.00     0.038 A 
HETATM    5  C   UNL     1      25.821  42.995  49.092  1.00  0.00     0.049 A 
HETATM    6  C   UNL     1      26.047  41.632  49.320  1.00  0.00     0.069 A 
ENDROOT
BRANCH   2   7
HETATM    7  N   UNL     1      28.745  41.748  51.842  1.00  0.00    -0.320 N 
HETATM    8  C   UNL     1      28.516  41.576  53.186  1.00  0.00     0.256 C 
HETATM    9  O   UNL     1      28.581  40.453  53.681  1.00  0.00    -0.267 OA
HETATM   10  H   UNL     1      29.340  41.019  51.456  1.00  0.00     0.169 HD
BRANCH   8  11
HETATM   11  C   UNL     1      28.453  42.781  54.068  1.00  0.00     0.032 A 
HETATM   12  C   UNL     1      29.657  43.317  54.540  1.00  0.00     0.019 A 
HETATM   13  C   UNL     1      29.675  44.545  55.211  1.00  0.00     0.024 A 
HETATM   14  C   UNL     1      28.490  45.239  55.461  1.00  0.00     0.005 A 
HETATM   15  C   UNL     1      27.293  44.719  54.960  1.00  0.00     0.024 A 
HETATM   16  C   UNL     1      27.267  43.492  54.284  1.00  0.00     0.019 A 
BRANCH  14  17
HETATM   17  N   UNL     1      28.532  46.541  55.970  1.00  0.00    -0.303 NA
HETATM   18  H   UNL     1      28.518  46.586  56.985  1.00  0.00     0.124 HD
HETATM   19  H   UNL     1      27.858  47.173  55.548  1.00  0.00     0.124 HD
ENDBRANCH  14  17
ENDBRANCH   8  11
ENDBRANCH   2   7
BRANCH   1  20
HETATM   20  O   UNL     1      27.373  39.928  50.439  1.00  0.00    -0.348 OA
BRANCH  20  21
HETATM   21  C   UNL     1      28.515  39.479  49.688  1.00  0.00     0.171 C 
HETATM   22  C   UNL     1      29.315  38.471  50.493  1.00  0.00     0.034 C 
ENDBRANCH  20  21
ENDBRANCH   1  20
BRANCH   6  23
HETATM   23  C   UNL     1      25.115  40.682  48.660  1.00  0.00     0.252 C 
HETATM   24  N   UNL     1      25.609  39.463  48.295  1.00  0.00    -0.366 N 
HETATM   25  H   UNL     1      26.571  39.194  48.465  1.00  0.00     0.159 HD
HETATM   26  H   UNL     1      24.973  38.786  47.895  1.00  0.00     0.159 HD
HETATM   27  O   UNL     1      23.934  40.962  48.492  1.00  0.00    -0.268 OA
ENDBRANCH   6  23
BRANCH   4  28
HETATM   28  N   UNL     1      26.156  45.311  49.540  1.00  0.00    -0.323 N 
HETATM   29  C   UNL     1      25.207  46.039  50.233  1.00  0.00     0.256 C 
HETATM   30  O   UNL     1      24.682  45.710  51.289  1.00  0.00    -0.267 OA
HETATM   31  H   UNL     1      26.601  45.769  48.756  1.00  0.00     0.169 HD
BRANCH  29  32
HETATM   32  C   UNL     1      24.822  47.349  49.610  1.00  0.00     0.032 A 
HETATM   33  C   UNL     1      25.753  48.362  49.343  1.00  0.00     0.019 A 
HETATM   34  C   UNL     1      25.342  49.559  48.743  1.00  0.00     0.024 A 
HETATM   35  C   UNL     1      24.003  49.776  48.417  1.00  0.00     0.005 A 
HETATM   36  C   UNL     1      23.095  48.730  48.605  1.00  0.00     0.024 A 
HETATM   37  C   UNL     1      23.494  47.535  49.214  1.00  0.00     0.019 A 
BRANCH  35  38
HETATM   38  N   UNL     1      23.630  50.913  47.695  1.00  0.00    -0.303 NA
HETATM   39  H   UNL     1      24.080  51.769  48.007  1.00  0.00     0.124 HD
HETATM   40  H   UNL     1      22.627  51.025  47.586  1.00  0.00     0.124 HD
ENDBRANCH  35  38
ENDBRANCH  29  32
ENDBRANCH   4  28
TORSDOF 9
ENDMDL
MODEL 6
REMARK VINA RESULT:      -8.0      3.353      7.141
REMARK  9 active torsions:
REMARK  status: ('A' for Active; 'I' for Inactive)
REMARK    1  A    between atoms: C_2  and  O_3 
REMARK    2  A    between atoms: O_3  and  C_4 
REMARK    3  A    between atoms: C_5  and  N_6 
REMARK       I    between atoms: N_6  and  C_7 
REMARK    4  A    between atoms: C_7  and  C_8 
REMARK    5  A    between atoms: C_11  and  N_12 
REMARK    6  A    between atoms: C_17  and  N_18 
REMARK       I    between atoms: N_18  and  C_19 
REMARK    7  A    between atoms: C_19  and  C_20 
REMARK    8  A    between atoms: C_23  and  N_24 
REMARK    9  A    between atoms: C_29  and  C_30 
REMARK       I    between atoms: C_30  and  N_31 
ROOT
HETATM    1  C   UNL     1      27.744  44.050  54.189  1.00  0.00     0.111 A 
HETATM    2  C   UNL     1      27.060  43.354  53.172  1.00  0.00     0.071 A 
HETATM    3  C   UNL     1      26.252  44.056  52.266  1.00  0.00     0.062 A 
HETATM    4  C   UNL     1      26.145  45.450  52.356  1.00  0.00     0.038 A 
HETATM    5  C   UNL     1      26.840  46.129  53.367  1.00  0.00     0.049 A 
HETATM    6  C   UNL     1      27.669  45.444  54.264  1.00  0.00     0.069 A 
ENDROOT
BRANCH   2   7
HETATM    7  N   UNL     1      27.316  41.963  53.077  1.00  0.00    -0.320 N 
HETATM    8  C   UNL     1      28.040  41.320  52.101  1.00  0.00     0.256 C 
HETATM    9  O   UNL     1      29.069  40.716  52.398  1.00  0.00    -0.267 OA
HETATM   10  H   UNL     1      27.456  41.551  53.995  1.00  0.00     0.169 HD
BRANCH   8  11
HETATM   11  C   UNL     1      27.431  41.143  50.748  1.00  0.00     0.032 A 
HETATM   12  C   UNL     1      28.290  41.004  49.651  1.00  0.00     0.019 A 
HETATM   13  C   UNL     1      27.788  40.650  48.394  1.00  0.00     0.024 A 
HETATM   14  C   UNL     1      26.417  40.471  48.198  1.00  0.00     0.005 A 
HETATM   15  C   UNL     1      25.565  40.578  49.301  1.00  0.00     0.024 A 
HETATM   16  C   UNL     1      26.061  40.929  50.563  1.00  0.00     0.019 A 
BRANCH  14  17
HETATM   17  N   UNL     1      25.942  39.948  46.990  1.00  0.00    -0.303 NA
HETATM   18  H   UNL     1      26.537  40.151  46.193  1.00  0.00     0.124 HD
HETATM   19  H   UNL     1      24.966  40.155  46.806  1.00  0.00     0.124 HD
ENDBRANCH  14  17
ENDBRANCH   8  11
ENDBRANCH   2   7
BRANCH   1  20
HETATM   20  O   UNL     1      28.523  43.308  55.051  1.00  0.00    -0.348 OA
BRANCH  20  21
HETATM   21  C   UNL     1      29.898  43.272  54.628  1.00  0.00     0.171 C 
HETATM   22  C   UNL     1      30.822  43.255  55.832  1.00  0.00     0.034 C 
ENDBRANCH  20  21
ENDBRANCH   1  20
BRANCH   6  23
HETATM   23  C   UNL     1      28.463  46.275  55.204  1.00  0.00     0.252 C 
HETATM   24  N   UNL     1      28.432  45.938  56.527  1.00  0.00    -0.366 N 
HETATM   25  H   UNL     1      27.897  45.151  56.873  1.00  0.00     0.159 HD
HETATM   26  H   UNL     1      29.010  46.460  57.170  1.00  0.00     0.159 HD
HETATM   27  O   UNL     1      29.161  47.200  54.803  1.00  0.00    -0.268 OA
ENDBRANCH   6  23
BRANCH   4  28
HETATM   28  N   UNL     1      25.441  46.265  51.442  1.00  0.00    -0.323 N 
HETATM   29  C   UNL     1      25.833  46.656  50.175  1.00  0.00     0.256 C 
HETATM   30  O   UNL     1      26.784  46.206  49.549  1.00  0.00    -0.267 OA
HETATM   31  H   UNL     1      24.558  46.624  51.778  1.00  0.00     0.169 HD
BRANCH  29  32
HETATM   32  C   UNL     1      24.985  47.718  49.540  1.00  0.00     0.032 A 
HETATM   33  C   UNL     1      25.522  48.906  49.025  1.00  0.00     0.019 A 
HETATM   34  C   UNL     1      24.687  49.857  48.425  1.00  0.00     0.024 A 
HETATM   35  C   UNL     1      23.308  49.653  48.343  1.00  0.00     0.005 A 
HETATM   36  C   UNL     1      22.790  48.431  48.779  1.00  0.00     0.024 A 
HETATM   37  C   UNL     1      23.615  47.479  49.390  1.00  0.00     0.019 A 
BRANCH  35  38
HETATM   38  N   UNL     1      22.507  50.542  47.621  1.00  0.00    -0.303 NA
HETATM   39  H   UNL     1      22.054  51.250  48.191  1.00  0.00     0.124 HD
HETATM   40  H   UNL     1      21.860  50.092  46.982  1.00  0.00     0.124 HD
ENDBRANCH  35  38
ENDBRANCH  29  32
ENDBRANCH   4  28
TORSDOF 9
ENDMDL
MODEL 7
REMARK VINA RESULT:      -7.7      4.837      8.097
REMARK  9 active torsions:
REMARK  status: ('A' for Active; 'I' for Inactive)
REMARK    1  A    between atoms: C_2  and  O_3 
REMARK    2  A    between atoms: O_3  and  C_4 
REMARK    3  A    between atoms: C_5  and  N_6 
REMARK       I    between atoms: N_6  and  C_7 
REMARK    4  A    between atoms: C_7  and  C_8 
REMARK    5  A    between atoms: C_11  and  N_12 
REMARK    6  A    between atoms: C_17  and  N_18 
REMARK       I    between atoms: N_18  and  C_19 
REMARK    7  A    between atoms: C_19  and  C_20 
REMARK    8  A    between atoms: C_23  and  N_24 
REMARK    9  A    between atoms: C_29  and  C_30 
REMARK       I    between atoms: C_30  and  N_31 
ROOT
HETATM    1  C   UNL     1      22.801  45.131  48.154  1.00  0.00     0.111 A 
HETATM    2  C   UNL     1      23.114  46.434  48.592  1.00  0.00     0.071 A 
HETATM    3  C   UNL     1      23.804  46.620  49.798  1.00  0.00     0.062 A 
HETATM    4  C   UNL     1      24.205  45.511  50.554  1.00  0.00     0.038 A 
HETATM    5  C   UNL     1      23.896  44.222  50.101  1.00  0.00     0.049 A 
HETATM    6  C   UNL     1      23.228  44.020  48.887  1.00  0.00     0.069 A 
ENDROOT
BRANCH   2   7
HETATM    7  N   UNL     1      22.778  47.493  47.711  1.00  0.00    -0.320 N 
HETATM    8  C   UNL     1      22.691  48.830  48.019  1.00  0.00     0.256 C 
HETATM    9  O   UNL     1      23.447  49.635  47.478  1.00  0.00    -0.267 OA
HETATM   10  H   UNL     1      23.163  47.336  46.783  1.00  0.00     0.169 HD
BRANCH   8  11
HETATM   11  C   UNL     1      21.515  49.316  48.802  1.00  0.00     0.032 A 
HETATM   12  C   UNL     1      21.409  50.690  49.048  1.00  0.00     0.019 A 
HETATM   13  C   UNL     1      20.243  51.224  49.609  1.00  0.00     0.024 A 
HETATM   14  C   UNL     1      19.181  50.394  49.974  1.00  0.00     0.005 A 
HETATM   15  C   UNL     1      19.276  49.027  49.697  1.00  0.00     0.024 A 
HETATM   16  C   UNL     1      20.438  48.486  49.132  1.00  0.00     0.019 A 
BRANCH  14  17
HETATM   17  N   UNL     1      17.959  50.949  50.367  1.00  0.00    -0.303 NA
HETATM   18  H   UNL     1      17.444  51.387  49.609  1.00  0.00     0.124 HD
HETATM   19  H   UNL     1      18.020  51.546  51.186  1.00  0.00     0.124 HD
ENDBRANCH  14  17
ENDBRANCH   8  11
ENDBRANCH   2   7
BRANCH   1  20
HETATM   20  O   UNL     1      22.121  45.009  46.962  1.00  0.00    -0.348 OA
BRANCH  20  21
HETATM   21  C   UNL     1      20.716  44.778  47.170  1.00  0.00     0.171 C 
HETATM   22  C   UNL     1      20.182  43.801  46.138  1.00  0.00     0.034 C 
ENDBRANCH  20  21
ENDBRANCH   1  20
BRANCH   6  23
HETATM   23  C   UNL     1      23.075  42.612  48.437  1.00  0.00     0.252 C 
HETATM   24  N   UNL     1      23.624  42.271  47.234  1.00  0.00    -0.366 N 
HETATM   25  H   UNL     1      24.127  42.936  46.659  1.00  0.00     0.159 HD
HETATM   26  H   UNL     1      23.576  41.305  46.940  1.00  0.00     0.159 HD
HETATM   27  O   UNL     1      22.519  41.776  49.139  1.00  0.00    -0.268 OA
ENDBRANCH   6  23
BRANCH   4  28
HETATM   28  N   UNL     1      24.986  45.577  51.729  1.00  0.00    -0.323 N 
HETATM   29  C   UNL     1      25.751  46.636  52.183  1.00  0.00     0.256 C 
HETATM   30  O   UNL     1      25.735  47.775  51.735  1.00  0.00    -0.267 OA
HETATM   31  H   UNL     1      25.003  44.731  52.283  1.00  0.00     0.169 HD
BRANCH  29  32
HETATM   32  C   UNL     1      26.659  46.324  53.336  1.00  0.00     0.032 A 
HETATM   33  C   UNL     1      27.219  45.054  53.536  1.00  0.00     0.019 A 
HETATM   34  C   UNL     1      28.076  44.822  54.619  1.00  0.00     0.024 A 
HETATM   35  C   UNL     1      28.376  45.838  55.528  1.00  0.00     0.005 A 
HETATM   36  C   UNL     1      27.885  47.122  55.276  1.00  0.00     0.024 A 
HETATM   37  C   UNL     1      27.019  47.361  54.202  1.00  0.00     0.019 A 
BRANCH  35  38
HETATM   38  N   UNL     1      29.338  45.631  56.521  1.00  0.00    -0.303 NA
HETATM   39  H   UNL     1      30.121  45.055  56.227  1.00  0.00     0.124 HD
HETATM   40  H   UNL     1      28.956  45.334  57.413  1.00  0.00     0.124 HD
ENDBRANCH  35  38
ENDBRANCH  29  32
ENDBRANCH   4  28
TORSDOF 9
ENDMDL
MODEL 8
REMARK VINA RESULT:      -7.7      4.237      8.872
REMARK  9 active torsions:
REMARK  status: ('A' for Active; 'I' for Inactive)
REMARK    1  A    between atoms: C_2  and  O_3 
REMARK    2  A    between atoms: O_3  and  C_4 
REMARK    3  A    between atoms: C_5  and  N_6 
REMARK       I    between atoms: N_6  and  C_7 
REMARK    4  A    between atoms: C_7  and  C_8 
REMARK    5  A    between atoms: C_11  and  N_12 
REMARK    6  A    between atoms: C_17  and  N_18 
REMARK       I    between atoms: N_18  and  C_19 
REMARK    7  A    between atoms: C_19  and  C_20 
REMARK    8  A    between atoms: C_23  and  N_24 
REMARK    9  A    between atoms: C_29  and  C_30 
REMARK       I    between atoms: C_30  and  N_31 
ROOT
HETATM    1  C   UNL     1      25.728  43.051  50.179  1.00  0.00     0.111 A 
HETATM    2  C   UNL     1      26.294  44.265  50.618  1.00  0.00     0.071 A 
HETATM    3  C   UNL     1      25.707  45.484  50.249  1.00  0.00     0.062 A 
HETATM    4  C   UNL     1      24.546  45.495  49.466  1.00  0.00     0.038 A 
HETATM    5  C   UNL     1      23.989  44.279  49.045  1.00  0.00     0.049 A 
HETATM    6  C   UNL     1      24.550  43.054  49.426  1.00  0.00     0.069 A 
ENDROOT
BRANCH   2   7
HETATM    7  N   UNL     1      27.396  44.163  51.504  1.00  0.00    -0.320 N 
HETATM    8  C   UNL     1      27.349  44.055  52.873  1.00  0.00     0.256 C 
HETATM    9  O   UNL     1      27.789  43.047  53.424  1.00  0.00    -0.267 OA
HETATM   10  H   UNL     1      28.144  43.607  51.098  1.00  0.00     0.169 HD
BRANCH   8  11
HETATM   11  C   UNL     1      27.009  45.263  53.683  1.00  0.00     0.032 A 
HETATM   12  C   UNL     1      27.942  45.708  54.627  1.00  0.00     0.019 A 
HETATM   13  C   UNL     1      27.765  46.934  55.280  1.00  0.00     0.024 A 
HETATM   14  C   UNL     1      26.634  47.716  55.035  1.00  0.00     0.005 A 
HETATM   15  C   UNL     1      25.721  47.285  54.068  1.00  0.00     0.024 A 
HETATM   16  C   UNL     1      25.894  46.062  53.408  1.00  0.00     0.019 A 
BRANCH  14  17
HETATM   17  N   UNL     1      26.551  49.013  55.553  1.00  0.00    -0.303 NA
HETATM   18  H   UNL     1      26.462  49.046  56.564  1.00  0.00     0.124 HD
HETATM   19  H   UNL     1      25.867  49.601  55.087  1.00  0.00     0.124 HD
ENDBRANCH  14  17
ENDBRANCH   8  11
ENDBRANCH   2   7
BRANCH   1  20
HETATM   20  O   UNL     1      26.347  41.884  50.572  1.00  0.00    -0.348 OA
BRANCH  20  21
HETATM   21  C   UNL     1      27.476  41.572  49.737  1.00  0.00     0.171 C 
HETATM   22  C   UNL     1      28.038  40.208  50.095  1.00  0.00     0.034 C 
ENDBRANCH  20  21
ENDBRANCH   1  20
BRANCH   6  23
HETATM   23  C   UNL     1      23.801  41.830  49.041  1.00  0.00     0.252 C 
HETATM   24  N   UNL     1      24.526  40.745  48.640  1.00  0.00    -0.366 N 
HETATM   25  H   UNL     1      25.539  40.752  48.606  1.00  0.00     0.159 HD
HETATM   26  H   UNL     1      24.034  39.888  48.429  1.00  0.00     0.159 HD
HETATM   27  O   UNL     1      22.579  41.778  49.125  1.00  0.00    -0.268 OA
ENDBRANCH   6  23
BRANCH   4  28
HETATM   28  N   UNL     1      23.819  46.655  49.117  1.00  0.00    -0.323 N 
HETATM   29  C   UNL     1      24.086  47.963  49.473  1.00  0.00     0.256 C 
HETATM   30  O   UNL     1      25.113  48.367  50.003  1.00  0.00    -0.267 OA
HETATM   31  H   UNL     1      22.988  46.492  48.564  1.00  0.00     0.169 HD
BRANCH  29  32
HETATM   32  C   UNL     1      23.001  48.950  49.154  1.00  0.00     0.032 A 
HETATM   33  C   UNL     1      21.647  48.590  49.090  1.00  0.00     0.019 A 
HETATM   34  C   UNL     1      20.673  49.555  48.807  1.00  0.00     0.024 A 
HETATM   35  C   UNL     1      21.026  50.884  48.565  1.00  0.00     0.005 A 
HETATM   36  C   UNL     1      22.365  51.254  48.716  1.00  0.00     0.024 A 
HETATM   37  C   UNL     1      23.348  50.294  48.989  1.00  0.00     0.019 A 
BRANCH  35  38
HETATM   38  N   UNL     1      20.036  51.860  48.422  1.00  0.00    -0.303 NA
HETATM   39  H   UNL     1      20.195  52.698  48.974  1.00  0.00     0.124 HD
HETATM   40  H   UNL     1      19.089  51.508  48.522  1.00  0.00     0.124 HD
ENDBRANCH  35  38
ENDBRANCH  29  32
ENDBRANCH   4  28
TORSDOF 9
ENDMDL
MODEL 9
REMARK VINA RESULT:      -7.6      6.228     10.007
REMARK  9 active torsions:
REMARK  status: ('A' for Active; 'I' for Inactive)
REMARK    1  A    between atoms: C_2  and  O_3 
REMARK    2  A    between atoms: O_3  and  C_4 
REMARK    3  A    between atoms: C_5  and  N_6 
REMARK       I    between atoms: N_6  and  C_7 
REMARK    4  A    between atoms: C_7  and  C_8 
REMARK    5  A    between atoms: C_11  and  N_12 
REMARK    6  A    between atoms: C_17  and  N_18 
REMARK       I    between atoms: N_18  and  C_19 
REMARK    7  A    between atoms: C_19  and  C_20 
REMARK    8  A    between atoms: C_23  and  N_24 
REMARK    9  A    between atoms: C_29  and  C_30 
REMARK       I    between atoms: C_30  and  N_31 
ROOT
HETATM    1  C   UNL     1      20.758  47.337  47.700  1.00  0.00     0.111 A 
HETATM    2  C   UNL     1      21.952  47.976  48.090  1.00  0.00     0.071 A 
HETATM    3  C   UNL     1      22.928  47.262  48.801  1.00  0.00     0.062 A 
HETATM    4  C   UNL     1      22.727  45.909  49.100  1.00  0.00     0.038 A 
HETATM    5  C   UNL     1      21.540  45.284  48.695  1.00  0.00     0.049 A 
HETATM    6  C   UNL     1      20.567  45.977  47.965  1.00  0.00     0.069 A 
ENDROOT
BRANCH   2   7
HETATM    7  N   UNL     1      22.128  49.311  47.645  1.00  0.00    -0.320 N 
HETATM    8  C   UNL     1      22.160  50.444  48.422  1.00  0.00     0.256 C 
HETATM    9  O   UNL     1      23.179  51.130  48.464  1.00  0.00    -0.267 OA
HETATM   10  H   UNL     1      22.782  49.357  46.869  1.00  0.00     0.169 HD
BRANCH   8  11
HETATM   11  C   UNL     1      20.881  50.966  48.991  1.00  0.00     0.032 A 
HETATM   12  C   UNL     1      20.180  51.935  48.262  1.00  0.00     0.019 A 
HETATM   13  C   UNL     1      18.892  52.323  48.647  1.00  0.00     0.024 A 
HETATM   14  C   UNL     1      18.297  51.786  49.791  1.00  0.00     0.005 A 
HETATM   15  C   UNL     1      18.985  50.797  50.499  1.00  0.00     0.024 A 
HETATM   16  C   UNL     1      20.273  50.400  50.117  1.00  0.00     0.019 A 
BRANCH  14  17
HETATM   17  N   UNL     1      16.951  52.044  50.070  1.00  0.00    -0.303 NA
HETATM   18  H   UNL     1      16.727  53.032  50.132  1.00  0.00     0.124 HD
HETATM   19  H   UNL     1      16.583  51.515  50.854  1.00  0.00     0.124 HD
ENDBRANCH  14  17
ENDBRANCH   8  11
ENDBRANCH   2   7
BRANCH   1  20
HETATM   20  O   UNL     1      19.835  48.088  47.004  1.00  0.00    -0.348 OA
BRANCH  20  21
HETATM   21  C   UNL     1      18.639  48.308  47.773  1.00  0.00     0.171 C 
HETATM   22  C   UNL     1      17.685  49.216  47.018  1.00  0.00     0.034 C 
ENDBRANCH  20  21
ENDBRANCH   1  20
BRANCH   6  23
HETATM   23  C   UNL     1      19.413  45.183  47.469  1.00  0.00     0.252 C 
HETATM   24  N   UNL     1      18.413  44.902  48.355  1.00  0.00    -0.366 N 
HETATM   25  H   UNL     1      18.435  45.219  49.317  1.00  0.00     0.159 HD
HETATM   26  H   UNL     1      17.597  44.410  48.019  1.00  0.00     0.159 HD
HETATM   27  O   UNL     1      19.337  44.834  46.297  1.00  0.00    -0.268 OA
ENDBRANCH   6  23
BRANCH   4  28
HETATM   28  N   UNL     1      23.679  45.071  49.722  1.00  0.00    -0.323 N 
HETATM   29  C   UNL     1      24.637  45.420  50.656  1.00  0.00     0.256 C 
HETATM   30  O   UNL     1      24.704  46.490  51.247  1.00  0.00    -0.267 OA
HETATM   31  H   UNL     1      23.668  44.106  49.418  1.00  0.00     0.169 HD
BRANCH  29  32
HETATM   32  C   UNL     1      25.660  44.363  50.952  1.00  0.00     0.032 A 
HETATM   33  C   UNL     1      25.462  43.011  50.640  1.00  0.00     0.019 A 
HETATM   34  C   UNL     1      26.459  42.068  50.922  1.00  0.00     0.024 A 
HETATM   35  C   UNL     1      27.655  42.448  51.533  1.00  0.00     0.005 A 
HETATM   36  C   UNL     1      27.882  43.808  51.762  1.00  0.00     0.024 A 
HETATM   37  C   UNL     1      26.888  44.756  51.493  1.00  0.00     0.019 A 
BRANCH  35  38
HETATM   38  N   UNL     1      28.693  41.524  51.681  1.00  0.00    -0.303 NA
HETATM   39  H   UNL     1      28.590  40.908  52.482  1.00  0.00     0.124 HD
HETATM   40  H   UNL     1      29.622  41.931  51.628  1.00  0.00     0.124 HD
ENDBRANCH  35  38
ENDBRANCH  29  32
ENDBRANCH   4  28
TORSDOF 9
ENDMDL
MODEL 10
REMARK VINA RESULT:      -7.5      3.298      8.257
REMARK  9 active torsions:
REMARK  status: ('A' for Active; 'I' for Inactive)
REMARK    1  A    between atoms: C_2  and  O_3 
REMARK    2  A    between atoms: O_3  and  C_4 
REMARK    3  A    between atoms: C_5  and  N_6 
REMARK       I    between atoms: N_6  and  C_7 
REMARK    4  A    between atoms: C_7  and  C_8 
REMARK    5  A    between atoms: C_11  and  N_12 
REMARK    6  A    between atoms: C_17  and  N_18 
REMARK       I    between atoms: N_18  and  C_19 
REMARK    7  A    between atoms: C_19  and  C_20 
REMARK    8  A    between atoms: C_23  and  N_24 
REMARK    9  A    between atoms: C_29  and  C_30 
REMARK       I    between atoms: C_30  and  N_31 
ROOT
HETATM    1  C   UNL     1      25.628  44.626  52.395  1.00  0.00     0.111 A 
HETATM    2  C   UNL     1      24.981  44.401  51.163  1.00  0.00     0.071 A 
HETATM    3  C   UNL     1      25.321  43.283  50.388  1.00  0.00     0.062 A 
HETATM    4  C   UNL     1      26.284  42.377  50.850  1.00  0.00     0.038 A 
HETATM    5  C   UNL     1      26.911  42.608  52.082  1.00  0.00     0.049 A 
HETATM    6  C   UNL     1      26.565  43.707  52.877  1.00  0.00     0.069 A 
ENDROOT
BRANCH   2   7
HETATM    7  N   UNL     1      23.936  45.299  50.827  1.00  0.00    -0.320 N 
HETATM    8  C   UNL     1      23.826  46.047  49.679  1.00  0.00     0.256 C 
HETATM    9  O   UNL     1      22.883  45.861  48.913  1.00  0.00    -0.267 OA
HETATM   10  H   UNL     1      23.036  44.954  51.150  1.00  0.00     0.169 HD
BRANCH   8  11
HETATM   11  C   UNL     1      24.701  47.247  49.513  1.00  0.00     0.032 A 
HETATM   12  C   UNL     1      26.084  47.080  49.650  1.00  0.00     0.019 A 
HETATM   13  C   UNL     1      26.963  48.118  49.323  1.00  0.00     0.024 A 
HETATM   14  C   UNL     1      26.478  49.356  48.895  1.00  0.00     0.005 A 
HETATM   15  C   UNL     1      25.099  49.510  48.728  1.00  0.00     0.024 A 
HETATM   16  C   UNL     1      24.213  48.474  49.049  1.00  0.00     0.019 A 
BRANCH  14  17
HETATM   17  N   UNL     1      27.359  50.324  48.404  1.00  0.00    -0.303 NA
HETATM   18  H   UNL     1      27.542  51.081  49.056  1.00  0.00     0.124 HD
HETATM   19  H   UNL     1      27.125  50.663  47.476  1.00  0.00     0.124 HD
ENDBRANCH  14  17
ENDBRANCH   8  11
ENDBRANCH   2   7
BRANCH   1  20
HETATM   20  O   UNL     1      25.253  45.740  53.114  1.00  0.00    -0.348 OA
BRANCH  20  21
HETATM   21  C   UNL     1      26.273  46.756  53.092  1.00  0.00     0.171 C 
HETATM   22  C   UNL     1      26.303  47.504  54.413  1.00  0.00     0.034 C 
ENDBRANCH  20  21
ENDBRANCH   1  20
BRANCH   6  23
HETATM   23  C   UNL     1      27.191  43.779  54.223  1.00  0.00     0.252 C 
HETATM   24  N   UNL     1      28.524  44.068  54.285  1.00  0.00    -0.366 N 
HETATM   25  H   UNL     1      29.081  44.236  53.456  1.00  0.00     0.159 HD
HETATM   26  H   UNL     1      28.951  44.174  55.195  1.00  0.00     0.159 HD
HETATM   27  O   UNL     1      26.527  43.633  55.243  1.00  0.00    -0.268 OA
ENDBRANCH   6  23
BRANCH   4  28
HETATM   28  N   UNL     1      26.633  41.171  50.201  1.00  0.00    -0.323 N 
HETATM   29  C   UNL     1      27.187  41.012  48.945  1.00  0.00     0.256 C 
HETATM   30  O   UNL     1      27.646  41.906  48.246  1.00  0.00    -0.267 OA
HETATM   31  H   UNL     1      26.420  40.328  50.717  1.00  0.00     0.169 HD
BRANCH  29  32
HETATM   32  C   UNL     1      27.221  39.602  48.432  1.00  0.00     0.032 A 
HETATM   33  C   UNL     1      27.707  39.273  47.159  1.00  0.00     0.019 A 
HETATM   34  C   UNL     1      27.733  37.937  46.737  1.00  0.00     0.024 A 
HETATM   35  C   UNL     1      27.263  36.914  47.561  1.00  0.00     0.005 A 
HETATM   36  C   UNL     1      26.862  37.238  48.860  1.00  0.00     0.024 A 
HETATM   37  C   UNL     1      26.822  38.570  49.288  1.00  0.00     0.019 A 
BRANCH  35  38
HETATM   38  N   UNL     1      27.423  35.578  47.184  1.00  0.00    -0.303 NA
HETATM   39  H   UNL     1      27.227  34.910  47.925  1.00  0.00     0.124 HD
HETATM   40  H   UNL     1      28.302  35.382  46.715  1.00  0.00     0.124 HD
ENDBRANCH  35  38
ENDBRANCH  29  32
ENDBRANCH   4  28
TORSDOF 9
ENDMDL
