MODEL 1
REMARK VINA RESULT:      -9.0      0.000      0.000
REMARK  3 active torsions:
REMARK  status: ('A' for Active; 'I' for Inactive)
REMARK    1  A    between atoms: C_2  and  N_3 
REMARK       I    between atoms: N_3  and  C_4 
REMARK    2  A    between atoms: C_4  and  C_5 
REMARK    3  A    between atoms: C_5  and  C_6 
ROOT
HETATM    1  C   UNL     1      26.431  46.287  54.307  1.00  0.00     0.286 C 
HETATM    2  N   UNL     1      27.449  45.356  53.633  1.00  0.00    -0.056 N 
HETATM    3  H   UNL     1      26.950  44.664  53.046  1.00  0.00     0.278 HD
HETATM    4  H   UNL     1      28.014  45.901  52.965  1.00  0.00     0.278 HD
HETATM    5  C   UNL     1      28.324  44.697  54.656  1.00  0.00     0.209 C 
HETATM    6  C   UNL     1      29.122  45.809  55.370  1.00  0.00     0.115 C 
HETATM    7  N   UNL     1      28.238  46.827  55.937  1.00  0.00    -0.353 N 
HETATM    8  C   UNL     1      27.100  47.269  55.295  1.00  0.00     0.249 C 
HETATM    9  O   UNL     1      26.612  48.357  55.582  1.00  0.00    -0.271 OA
HETATM   10  C   UNL     1      29.238  43.677  53.998  1.00  0.00     0.035 C 
HETATM   11  C   UNL     1      30.162  43.060  55.049  1.00  0.00     0.002 C 
HETATM   12  C   UNL     1      30.954  44.126  55.807  1.00  0.00     0.002 C 
HETATM   13  C   UNL     1      30.053  45.203  56.420  1.00  0.00     0.027 C 
HETATM   14  H   UNL     1      28.648  47.536  56.545  1.00  0.00     0.163 HD
ENDROOT
BRANCH   1  15
HETATM   15  C   UNL     1      25.625  47.020  53.244  1.00  0.00     0.146 C 
BRANCH  15  16
HETATM   16  C   UNL     1      25.212  46.009  52.216  1.00  0.00     0.224 C 
HETATM   17  N   UNL     1      25.086  46.260  50.891  1.00  0.00    -0.327 N 
HETATM   18  H   UNL     1      24.641  45.474  50.419  1.00  0.00     0.169 HD
HETATM   19  O   UNL     1      24.737  44.946  52.643  1.00  0.00    -0.273 OA
BRANCH  17  20
HETATM   20  C   UNL     1      25.347  47.366  50.064  1.00  0.00     0.034 A 
HETATM   21  C   UNL     1      26.610  47.848  49.718  1.00  0.00     0.032 A 
HETATM   22  C   UNL     1      26.737  48.978  48.901  1.00  0.00     0.044 A 
HETATM   23  C   UNL     1      25.604  49.619  48.420  1.00  0.00     0.116 A 
HETATM   24  C   UNL     1      24.341  49.141  48.726  1.00  0.00     0.044 A 
HETATM   25  F   UNL     1      25.733  50.702  47.644  1.00  0.00    -0.206 F 
HETATM   26  C   UNL     1      24.215  48.009  49.534  1.00  0.00     0.032 A 
ENDBRANCH  17  20
ENDBRANCH  15  16
ENDBRANCH   1  15
TORSDOF 3
ENDMDL
MODEL 2
REMARK VINA RESULT:      -8.4      4.392      7.367
REMARK  3 active torsions:
REMARK  status: ('A' for Active; 'I' for Inactive)
REMARK    1  A    between atoms: C_2  and  N_3 
REMARK       I    between atoms: N_3  and  C_4 
REMARK    2  A    between atoms: C_4  and  C_5 
REMARK    3  A    between atoms: C_5  and  C_6 
ROOT
HETATM    1  C   UNL     1      26.526  43.834  52.834  1.00  0.00     0.286 C 
HETATM    2  N   UNL     1      27.231  42.471  52.810  1.00  0.00    -0.056 N 
HETATM    3  H   UNL     1      28.151  42.548  53.279  1.00  0.00     0.278 HD
HETATM    4  H   UNL     1      26.700  41.805  53.391  1.00  0.00     0.278 HD
HETATM    5  C   UNL     1      27.359  41.965  51.404  1.00  0.00     0.209 C 
HETATM    6  C   UNL     1      25.932  41.752  50.855  1.00  0.00     0.115 C 
HETATM    7  N   UNL     1      25.128  42.969  50.959  1.00  0.00    -0.353 N 
HETATM    8  C   UNL     1      25.198  43.820  52.043  1.00  0.00     0.249 C 
HETATM    9  O   UNL     1      24.271  44.585  52.289  1.00  0.00    -0.271 OA
HETATM   10  C   UNL     1      28.176  40.683  51.372  1.00  0.00     0.035 C 
HETATM   11  C   UNL     1      28.244  40.154  49.939  1.00  0.00     0.002 C 
HETATM   12  C   UNL     1      26.852  39.955  49.338  1.00  0.00     0.002 C 
HETATM   13  C   UNL     1      25.988  41.217  49.425  1.00  0.00     0.027 C 
HETATM   14  H   UNL     1      24.215  42.983  50.506  1.00  0.00     0.163 HD
ENDROOT
BRANCH   1  15
HETATM   15  C   UNL     1      26.317  44.277  54.276  1.00  0.00     0.146 C 
BRANCH  15  16
HETATM   16  C   UNL     1      26.919  45.642  54.418  1.00  0.00     0.224 C 
HETATM   17  N   UNL     1      28.129  45.900  54.969  1.00  0.00    -0.327 N 
HETATM   18  H   UNL     1      28.254  46.902  55.105  1.00  0.00     0.169 HD
HETATM   19  O   UNL     1      26.161  46.606  54.230  1.00  0.00    -0.273 OA
BRANCH  17  20
HETATM   20  C   UNL     1      29.183  45.110  55.458  1.00  0.00     0.034 A 
HETATM   21  C   UNL     1      29.714  43.979  54.837  1.00  0.00     0.032 A 
HETATM   22  C   UNL     1      30.753  43.261  55.441  1.00  0.00     0.044 A 
HETATM   23  C   UNL     1      31.270  43.678  56.659  1.00  0.00     0.116 A 
HETATM   24  C   UNL     1      30.779  44.815  57.280  1.00  0.00     0.044 A 
HETATM   25  F   UNL     1      32.259  42.983  57.234  1.00  0.00    -0.206 F 
HETATM   26  C   UNL     1      29.748  45.535  56.674  1.00  0.00     0.032 A 
ENDBRANCH  17  20
ENDBRANCH  15  16
ENDBRANCH   1  15
TORSDOF 3
ENDMDL
MODEL 3
REMARK VINA RESULT:      -8.2      3.816      4.954
REMARK  3 active torsions:
REMARK  status: ('A' for Active; 'I' for Inactive)
REMARK    1  A    between atoms: C_2  and  N_3 
REMARK       I    between atoms: N_3  and  C_4 
REMARK    2  A    between atoms: C_4  and  C_5 
REMARK    3  A    between atoms: C_5  and  C_6 
ROOT
HETATM    1  C   UNL     1      26.990  44.692  53.482  1.00  0.00     0.286 C 
HETATM    2  N   UNL     1      28.405  44.103  53.385  1.00  0.00    -0.056 N 
HETATM    3  H   UNL     1      28.367  43.190  52.900  1.00  0.00     0.278 HD
HETATM    4  H   UNL     1      28.978  44.699  52.769  1.00  0.00     0.278 HD
HETATM    5  C   UNL     1      29.027  43.992  54.744  1.00  0.00     0.209 C 
HETATM    6  C   UNL     1      29.164  45.422  55.311  1.00  0.00     0.115 C 
HETATM    7  N   UNL     1      27.880  46.122  55.320  1.00  0.00    -0.353 N 
HETATM    8  C   UNL     1      26.956  46.002  54.303  1.00  0.00     0.249 C 
HETATM    9  O   UNL     1      26.101  46.865  54.139  1.00  0.00    -0.271 OA
HETATM   10  C   UNL     1      30.371  43.286  54.659  1.00  0.00     0.035 C 
HETATM   11  C   UNL     1      31.014  43.235  56.045  1.00  0.00     0.002 C 
HETATM   12  C   UNL     1      31.143  44.628  56.665  1.00  0.00     0.002 C 
HETATM   13  C   UNL     1      29.811  45.384  56.696  1.00  0.00     0.027 C 
HETATM   14  H   UNL     1      27.826  47.023  55.796  1.00  0.00     0.163 HD
ENDROOT
BRANCH   1  15
HETATM   15  C   UNL     1      26.422  44.890  52.084  1.00  0.00     0.146 C 
BRANCH  15  16
HETATM   16  C   UNL     1      25.255  43.960  51.937  1.00  0.00     0.224 C 
HETATM   17  N   UNL     1      25.303  42.747  51.337  1.00  0.00    -0.327 N 
HETATM   18  H   UNL     1      24.364  42.372  51.213  1.00  0.00     0.169 HD
HETATM   19  O   UNL     1      24.134  44.434  52.176  1.00  0.00    -0.273 OA
BRANCH  17  20
HETATM   20  C   UNL     1      26.325  41.955  50.787  1.00  0.00     0.034 A 
HETATM   21  C   UNL     1      27.208  41.146  51.503  1.00  0.00     0.032 A 
HETATM   22  C   UNL     1      28.203  40.420  50.837  1.00  0.00     0.044 A 
HETATM   23  C   UNL     1      28.309  40.492  49.455  1.00  0.00     0.116 A 
HETATM   24  C   UNL     1      27.425  41.265  48.720  1.00  0.00     0.044 A 
HETATM   25  F   UNL     1      29.266  39.800  48.825  1.00  0.00    -0.206 F 
HETATM   26  C   UNL     1      26.428  41.983  49.385  1.00  0.00     0.032 A 
ENDBRANCH  17  20
ENDBRANCH  15  16
ENDBRANCH   1  15
TORSDOF 3
ENDMDL
MODEL 4
REMARK VINA RESULT:      -8.1      4.309      7.777
REMARK  3 active torsions:
REMARK  status: ('A' for Active; 'I' for Inactive)
REMARK    1  A    between atoms: C_2  and  N_3 
REMARK       I    between atoms: N_3  and  C_4 
REMARK    2  A    between atoms: C_4  and  C_5 
REMARK    3  A    between atoms: C_5  and  C_6 
ROOT
HETATM    1  C   UNL     1      27.100  43.191  52.809  1.00  0.00     0.286 C 
HETATM    2  N   UNL     1      26.475  42.093  51.936  1.00  0.00    -0.056 N 
HETATM    3  H   UNL     1      27.216  41.452  51.601  1.00  0.00     0.278 HD
HETATM    4  H   UNL     1      25.867  41.501  52.521  1.00  0.00     0.278 HD
HETATM    5  C   UNL     1      25.700  42.695  50.803  1.00  0.00     0.209 C 
HETATM    6  C   UNL     1      24.540  43.510  51.415  1.00  0.00     0.115 C 
HETATM    7  N   UNL     1      25.026  44.503  52.371  1.00  0.00    -0.353 N 
HETATM    8  C   UNL     1      26.066  44.253  53.244  1.00  0.00     0.249 C 
HETATM    9  O   UNL     1      26.191  44.922  54.264  1.00  0.00    -0.271 OA
HETATM   10  C   UNL     1      25.196  41.608  49.866  1.00  0.00     0.035 C 
HETATM   11  C   UNL     1      24.359  42.238  48.752  1.00  0.00     0.002 C 
HETATM   12  C   UNL     1      23.213  43.084  49.308  1.00  0.00     0.002 C 
HETATM   13  C   UNL     1      23.693  44.140  50.308  1.00  0.00     0.027 C 
HETATM   14  H   UNL     1      24.362  45.187  52.735  1.00  0.00     0.163 HD
ENDROOT
BRANCH   1  15
HETATM   15  C   UNL     1      27.794  42.558  54.007  1.00  0.00     0.146 C 
BRANCH  15  16
HETATM   16  C   UNL     1      29.232  42.350  53.636  1.00  0.00     0.224 C 
HETATM   17  N   UNL     1      30.286  42.901  54.283  1.00  0.00    -0.327 N 
HETATM   18  H   UNL     1      31.146  42.751  53.759  1.00  0.00     0.169 HD
HETATM   19  O   UNL     1      29.450  41.828  52.532  1.00  0.00    -0.273 OA
BRANCH  17  20
HETATM   20  C   UNL     1      30.437  43.684  55.440  1.00  0.00     0.034 A 
HETATM   21  C   UNL     1      31.214  43.359  56.553  1.00  0.00     0.032 A 
HETATM   22  C   UNL     1      31.263  44.217  57.658  1.00  0.00     0.044 A 
HETATM   23  C   UNL     1      30.547  45.405  57.648  1.00  0.00     0.116 A 
HETATM   24  C   UNL     1      29.793  45.764  56.543  1.00  0.00     0.044 A 
HETATM   25  F   UNL     1      30.594  46.218  58.711  1.00  0.00    -0.206 F 
HETATM   26  C   UNL     1      29.750  44.911  55.438  1.00  0.00     0.032 A 
ENDBRANCH  17  20
ENDBRANCH  15  16
ENDBRANCH   1  15
TORSDOF 3
ENDMDL
MODEL 5
REMARK VINA RESULT:      -8.0      2.434      3.911
REMARK  3 active torsions:
REMARK  status: ('A' for Active; 'I' for Inactive)
REMARK    1  A    between atoms: C_2  and  N_3 
REMARK       I    between atoms: N_3  and  C_4 
REMARK    2  A    between atoms: C_4  and  C_5 
REMARK    3  A    between atoms: C_5  and  C_6 
ROOT
HETATM    1  C   UNL     1      26.596  43.992  50.124  1.00  0.00     0.286 C 
HETATM    2  N   UNL     1      26.606  44.377  51.610  1.00  0.00    -0.056 N 
HETATM    3  H   UNL     1      26.445  45.394  51.706  1.00  0.00     0.278 HD
HETATM    4  H   UNL     1      25.797  43.942  52.078  1.00  0.00     0.278 HD
HETATM    5  C   UNL     1      27.888  43.949  52.259  1.00  0.00     0.209 C 
HETATM    6  C   UNL     1      27.955  42.408  52.184  1.00  0.00     0.115 C 
HETATM    7  N   UNL     1      27.817  41.930  50.809  1.00  0.00    -0.353 N 
HETATM    8  C   UNL     1      26.951  42.504  49.901  1.00  0.00     0.249 C 
HETATM    9  O   UNL     1      26.572  41.871  48.923  1.00  0.00    -0.271 OA
HETATM   10  C   UNL     1      27.952  44.449  53.693  1.00  0.00     0.035 C 
HETATM   11  C   UNL     1      29.238  43.953  54.354  1.00  0.00     0.002 C 
HETATM   12  C   UNL     1      29.367  42.431  54.278  1.00  0.00     0.002 C 
HETATM   13  C   UNL     1      29.236  41.900  52.847  1.00  0.00     0.027 C 
HETATM   14  H   UNL     1      27.981  40.940  50.625  1.00  0.00     0.163 HD
ENDROOT
BRANCH   1  15
HETATM   15  C   UNL     1      25.246  44.344  49.514  1.00  0.00     0.146 C 
BRANCH  15  16
HETATM   16  C   UNL     1      24.456  45.072  50.561  1.00  0.00     0.224 C 
HETATM   17  N   UNL     1      24.429  46.417  50.713  1.00  0.00    -0.327 N 
HETATM   18  H   UNL     1      23.959  46.669  51.581  1.00  0.00     0.169 HD
HETATM   19  O   UNL     1      23.986  44.384  51.479  1.00  0.00    -0.273 OA
BRANCH  17  20
HETATM   20  C   UNL     1      24.965  47.505  50.003  1.00  0.00     0.034 A 
HETATM   21  C   UNL     1      24.237  48.440  49.266  1.00  0.00     0.032 A 
HETATM   22  C   UNL     1      24.894  49.468  48.580  1.00  0.00     0.044 A 
HETATM   23  C   UNL     1      26.277  49.571  48.640  1.00  0.00     0.116 A 
HETATM   24  C   UNL     1      27.018  48.673  49.390  1.00  0.00     0.044 A 
HETATM   25  F   UNL     1      26.899  50.554  47.977  1.00  0.00    -0.206 F 
HETATM   26  C   UNL     1      26.362  47.652  50.079  1.00  0.00     0.032 A 
ENDBRANCH  17  20
ENDBRANCH  15  16
ENDBRANCH   1  15
TORSDOF 3
ENDMDL
MODEL 6
REMARK VINA RESULT:      -8.0      4.686      9.003
REMARK  3 active torsions:
REMARK  status: ('A' for Active; 'I' for Inactive)
REMARK    1  A    between atoms: C_2  and  N_3 
REMARK       I    between atoms: N_3  and  C_4 
REMARK    2  A    between atoms: C_4  and  C_5 
REMARK    3  A    between atoms: C_5  and  C_6 
ROOT
HETATM    1  C   UNL     1      22.225  48.522  48.473  1.00  0.00     0.286 C 
HETATM    2  N   UNL     1      21.229  48.704  49.627  1.00  0.00    -0.056 N 
HETATM    3  H   UNL     1      20.857  47.782  49.914  1.00  0.00     0.278 HD
HETATM    4  H   UNL     1      21.733  49.049  50.458  1.00  0.00     0.278 HD
HETATM    5  C   UNL     1      20.135  49.653  49.237  1.00  0.00     0.209 C 
HETATM    6  C   UNL     1      20.786  51.028  48.971  1.00  0.00     0.115 C 
HETATM    7  N   UNL     1      21.851  50.935  47.974  1.00  0.00    -0.353 N 
HETATM    8  C   UNL     1      22.729  49.872  47.915  1.00  0.00     0.249 C 
HETATM    9  O   UNL     1      23.813  49.996  47.356  1.00  0.00    -0.271 OA
HETATM   10  C   UNL     1      19.080  49.728  50.329  1.00  0.00     0.035 C 
HETATM   11  C   UNL     1      18.006  50.743  49.938  1.00  0.00     0.002 C 
HETATM   12  C   UNL     1      18.605  52.117  49.633  1.00  0.00     0.002 C 
HETATM   13  C   UNL     1      19.720  52.053  48.584  1.00  0.00     0.027 C 
HETATM   14  H   UNL     1      22.259  51.802  47.623  1.00  0.00     0.163 HD
ENDROOT
BRANCH   1  15
HETATM   15  C   UNL     1      23.378  47.637  48.929  1.00  0.00     0.146 C 
BRANCH  15  16
HETATM   16  C   UNL     1      22.918  46.213  48.829  1.00  0.00     0.224 C 
HETATM   17  N   UNL     1      23.598  45.145  49.312  1.00  0.00    -0.327 N 
HETATM   18  H   UNL     1      23.176  44.277  48.987  1.00  0.00     0.169 HD
HETATM   19  O   UNL     1      21.975  45.987  48.057  1.00  0.00    -0.273 OA
BRANCH  17  20
HETATM   20  C   UNL     1      24.770  44.978  50.068  1.00  0.00     0.034 A 
HETATM   21  C   UNL     1      26.055  44.793  49.556  1.00  0.00     0.032 A 
HETATM   22  C   UNL     1      27.142  44.613  50.419  1.00  0.00     0.044 A 
HETATM   23  C   UNL     1      26.950  44.630  51.793  1.00  0.00     0.116 A 
HETATM   24  C   UNL     1      25.688  44.842  52.325  1.00  0.00     0.044 A 
HETATM   25  F   UNL     1      27.993  44.451  52.612  1.00  0.00    -0.206 F 
HETATM   26  C   UNL     1      24.605  45.028  51.464  1.00  0.00     0.032 A 
ENDBRANCH  17  20
ENDBRANCH  15  16
ENDBRANCH   1  15
TORSDOF 3
ENDMDL
MODEL 7
REMARK VINA RESULT:      -7.8      2.394      3.180
REMARK  3 active torsions:
REMARK  status: ('A' for Active; 'I' for Inactive)
REMARK    1  A    between atoms: C_2  and  N_3 
REMARK       I    between atoms: N_3  and  C_4 
REMARK    2  A    between atoms: C_4  and  C_5 
REMARK    3  A    between atoms: C_5  and  C_6 
ROOT
HETATM    1  C   UNL     1      26.287  42.806  52.267  1.00  0.00     0.286 C 
HETATM    2  N   UNL     1      27.821  42.766  52.228  1.00  0.00    -0.056 N 
HETATM    3  H   UNL     1      28.135  41.839  51.894  1.00  0.00     0.278 HD
HETATM    4  H   UNL     1      28.158  43.427  51.513  1.00  0.00     0.278 HD
HETATM    5  C   UNL     1      28.394  43.101  53.573  1.00  0.00     0.209 C 
HETATM    6  C   UNL     1      27.981  44.551  53.906  1.00  0.00     0.115 C 
HETATM    7  N   UNL     1      26.531  44.727  53.837  1.00  0.00    -0.353 N 
HETATM    8  C   UNL     1      25.750  44.123  52.874  1.00  0.00     0.249 C 
HETATM    9  O   UNL     1      24.645  44.578  52.599  1.00  0.00    -0.271 OA
HETATM   10  C   UNL     1      29.904  42.929  53.566  1.00  0.00     0.035 C 
HETATM   11  C   UNL     1      30.474  43.331  54.927  1.00  0.00     0.002 C 
HETATM   12  C   UNL     1      30.066  44.753  55.317  1.00  0.00     0.002 C 
HETATM   13  C   UNL     1      28.550  44.965  55.263  1.00  0.00     0.027 C 
HETATM   14  H   UNL     1      26.137  45.608  54.168  1.00  0.00     0.163 HD
ENDROOT
BRANCH   1  15
HETATM   15  C   UNL     1      25.733  42.564  50.870  1.00  0.00     0.146 C 
BRANCH  15  16
HETATM   16  C   UNL     1      26.748  43.072  49.890  1.00  0.00     0.224 C 
HETATM   17  N   UNL     1      26.736  44.307  49.334  1.00  0.00    -0.327 N 
HETATM   18  H   UNL     1      27.423  44.368  48.584  1.00  0.00     0.169 HD
HETATM   19  O   UNL     1      27.508  42.229  49.390  1.00  0.00    -0.273 OA
BRANCH  17  20
HETATM   20  C   UNL     1      25.950  45.460  49.500  1.00  0.00     0.034 A 
HETATM   21  C   UNL     1      26.403  46.702  49.946  1.00  0.00     0.032 A 
HETATM   22  C   UNL     1      25.510  47.771  50.093  1.00  0.00     0.044 A 
HETATM   23  C   UNL     1      24.168  47.604  49.783  1.00  0.00     0.116 A 
HETATM   24  C   UNL     1      23.701  46.389  49.310  1.00  0.00     0.044 A 
HETATM   25  F   UNL     1      23.320  48.628  49.931  1.00  0.00    -0.206 F 
HETATM   26  C   UNL     1      24.593  45.325  49.157  1.00  0.00     0.032 A 
ENDBRANCH  17  20
ENDBRANCH  15  16
ENDBRANCH   1  15
TORSDOF 3
ENDMDL
MODEL 8
REMARK VINA RESULT:      -7.6      5.122      8.131
REMARK  3 active torsions:
REMARK  status: ('A' for Active; 'I' for Inactive)
REMARK    1  A    between atoms: C_2  and  N_3 
REMARK       I    between atoms: N_3  and  C_4 
REMARK    2  A    between atoms: C_4  and  C_5 
REMARK    3  A    between atoms: C_5  and  C_6 
ROOT
HETATM    1  C   UNL     1      27.637  42.448  51.640  1.00  0.00     0.286 C 
HETATM    2  N   UNL     1      27.157  42.633  50.194  1.00  0.00    -0.056 N 
HETATM    3  H   UNL     1      26.603  43.505  50.122  1.00  0.00     0.278 HD
HETATM    4  H   UNL     1      27.972  42.795  49.584  1.00  0.00     0.278 HD
HETATM    5  C   UNL     1      26.380  41.436  49.736  1.00  0.00     0.209 C 
HETATM    6  C   UNL     1      27.340  40.226  49.749  1.00  0.00     0.115 C 
HETATM    7  N   UNL     1      27.959  40.045  51.061  1.00  0.00    -0.353 N 
HETATM    8  C   UNL     1      28.370  41.102  51.846  1.00  0.00     0.249 C 
HETATM    9  O   UNL     1      29.211  40.932  52.722  1.00  0.00    -0.271 OA
HETATM   10  C   UNL     1      25.791  41.678  48.355  1.00  0.00     0.035 C 
HETATM   11  C   UNL     1      25.054  40.424  47.884  1.00  0.00     0.002 C 
HETATM   12  C   UNL     1      25.956  39.189  47.908  1.00  0.00     0.002 C 
HETATM   13  C   UNL     1      26.614  38.968  49.273  1.00  0.00     0.027 C 
HETATM   14  H   UNL     1      28.507  39.199  51.222  1.00  0.00     0.163 HD
ENDROOT
BRANCH   1  15
HETATM   15  C   UNL     1      28.508  43.629  52.045  1.00  0.00     0.146 C 
BRANCH  15  16
HETATM   16  C   UNL     1      27.680  44.518  52.924  1.00  0.00     0.224 C 
HETATM   17  N   UNL     1      27.978  44.830  54.208  1.00  0.00    -0.327 N 
HETATM   18  H   UNL     1      27.195  45.310  54.650  1.00  0.00     0.169 HD
HETATM   19  O   UNL     1      26.540  44.792  52.520  1.00  0.00    -0.273 OA
BRANCH  17  20
HETATM   20  C   UNL     1      29.062  44.570  55.064  1.00  0.00     0.034 A 
HETATM   21  C   UNL     1      29.888  43.447  55.020  1.00  0.00     0.032 A 
HETATM   22  C   UNL     1      30.925  43.294  55.949  1.00  0.00     0.044 A 
HETATM   23  C   UNL     1      31.144  44.266  56.913  1.00  0.00     0.116 A 
HETATM   24  C   UNL     1      30.355  45.404  56.958  1.00  0.00     0.044 A 
HETATM   25  F   UNL     1      32.133  44.110  57.802  1.00  0.00    -0.206 F 
HETATM   26  C   UNL     1      29.326  45.560  56.027  1.00  0.00     0.032 A 
ENDBRANCH  17  20
ENDBRANCH  15  16
ENDBRANCH   1  15
TORSDOF 3
ENDMDL
MODEL 9
REMARK VINA RESULT:      -7.5      3.873      5.041
REMARK  3 active torsions:
REMARK  status: ('A' for Active; 'I' for Inactive)
REMARK    1  A    between atoms: C_2  and  N_3 
REMARK       I    between atoms: N_3  and  C_4 
REMARK    2  A    between atoms: C_4  and  C_5 
REMARK    3  A    between atoms: C_5  and  C_6 
ROOT
HETATM    1  C   UNL     1      27.204  41.593  51.112  1.00  0.00     0.286 C 
HETATM    2  N   UNL     1      26.850  42.368  52.389  1.00  0.00    -0.056 N 
HETATM    3  H   UNL     1      26.062  43.011  52.197  1.00  0.00     0.278 HD
HETATM    4  H   UNL     1      26.482  41.711  53.093  1.00  0.00     0.278 HD
HETATM    5  C   UNL     1      28.050  43.095  52.917  1.00  0.00     0.209 C 
HETATM    6  C   UNL     1      29.104  42.034  53.302  1.00  0.00     0.115 C 
HETATM    7  N   UNL     1      29.413  41.150  52.179  1.00  0.00    -0.353 N 
HETATM    8  C   UNL     1      28.454  40.702  51.295  1.00  0.00     0.249 C 
HETATM    9  O   UNL     1      28.650  39.690  50.630  1.00  0.00    -0.271 OA
HETATM   10  C   UNL     1      27.666  43.968  54.101  1.00  0.00     0.035 C 
HETATM   11  C   UNL     1      28.913  44.653  54.661  1.00  0.00     0.002 C 
HETATM   12  C   UNL     1      30.001  43.644  55.029  1.00  0.00     0.002 C 
HETATM   13  C   UNL     1      30.353  42.709  53.868  1.00  0.00     0.027 C 
HETATM   14  H   UNL     1      30.192  40.499  52.279  1.00  0.00     0.163 HD
ENDROOT
BRANCH   1  15
HETATM   15  C   UNL     1      25.999  40.784  50.654  1.00  0.00     0.146 C 
BRANCH  15  16
HETATM   16  C   UNL     1      25.607  41.288  49.298  1.00  0.00     0.224 C 
HETATM   17  N   UNL     1      25.346  42.583  49.000  1.00  0.00    -0.327 N 
HETATM   18  H   UNL     1      24.946  42.662  48.066  1.00  0.00     0.169 HD
HETATM   19  O   UNL     1      25.280  40.433  48.460  1.00  0.00    -0.273 OA
BRANCH  17  20
HETATM   20  C   UNL     1      25.423  43.796  49.705  1.00  0.00     0.034 A 
HETATM   21  C   UNL     1      26.414  44.767  49.558  1.00  0.00     0.032 A 
HETATM   22  C   UNL     1      26.392  45.927  50.341  1.00  0.00     0.044 A 
HETATM   23  C   UNL     1      25.373  46.125  51.262  1.00  0.00     0.116 A 
HETATM   24  C   UNL     1      24.362  45.189  51.405  1.00  0.00     0.044 A 
HETATM   25  F   UNL     1      25.361  47.233  52.012  1.00  0.00    -0.206 F 
HETATM   26  C   UNL     1      24.381  44.035  50.618  1.00  0.00     0.032 A 
ENDBRANCH  17  20
ENDBRANCH  15  16
ENDBRANCH   1  15
TORSDOF 3
ENDMDL
MODEL 10
REMARK VINA RESULT:      -7.5     12.020     14.065
REMARK  3 active torsions:
REMARK  status: ('A' for Active; 'I' for Inactive)
REMARK    1  A    between atoms: C_2  and  N_3 
REMARK       I    between atoms: N_3  and  C_4 
REMARK    2  A    between atoms: C_4  and  C_5 
REMARK    3  A    between atoms: C_5  and  C_6 
ROOT
HETATM    1  C   UNL     1      27.617  50.883  39.367  1.00  0.00     0.286 C 
HETATM    2  N   UNL     1      28.065  49.635  38.593  1.00  0.00    -0.056 N 
HETATM    3  H   UNL     1      27.992  49.813  37.576  1.00  0.00     0.278 HD
HETATM    4  H   UNL     1      29.070  49.477  38.757  1.00  0.00     0.278 HD
HETATM    5  C   UNL     1      27.264  48.438  39.011  1.00  0.00     0.209 C 
HETATM    6  C   UNL     1      27.558  48.181  40.505  1.00  0.00     0.115 C 
HETATM    7  N   UNL     1      27.290  49.367  41.318  1.00  0.00    -0.353 N 
HETATM    8  C   UNL     1      27.585  50.646  40.894  1.00  0.00     0.249 C 
HETATM    9  O   UNL     1      27.718  51.552  41.709  1.00  0.00    -0.271 OA
HETATM   10  C   UNL     1      27.615  47.235  38.150  1.00  0.00     0.035 C 
HETATM   11  C   UNL     1      26.833  46.013  38.631  1.00  0.00     0.002 C 
HETATM   12  C   UNL     1      27.067  45.735  40.117  1.00  0.00     0.002 C 
HETATM   13  C   UNL     1      26.785  46.957  40.995  1.00  0.00     0.027 C 
HETATM   14  H   UNL     1      27.321  49.271  42.333  1.00  0.00     0.163 HD
ENDROOT
BRANCH   1  15
HETATM   15  C   UNL     1      28.511  52.060  39.000  1.00  0.00     0.146 C 
BRANCH  15  16
HETATM   16  C   UNL     1      29.786  51.499  38.443  1.00  0.00     0.224 C 
HETATM   17  N   UNL     1      30.899  51.238  39.169  1.00  0.00    -0.327 N 
HETATM   18  H   UNL     1      31.682  51.019  38.556  1.00  0.00     0.169 HD
HETATM   19  O   UNL     1      29.896  51.494  37.207  1.00  0.00    -0.273 OA
BRANCH  17  20
HETATM   20  C   UNL     1      31.222  51.285  40.536  1.00  0.00     0.034 A 
HETATM   21  C   UNL     1      31.173  52.416  41.350  1.00  0.00     0.032 A 
HETATM   22  C   UNL     1      31.545  52.336  42.698  1.00  0.00     0.044 A 
HETATM   23  C   UNL     1      31.954  51.125  43.235  1.00  0.00     0.116 A 
HETATM   24  C   UNL     1      31.982  49.981  42.454  1.00  0.00     0.044 A 
HETATM   25  F   UNL     1      32.314  51.057  44.523  1.00  0.00    -0.206 F 
HETATM   26  C   UNL     1      31.604  50.060  41.112  1.00  0.00     0.032 A 
ENDBRANCH  17  20
ENDBRANCH  15  16
ENDBRANCH   1  15
TORSDOF 3
ENDMDL
