MODEL 1
REMARK VINA RESULT:      -9.0      0.000      0.000
REMARK  5 active torsions:
REMARK  status: ('A' for Active; 'I' for Inactive)
REMARK    1  A    between atoms: C_2  and  C_3 
REMARK    2  A    between atoms: C_8  and  C_9 
REMARK       I    between atoms: C_9  and  N_10 
REMARK    3  A    between atoms: N_10  and  C_11 
REMARK    4  A    between atoms: C_11  and  C_12 
REMARK    5  A    between atoms: C_19  and  C_20 
ROOT
HETATM    1  C   UNL     1      25.666  44.300  53.511  1.00  0.00     0.118 C 
HETATM    2  N   UNL     1      25.455  45.717  53.248  1.00  0.00    -0.366 N 
HETATM    3  C   UNL     1      25.359  46.224  52.002  1.00  0.00     0.123 A 
HETATM    4  N   UNL     1      25.449  45.433  50.892  1.00  0.00    -0.240 N 
HETATM    5  N   UNL     1      25.258  46.089  49.735  1.00  0.00    -0.165 NA
HETATM    6  C   UNL     1      25.106  47.376  50.121  1.00  0.00     0.148 A 
HETATM    7  C   UNL     1      25.161  47.497  51.538  1.00  0.00     0.088 A 
HETATM    8  C   UNL     1      25.652  43.999  50.932  1.00  0.00     0.221 C 
HETATM    9  C   UNL     1      25.236  43.442  52.306  1.00  0.00     0.066 C 
HETATM   10  H   UNL     1      25.435  46.324  54.067  1.00  0.00     0.161 HD
ENDROOT
BRANCH   6  11
HETATM   11  C   UNL     1      24.889  48.471  49.163  1.00  0.00     0.272 C 
HETATM   12  N   UNL     1      23.581  48.598  48.753  1.00  0.00    -0.353 N 
HETATM   13  H   UNL     1      22.903  48.029  49.256  1.00  0.00     0.162 HD
HETATM   14  O   UNL     1      25.795  49.206  48.779  1.00  0.00    -0.266 OA
BRANCH  12  15
HETATM   15  C   UNL     1      23.115  49.747  48.006  1.00  0.00     0.155 C 
BRANCH  15  16
HETATM   16  C   UNL     1      21.606  49.936  48.147  1.00  0.00     0.139 C 
HETATM   17  O   UNL     1      21.097  49.151  49.244  1.00  0.00    -0.384 OA
HETATM   18  C   UNL     1      20.093  49.921  49.925  1.00  0.00     0.168 C 
HETATM   19  C   UNL     1      19.873  51.183  49.116  1.00  0.00     0.029 C 
HETATM   20  C   UNL     1      21.214  51.372  48.452  1.00  0.00     0.035 C 
ENDBRANCH  15  16
ENDBRANCH  12  15
ENDBRANCH   6  11
BRANCH   8  21
HETATM   21  C   UNL     1      27.072  43.661  50.538  1.00  0.00     0.409 C 
HETATM   22  F   UNL     1      27.994  44.499  51.049  1.00  0.00    -0.169 F 
HETATM   23  F   UNL     1      27.389  42.413  50.968  1.00  0.00    -0.169 F 
HETATM   24  F   UNL     1      27.237  43.651  49.195  1.00  0.00    -0.169 F 
ENDBRANCH   8  21
BRANCH   1  25
HETATM   25  C   UNL     1      27.059  44.009  54.047  1.00  0.00    -0.034 A 
HETATM   26  C   UNL     1      27.681  42.757  53.925  1.00  0.00     0.011 A 
HETATM   27  C   UNL     1      28.972  42.540  54.417  1.00  0.00     0.026 A 
HETATM   28  C   UNL     1      29.676  43.577  55.031  1.00  0.00     0.055 A 
HETATM   29  C   UNL     1      29.080  44.834  55.154  1.00  0.00     0.056 A 
HETATM   30 CL   UNL     1      31.268  43.241  55.608  1.00  0.00    -0.083 Cl
HETATM   31  C   UNL     1      27.784  45.045  54.666  1.00  0.00     0.034 A 
HETATM   32 CL   UNL     1      29.887  46.175  55.887  1.00  0.00    -0.083 Cl
ENDBRANCH   1  25
TORSDOF 5
ENDMDL
MODEL 2
REMARK VINA RESULT:      -8.4      5.801     10.326
REMARK  5 active torsions:
REMARK  status: ('A' for Active; 'I' for Inactive)
REMARK    1  A    between atoms: C_2  and  C_3 
REMARK    2  A    between atoms: C_8  and  C_9 
REMARK       I    between atoms: C_9  and  N_10 
REMARK    3  A    between atoms: N_10  and  C_11 
REMARK    4  A    between atoms: C_11  and  C_12 
REMARK    5  A    between atoms: C_19  and  C_20 
ROOT
HETATM    1  C   UNL     1      20.065  50.483  47.132  1.00  0.00     0.118 C 
HETATM    2  N   UNL     1      21.393  50.654  47.707  1.00  0.00    -0.366 N 
HETATM    3  C   UNL     1      22.062  49.655  48.317  1.00  0.00     0.123 A 
HETATM    4  N   UNL     1      21.536  48.400  48.433  1.00  0.00    -0.240 N 
HETATM    5  N   UNL     1      22.365  47.508  49.001  1.00  0.00    -0.165 NA
HETATM    6  C   UNL     1      23.450  48.248  49.327  1.00  0.00     0.148 A 
HETATM    7  C   UNL     1      23.295  49.599  48.909  1.00  0.00     0.088 A 
HETATM    8  C   UNL     1      20.234  48.016  47.926  1.00  0.00     0.221 C 
HETATM    9  C   UNL     1      19.779  48.999  46.831  1.00  0.00     0.066 C 
HETATM   10  H   UNL     1      21.775  51.599  47.670  1.00  0.00     0.161 HD
ENDROOT
BRANCH   6  11
HETATM   11  C   UNL     1      24.625  47.675  50.003  1.00  0.00     0.272 C 
HETATM   12  N   UNL     1      24.382  46.461  50.604  1.00  0.00    -0.353 N 
HETATM   13  H   UNL     1      23.480  46.038  50.395  1.00  0.00     0.162 HD
HETATM   14  O   UNL     1      25.720  48.231  50.014  1.00  0.00    -0.266 OA
BRANCH  12  15
HETATM   15  C   UNL     1      25.448  45.625  51.112  1.00  0.00     0.155 C 
BRANCH  15  16
HETATM   16  C   UNL     1      25.481  45.618  52.639  1.00  0.00     0.139 C 
HETATM   17  O   UNL     1      26.354  44.576  53.122  1.00  0.00    -0.384 OA
HETATM   18  C   UNL     1      27.074  45.079  54.259  1.00  0.00     0.168 C 
HETATM   19  C   UNL     1      26.508  46.448  54.576  1.00  0.00     0.029 C 
HETATM   20  C   UNL     1      26.022  46.911  53.226  1.00  0.00     0.035 C 
ENDBRANCH  15  16
ENDBRANCH  12  15
ENDBRANCH   6  11
BRANCH   8  21
HETATM   21  C   UNL     1      19.251  47.869  49.066  1.00  0.00     0.409 C 
HETATM   22  F   UNL     1      17.991  48.219  48.747  1.00  0.00    -0.169 F 
HETATM   23  F   UNL     1      19.211  46.577  49.480  1.00  0.00    -0.169 F 
HETATM   24  F   UNL     1      19.614  48.600  50.144  1.00  0.00    -0.169 F 
ENDBRANCH   8  21
BRANCH   1  25
HETATM   25  C   UNL     1      18.988  51.199  47.932  1.00  0.00    -0.034 A 
HETATM   26  C   UNL     1      19.192  51.672  49.238  1.00  0.00     0.011 A 
HETATM   27  C   UNL     1      18.177  52.341  49.930  1.00  0.00     0.026 A 
HETATM   28  C   UNL     1      16.940  52.564  49.326  1.00  0.00     0.055 A 
HETATM   29  C   UNL     1      16.719  52.111  48.024  1.00  0.00     0.056 A 
HETATM   30 CL   UNL     1      15.737  53.404  50.236  1.00  0.00    -0.083 Cl
HETATM   31  C   UNL     1      17.735  51.435  47.336  1.00  0.00     0.034 A 
HETATM   32 CL   UNL     1      15.222  52.359  47.197  1.00  0.00    -0.083 Cl
ENDBRANCH   1  25
TORSDOF 5
ENDMDL
MODEL 3
REMARK VINA RESULT:      -8.3     11.923     13.133
REMARK  5 active torsions:
REMARK  status: ('A' for Active; 'I' for Inactive)
REMARK    1  A    between atoms: C_2  and  C_3 
REMARK    2  A    between atoms: C_8  and  C_9 
REMARK       I    between atoms: C_9  and  N_10 
REMARK    3  A    between atoms: N_10  and  C_11 
REMARK    4  A    between atoms: C_11  and  C_12 
REMARK    5  A    between atoms: C_19  and  C_20 
ROOT
HETATM    1  C   UNL     1      31.210  49.427  39.629  1.00  0.00     0.118 C 
HETATM    2  N   UNL     1      30.047  48.640  40.019  1.00  0.00    -0.366 N 
HETATM    3  C   UNL     1      28.782  49.011  39.732  1.00  0.00     0.123 A 
HETATM    4  N   UNL     1      28.504  50.159  39.046  1.00  0.00    -0.240 N 
HETATM    5  N   UNL     1      27.199  50.337  38.782  1.00  0.00    -0.165 NA
HETATM    6  C   UNL     1      26.606  49.284  39.391  1.00  0.00     0.148 A 
HETATM    7  C   UNL     1      27.571  48.430  39.995  1.00  0.00     0.088 A 
HETATM    8  C   UNL     1      29.514  51.079  38.563  1.00  0.00     0.221 C 
HETATM    9  C   UNL     1      30.875  50.367  38.455  1.00  0.00     0.066 C 
HETATM   10  H   UNL     1      30.239  47.806  40.573  1.00  0.00     0.161 HD
ENDROOT
BRANCH   6  11
HETATM   11  C   UNL     1      25.149  49.080  39.379  1.00  0.00     0.272 C 
HETATM   12  N   UNL     1      24.455  50.077  38.732  1.00  0.00    -0.353 N 
HETATM   13  H   UNL     1      25.022  50.751  38.221  1.00  0.00     0.162 HD
HETATM   14  O   UNL     1      24.612  48.102  39.892  1.00  0.00    -0.266 OA
BRANCH  12  15
HETATM   15  C   UNL     1      23.051  49.951  38.403  1.00  0.00     0.155 C 
BRANCH  15  16
HETATM   16  C   UNL     1      22.175  50.777  39.342  1.00  0.00     0.139 C 
HETATM   17  O   UNL     1      21.010  51.267  38.647  1.00  0.00    -0.384 OA
HETATM   18  C   UNL     1      19.885  51.188  39.538  1.00  0.00     0.168 C 
HETATM   19  C   UNL     1      20.416  50.765  40.892  1.00  0.00     0.029 C 
HETATM   20  C   UNL     1      21.645  49.974  40.518  1.00  0.00     0.035 C 
ENDBRANCH  15  16
ENDBRANCH  12  15
ENDBRANCH   6  11
BRANCH   8  21
HETATM   21  C   UNL     1      29.538  52.324  39.421  1.00  0.00     0.409 C 
HETATM   22  F   UNL     1      29.082  52.132  40.673  1.00  0.00    -0.169 F 
HETATM   23  F   UNL     1      30.810  52.787  39.530  1.00  0.00    -0.169 F 
HETATM   24  F   UNL     1      28.816  53.329  38.877  1.00  0.00    -0.169 F 
ENDBRANCH   8  21
BRANCH   1  25
HETATM   25  C   UNL     1      31.885  50.093  40.818  1.00  0.00    -0.034 A 
HETATM   26  C   UNL     1      31.301  50.159  42.092  1.00  0.00     0.011 A 
HETATM   27  C   UNL     1      31.968  50.766  43.161  1.00  0.00     0.026 A 
HETATM   28  C   UNL     1      33.240  51.310  42.982  1.00  0.00     0.055 A 
HETATM   29  C   UNL     1      33.844  51.245  41.725  1.00  0.00     0.056 A 
HETATM   30 CL   UNL     1      34.007  52.036  44.347  1.00  0.00    -0.083 Cl
HETATM   31  C   UNL     1      33.171  50.643  40.655  1.00  0.00     0.034 A 
HETATM   32 CL   UNL     1      35.423  51.880  41.421  1.00  0.00    -0.083 Cl
ENDBRANCH   1  25
TORSDOF 5
ENDMDL
MODEL 4
REMARK VINA RESULT:      -8.3     12.643     15.277
REMARK  5 active torsions:
REMARK  status: ('A' for Active; 'I' for Inactive)
REMARK    1  A    between atoms: C_2  and  C_3 
REMARK    2  A    between atoms: C_8  and  C_9 
REMARK       I    between atoms: C_9  and  N_10 
REMARK    3  A    between atoms: N_10  and  C_11 
REMARK    4  A    between atoms: C_11  and  C_12 
REMARK    5  A    between atoms: C_19  and  C_20 
ROOT
HETATM    1  C   UNL     1      29.637  52.050  41.412  1.00  0.00     0.118 C 
HETATM    2  N   UNL     1      30.628  51.726  42.431  1.00  0.00    -0.366 N 
HETATM    3  C   UNL     1      31.953  51.697  42.181  1.00  0.00     0.123 A 
HETATM    4  N   UNL     1      32.461  51.978  40.945  1.00  0.00    -0.240 N 
HETATM    5  N   UNL     1      33.803  51.976  40.891  1.00  0.00    -0.165 NA
HETATM    6  C   UNL     1      34.170  51.608  42.140  1.00  0.00     0.148 A 
HETATM    7  C   UNL     1      33.033  51.427  42.977  1.00  0.00     0.088 A 
HETATM    8  C   UNL     1      31.651  52.329  39.796  1.00  0.00     0.221 C 
HETATM    9  C   UNL     1      30.273  52.843  40.254  1.00  0.00     0.066 C 
HETATM   10  H   UNL     1      30.257  51.467  43.345  1.00  0.00     0.161 HD
ENDROOT
BRANCH   6  11
HETATM   11  C   UNL     1      35.578  51.452  42.539  1.00  0.00     0.272 C 
HETATM   12  N   UNL     1      36.150  52.609  43.016  1.00  0.00    -0.353 N 
HETATM   13  H   UNL     1      35.511  53.386  43.173  1.00  0.00     0.162 HD
HETATM   14  O   UNL     1      36.174  50.382  42.461  1.00  0.00    -0.266 OA
BRANCH  12  15
HETATM   15  C   UNL     1      37.438  52.617  43.677  1.00  0.00     0.155 C 
BRANCH  15  16
HETATM   16  C   UNL     1      37.331  53.124  45.113  1.00  0.00     0.139 C 
HETATM   17  O   UNL     1      38.152  52.327  45.993  1.00  0.00    -0.384 OA
HETATM   18  C   UNL     1      38.767  53.202  46.953  1.00  0.00     0.168 C 
HETATM   19  C   UNL     1      38.179  54.582  46.741  1.00  0.00     0.029 C 
HETATM   20  C   UNL     1      37.820  54.553  45.277  1.00  0.00     0.035 C 
ENDBRANCH  15  16
ENDBRANCH  12  15
ENDBRANCH   6  11
BRANCH   8  21
HETATM   21  C   UNL     1      31.583  51.167  38.830  1.00  0.00     0.409 C 
HETATM   22  F   UNL     1      31.564  49.962  39.429  1.00  0.00    -0.169 F 
HETATM   23  F   UNL     1      30.456  51.254  38.078  1.00  0.00    -0.169 F 
HETATM   24  F   UNL     1      32.618  51.170  37.960  1.00  0.00    -0.169 F 
ENDBRANCH   8  21
BRANCH   1  25
HETATM   25  C   UNL     1      28.817  50.841  40.993  1.00  0.00    -0.034 A 
HETATM   26  C   UNL     1      28.917  49.591  41.626  1.00  0.00     0.011 A 
HETATM   27  C   UNL     1      28.129  48.511  41.218  1.00  0.00     0.026 A 
HETATM   28  C   UNL     1      27.212  48.659  40.176  1.00  0.00     0.055 A 
HETATM   29  C   UNL     1      27.089  49.896  39.540  1.00  0.00     0.056 A 
HETATM   30 CL   UNL     1      26.267  47.285  39.731  1.00  0.00    -0.083 Cl
HETATM   31  C   UNL     1      27.885  50.974  39.947  1.00  0.00     0.034 A 
HETATM   32 CL   UNL     1      25.969  50.169  38.253  1.00  0.00    -0.083 Cl
ENDBRANCH   1  25
TORSDOF 5
ENDMDL
MODEL 5
REMARK VINA RESULT:      -8.2      6.520     10.816
REMARK  5 active torsions:
REMARK  status: ('A' for Active; 'I' for Inactive)
REMARK    1  A    between atoms: C_2  and  C_3 
REMARK    2  A    between atoms: C_8  and  C_9 
REMARK       I    between atoms: C_9  and  N_10 
REMARK    3  A    between atoms: N_10  and  C_11 
REMARK    4  A    between atoms: C_11  and  C_12 
REMARK    5  A    between atoms: C_19  and  C_20 
ROOT
HETATM    1  C   UNL     1      18.380  49.899  50.301  1.00  0.00     0.118 C 
HETATM    2  N   UNL     1      18.538  48.552  49.768  1.00  0.00    -0.366 N 
HETATM    3  C   UNL     1      19.684  48.115  49.208  1.00  0.00     0.123 A 
HETATM    4  N   UNL     1      20.787  48.915  49.105  1.00  0.00    -0.240 N 
HETATM    5  N   UNL     1      21.864  48.298  48.589  1.00  0.00    -0.165 NA
HETATM    6  C   UNL     1      21.406  47.063  48.284  1.00  0.00     0.148 A 
HETATM    7  C   UNL     1      20.042  46.913  48.661  1.00  0.00     0.088 A 
HETATM    8  C   UNL     1      20.843  50.284  49.576  1.00  0.00     0.221 C 
HETATM    9  C   UNL     1      19.747  50.529  50.629  1.00  0.00     0.066 C 
HETATM   10  H   UNL     1      17.706  47.962  49.796  1.00  0.00     0.161 HD
ENDROOT
BRANCH   6  11
HETATM   11  C   UNL     1      22.256  46.034  47.664  1.00  0.00     0.272 C 
HETATM   12  N   UNL     1      22.939  45.257  48.572  1.00  0.00    -0.353 N 
HETATM   13  H   UNL     1      22.674  45.383  49.548  1.00  0.00     0.162 HD
HETATM   14  O   UNL     1      22.332  45.882  46.448  1.00  0.00    -0.266 OA
BRANCH  12  15
HETATM   15  C   UNL     1      23.635  44.049  48.185  1.00  0.00     0.155 C 
BRANCH  15  16
HETATM   16  C   UNL     1      24.828  43.769  49.096  1.00  0.00     0.139 C 
HETATM   17  O   UNL     1      25.566  44.983  49.350  1.00  0.00    -0.384 OA
HETATM   18  C   UNL     1      25.988  44.976  50.724  1.00  0.00     0.168 C 
HETATM   19  C   UNL     1      25.616  43.625  51.299  1.00  0.00     0.029 C 
HETATM   20  C   UNL     1      24.422  43.241  50.461  1.00  0.00     0.035 C 
ENDBRANCH  15  16
ENDBRANCH  12  15
ENDBRANCH   6  11
BRANCH   8  21
HETATM   21  C   UNL     1      20.797  51.241  48.407  1.00  0.00     0.409 C 
HETATM   22  F   UNL     1      20.110  52.372  48.655  1.00  0.00    -0.169 F 
HETATM   23  F   UNL     1      22.056  51.610  48.058  1.00  0.00    -0.169 F 
HETATM   24  F   UNL     1      20.253  50.671  47.307  1.00  0.00    -0.169 F 
ENDBRANCH   8  21
BRANCH   1  25
HETATM   25  C   UNL     1      17.461  50.758  49.445  1.00  0.00    -0.034 A 
HETATM   26  C   UNL     1      17.005  50.363  48.178  1.00  0.00     0.011 A 
HETATM   27  C   UNL     1      16.146  51.178  47.434  1.00  0.00     0.026 A 
HETATM   28  C   UNL     1      15.714  52.401  47.947  1.00  0.00     0.055 A 
HETATM   29  C   UNL     1      16.147  52.808  49.210  1.00  0.00     0.056 A 
HETATM   30 CL   UNL     1      14.648  53.352  46.977  1.00  0.00    -0.083 Cl
HETATM   31  C   UNL     1      17.013  51.993  49.950  1.00  0.00     0.034 A 
HETATM   32 CL   UNL     1      15.647  54.301  49.926  1.00  0.00    -0.083 Cl
ENDBRANCH   1  25
TORSDOF 5
ENDMDL
MODEL 6
REMARK VINA RESULT:      -8.2     13.124     15.355
REMARK  5 active torsions:
REMARK  status: ('A' for Active; 'I' for Inactive)
REMARK    1  A    between atoms: C_2  and  C_3 
REMARK    2  A    between atoms: C_8  and  C_9 
REMARK       I    between atoms: C_9  and  N_10 
REMARK    3  A    between atoms: N_10  and  C_11 
REMARK    4  A    between atoms: C_11  and  C_12 
REMARK    5  A    between atoms: C_19  and  C_20 
ROOT
HETATM    1  C   UNL     1      32.019  48.574  42.133  1.00  0.00     0.118 C 
HETATM    2  N   UNL     1      33.364  48.681  41.583  1.00  0.00    -0.366 N 
HETATM    3  C   UNL     1      34.038  49.848  41.516  1.00  0.00     0.123 A 
HETATM    4  N   UNL     1      33.499  51.019  41.968  1.00  0.00    -0.240 N 
HETATM    5  N   UNL     1      34.334  52.070  41.893  1.00  0.00    -0.165 NA
HETATM    6  C   UNL     1      35.436  51.558  41.300  1.00  0.00     0.148 A 
HETATM    7  C   UNL     1      35.285  50.165  41.051  1.00  0.00     0.088 A 
HETATM    8  C   UNL     1      32.180  51.131  42.555  1.00  0.00     0.221 C 
HETATM    9  C   UNL     1      31.707  49.758  43.068  1.00  0.00     0.066 C 
HETATM   10  H   UNL     1      33.757  47.823  41.198  1.00  0.00     0.161 HD
ENDROOT
BRANCH   6  11
HETATM   11  C   UNL     1      36.622  52.373  40.994  1.00  0.00     0.272 C 
HETATM   12  N   UNL     1      36.607  53.617  41.585  1.00  0.00    -0.353 N 
HETATM   13  H   UNL     1      35.868  53.773  42.267  1.00  0.00     0.162 HD
HETATM   14  O   UNL     1      37.540  51.969  40.286  1.00  0.00    -0.266 OA
BRANCH  12  15
HETATM   15  C   UNL     1      37.774  54.473  41.608  1.00  0.00     0.155 C 
BRANCH  15  16
HETATM   16  C   UNL     1      38.355  54.597  43.014  1.00  0.00     0.139 C 
HETATM   17  O   UNL     1      38.620  55.979  43.333  1.00  0.00    -0.384 OA
HETATM   18  C   UNL     1      38.269  56.201  44.708  1.00  0.00     0.168 C 
HETATM   19  C   UNL     1      37.908  54.854  45.300  1.00  0.00     0.029 C 
HETATM   20  C   UNL     1      37.409  54.100  44.094  1.00  0.00     0.035 C 
ENDBRANCH  15  16
ENDBRANCH  12  15
ENDBRANCH   6  11
BRANCH   8  21
HETATM   21  C   UNL     1      31.227  51.783  41.578  1.00  0.00     0.409 C 
HETATM   22  F   UNL     1      31.401  51.388  40.303  1.00  0.00    -0.169 F 
HETATM   23  F   UNL     1      29.945  51.488  41.914  1.00  0.00    -0.169 F 
HETATM   24  F   UNL     1      31.322  53.132  41.601  1.00  0.00    -0.169 F 
ENDBRANCH   8  21
BRANCH   1  25
HETATM   25  C   UNL     1      30.973  48.303  41.063  1.00  0.00    -0.034 A 
HETATM   26  C   UNL     1      31.301  47.931  39.749  1.00  0.00     0.011 A 
HETATM   27  C   UNL     1      30.304  47.675  38.802  1.00  0.00     0.026 A 
HETATM   28  C   UNL     1      28.957  47.771  39.152  1.00  0.00     0.055 A 
HETATM   29  C   UNL     1      28.609  48.130  40.456  1.00  0.00     0.056 A 
HETATM   30 CL   UNL     1      27.781  47.432  37.934  1.00  0.00    -0.083 Cl
HETATM   31  C   UNL     1      29.610  48.393  41.400  1.00  0.00     0.034 A 
HETATM   32 CL   UNL     1      26.965  48.257  40.975  1.00  0.00    -0.083 Cl
ENDBRANCH   1  25
TORSDOF 5
ENDMDL
MODEL 7
REMARK VINA RESULT:      -8.1      2.389      3.282
REMARK  5 active torsions:
REMARK  status: ('A' for Active; 'I' for Inactive)
REMARK    1  A    between atoms: C_2  and  C_3 
REMARK    2  A    between atoms: C_8  and  C_9 
REMARK       I    between atoms: C_9  and  N_10 
REMARK    3  A    between atoms: N_10  and  C_11 
REMARK    4  A    between atoms: C_11  and  C_12 
REMARK    5  A    between atoms: C_19  and  C_20 
ROOT
HETATM    1  C   UNL     1      26.368  43.024  51.410  1.00  0.00     0.118 C 
HETATM    2  N   UNL     1      24.919  42.879  51.387  1.00  0.00    -0.366 N 
HETATM    3  C   UNL     1      24.124  43.591  50.563  1.00  0.00     0.123 A 
HETATM    4  N   UNL     1      24.631  44.502  49.681  1.00  0.00    -0.240 N 
HETATM    5  N   UNL     1      23.707  45.067  48.885  1.00  0.00    -0.165 NA
HETATM    6  C   UNL     1      22.543  44.540  49.328  1.00  0.00     0.148 A 
HETATM    7  C   UNL     1      22.768  43.608  50.379  1.00  0.00     0.088 A 
HETATM    8  C   UNL     1      26.043  44.794  49.539  1.00  0.00     0.221 C 
HETATM    9  C   UNL     1      26.885  43.629  50.091  1.00  0.00     0.066 C 
HETATM   10  H   UNL     1      24.525  42.237  52.075  1.00  0.00     0.161 HD
ENDROOT
BRANCH   6  11
HETATM   11  C   UNL     1      21.239  44.900  48.747  1.00  0.00     0.272 C 
HETATM   12  N   UNL     1      20.823  46.173  49.065  1.00  0.00    -0.353 N 
HETATM   13  H   UNL     1      21.512  46.759  49.533  1.00  0.00     0.162 HD
HETATM   14  O   UNL     1      20.596  44.133  48.036  1.00  0.00    -0.266 OA
BRANCH  12  15
HETATM   15  C   UNL     1      19.697  46.802  48.409  1.00  0.00     0.155 C 
BRANCH  15  16
HETATM   16  C   UNL     1      19.653  48.304  48.682  1.00  0.00     0.139 C 
HETATM   17  O   UNL     1      20.722  48.688  49.571  1.00  0.00    -0.384 OA
HETATM   18  C   UNL     1      21.243  49.953  49.131  1.00  0.00     0.168 C 
HETATM   19  C   UNL     1      20.354  50.436  48.004  1.00  0.00     0.029 C 
HETATM   20  C   UNL     1      19.841  49.140  47.427  1.00  0.00     0.035 C 
ENDBRANCH  15  16
ENDBRANCH  12  15
ENDBRANCH   6  11
BRANCH   8  21
HETATM   21  C   UNL     1      26.365  46.134  50.162  1.00  0.00     0.409 C 
HETATM   22  F   UNL     1      27.522  46.151  50.850  1.00  0.00    -0.169 F 
HETATM   23  F   UNL     1      26.463  47.083  49.196  1.00  0.00    -0.169 F 
HETATM   24  F   UNL     1      25.389  46.549  51.002  1.00  0.00    -0.169 F 
ENDBRANCH   8  21
BRANCH   1  25
HETATM   25  C   UNL     1      26.864  43.709  52.674  1.00  0.00    -0.034 A 
HETATM   26  C   UNL     1      26.084  44.614  53.410  1.00  0.00     0.011 A 
HETATM   27  C   UNL     1      26.576  45.207  54.577  1.00  0.00     0.026 A 
HETATM   28  C   UNL     1      27.855  44.898  55.042  1.00  0.00     0.055 A 
HETATM   29  C   UNL     1      28.643  43.992  54.330  1.00  0.00     0.056 A 
HETATM   30 CL   UNL     1      28.393  45.661  56.493  1.00  0.00    -0.083 Cl
HETATM   31  C   UNL     1      28.151  43.405  53.157  1.00  0.00     0.034 A 
HETATM   32 CL   UNL     1      30.232  43.542  54.843  1.00  0.00    -0.083 Cl
ENDBRANCH   1  25
TORSDOF 5
ENDMDL
MODEL 8
REMARK VINA RESULT:      -8.0     12.784     15.554
REMARK  5 active torsions:
REMARK  status: ('A' for Active; 'I' for Inactive)
REMARK    1  A    between atoms: C_2  and  C_3 
REMARK    2  A    between atoms: C_8  and  C_9 
REMARK       I    between atoms: C_9  and  N_10 
REMARK    3  A    between atoms: N_10  and  C_11 
REMARK    4  A    between atoms: C_11  and  C_12 
REMARK    5  A    between atoms: C_19  and  C_20 
ROOT
HETATM    1  C   UNL     1      28.378  51.827  40.527  1.00  0.00     0.118 C 
HETATM    2  N   UNL     1      29.182  51.405  41.667  1.00  0.00    -0.366 N 
HETATM    3  C   UNL     1      30.526  51.512  41.695  1.00  0.00     0.123 A 
HETATM    4  N   UNL     1      31.231  52.032  40.647  1.00  0.00    -0.240 N 
HETATM    5  N   UNL     1      32.552  52.133  40.871  1.00  0.00    -0.165 NA
HETATM    6  C   UNL     1      32.708  51.586  42.099  1.00  0.00     0.148 A 
HETATM    7  C   UNL     1      31.456  51.188  42.646  1.00  0.00     0.088 A 
HETATM    8  C   UNL     1      30.625  52.513  39.422  1.00  0.00     0.221 C 
HETATM    9  C   UNL     1      29.140  52.845  39.658  1.00  0.00     0.066 C 
HETATM   10  H   UNL     1      28.672  50.971  42.436  1.00  0.00     0.161 HD
ENDROOT
BRANCH   6  11
HETATM   11  C   UNL     1      34.021  51.464  42.750  1.00  0.00     0.272 C 
HETATM   12  N   UNL     1      34.891  50.624  42.093  1.00  0.00    -0.353 N 
HETATM   13  H   UNL     1      34.586  50.303  41.176  1.00  0.00     0.162 HD
HETATM   14  O   UNL     1      34.309  52.070  43.779  1.00  0.00    -0.266 OA
BRANCH  12  15
HETATM   15  C   UNL     1      36.296  50.551  42.430  1.00  0.00     0.155 C 
BRANCH  15  16
HETATM   16  C   UNL     1      37.181  50.903  41.237  1.00  0.00     0.139 C 
HETATM   17  O   UNL     1      36.577  50.450  40.008  1.00  0.00    -0.384 OA
HETATM   18  C   UNL     1      36.804  51.447  38.998  1.00  0.00     0.168 C 
HETATM   19  C   UNL     1      37.717  52.495  39.602  1.00  0.00     0.029 C 
HETATM   20  C   UNL     1      37.383  52.400  41.069  1.00  0.00     0.035 C 
ENDBRANCH  15  16
ENDBRANCH  12  15
ENDBRANCH   6  11
BRANCH   8  21
HETATM   21  C   UNL     1      30.863  51.529  38.299  1.00  0.00     0.409 C 
HETATM   22  F   UNL     1      30.707  50.242  38.660  1.00  0.00    -0.169 F 
HETATM   23  F   UNL     1      29.993  51.764  37.283  1.00  0.00    -0.169 F 
HETATM   24  F   UNL     1      32.102  51.653  37.770  1.00  0.00    -0.169 F 
ENDBRANCH   8  21
BRANCH   1  25
HETATM   25  C   UNL     1      27.781  50.650  39.771  1.00  0.00    -0.034 A 
HETATM   26  C   UNL     1      27.161  50.780  38.518  1.00  0.00     0.011 A 
HETATM   27  C   UNL     1      26.642  49.666  37.851  1.00  0.00     0.026 A 
HETATM   28  C   UNL     1      26.743  48.395  38.415  1.00  0.00     0.055 A 
HETATM   29  C   UNL     1      27.366  48.241  39.656  1.00  0.00     0.056 A 
HETATM   30 CL   UNL     1      26.088  47.065  37.532  1.00  0.00    -0.083 Cl
HETATM   31  C   UNL     1      27.879  49.360  40.325  1.00  0.00     0.034 A 
HETATM   32 CL   UNL     1      27.547  46.700  40.418  1.00  0.00    -0.083 Cl
ENDBRANCH   1  25
TORSDOF 5
ENDMDL
MODEL 9
REMARK VINA RESULT:      -8.0     11.757     13.065
REMARK  5 active torsions:
REMARK  status: ('A' for Active; 'I' for Inactive)
REMARK    1  A    between atoms: C_2  and  C_3 
REMARK    2  A    between atoms: C_8  and  C_9 
REMARK       I    between atoms: C_9  and  N_10 
REMARK    3  A    between atoms: N_10  and  C_11 
REMARK    4  A    between atoms: C_11  and  C_12 
REMARK    5  A    between atoms: C_19  and  C_20 
ROOT
HETATM    1  C   UNL     1      31.083  50.904  42.087  1.00  0.00     0.118 C 
HETATM    2  N   UNL     1      29.988  51.511  41.341  1.00  0.00    -0.366 N 
HETATM    3  C   UNL     1      29.107  50.791  40.617  1.00  0.00     0.123 A 
HETATM    4  N   UNL     1      29.181  49.429  40.537  1.00  0.00    -0.240 N 
HETATM    5  N   UNL     1      28.182  48.867  39.835  1.00  0.00    -0.165 NA
HETATM    6  C   UNL     1      27.474  49.928  39.386  1.00  0.00     0.148 A 
HETATM    7  C   UNL     1      28.025  51.151  39.860  1.00  0.00     0.088 A 
HETATM    8  C   UNL     1      30.188  48.631  41.207  1.00  0.00     0.221 C 
HETATM    9  C   UNL     1      30.796  49.419  42.382  1.00  0.00     0.066 C 
HETATM   10  H   UNL     1      29.953  52.530  41.353  1.00  0.00     0.161 HD
ENDROOT
BRANCH   6  11
HETATM   11  C   UNL     1      26.280  49.782  38.539  1.00  0.00     0.272 C 
HETATM   12  N   UNL     1      25.097  49.770  39.245  1.00  0.00    -0.353 N 
HETATM   13  H   UNL     1      25.171  50.004  40.233  1.00  0.00     0.162 HD
HETATM   14  O   UNL     1      26.341  49.692  37.316  1.00  0.00    -0.266 OA
BRANCH  12  15
HETATM   15  C   UNL     1      23.809  49.874  38.594  1.00  0.00     0.155 C 
BRANCH  15  16
HETATM   16  C   UNL     1      22.748  50.443  39.532  1.00  0.00     0.139 C 
HETATM   17  O   UNL     1      21.785  51.224  38.793  1.00  0.00    -0.384 OA
HETATM   18  C   UNL     1      20.481  50.972  39.343  1.00  0.00     0.168 C 
HETATM   19  C   UNL     1      20.674  50.108  40.572  1.00  0.00     0.029 C 
HETATM   20  C   UNL     1      21.945  49.367  40.243  1.00  0.00     0.035 C 
ENDBRANCH  15  16
ENDBRANCH  12  15
ENDBRANCH   6  11
BRANCH   8  21
HETATM   21  C   UNL     1      31.207  48.132  40.208  1.00  0.00     0.409 C 
HETATM   22  F   UNL     1      32.435  47.947  40.729  1.00  0.00    -0.169 F 
HETATM   23  F   UNL     1      30.810  46.938  39.697  1.00  0.00    -0.169 F 
HETATM   24  F   UNL     1      31.337  48.969  39.154  1.00  0.00    -0.169 F 
ENDBRANCH   8  21
BRANCH   1  25
HETATM   25  C   UNL     1      32.440  51.188  41.463  1.00  0.00    -0.034 A 
HETATM   26  C   UNL     1      32.597  51.908  40.268  1.00  0.00     0.011 A 
HETATM   27  C   UNL     1      33.867  52.162  39.740  1.00  0.00     0.026 A 
HETATM   28  C   UNL     1      35.009  51.712  40.402  1.00  0.00     0.055 A 
HETATM   29  C   UNL     1      34.876  51.003  41.598  1.00  0.00     0.056 A 
HETATM   30 CL   UNL     1      36.544  52.068  39.697  1.00  0.00    -0.083 Cl
HETATM   31  C   UNL     1      33.603  50.744  42.120  1.00  0.00     0.034 A 
HETATM   32 CL   UNL     1      36.239  50.423  42.489  1.00  0.00    -0.083 Cl
ENDBRANCH   1  25
TORSDOF 5
ENDMDL
MODEL 10
REMARK VINA RESULT:      -8.0     13.394     15.466
REMARK  5 active torsions:
REMARK  status: ('A' for Active; 'I' for Inactive)
REMARK    1  A    between atoms: C_2  and  C_3 
REMARK    2  A    between atoms: C_8  and  C_9 
REMARK       I    between atoms: C_9  and  N_10 
REMARK    3  A    between atoms: N_10  and  C_11 
REMARK    4  A    between atoms: C_11  and  C_12 
REMARK    5  A    between atoms: C_19  and  C_20 
ROOT
HETATM    1  C   UNL     1      31.916  48.503  42.093  1.00  0.00     0.118 C 
HETATM    2  N   UNL     1      33.265  48.633  41.556  1.00  0.00    -0.366 N 
HETATM    3  C   UNL     1      33.928  49.807  41.520  1.00  0.00     0.123 A 
HETATM    4  N   UNL     1      33.376  50.963  41.993  1.00  0.00    -0.240 N 
HETATM    5  N   UNL     1      34.202  52.022  41.948  1.00  0.00    -0.165 NA
HETATM    6  C   UNL     1      35.313  51.533  41.352  1.00  0.00     0.148 A 
HETATM    7  C   UNL     1      35.177  50.145  41.072  1.00  0.00     0.088 A 
HETATM    8  C   UNL     1      32.051  51.051  42.572  1.00  0.00     0.221 C 
HETATM    9  C   UNL     1      31.586  49.663  43.051  1.00  0.00     0.066 C 
HETATM   10  H   UNL     1      33.668  47.787  41.155  1.00  0.00     0.161 HD
ENDROOT
BRANCH   6  11
HETATM   11  C   UNL     1      36.494  52.365  41.074  1.00  0.00     0.272 C 
HETATM   12  N   UNL     1      36.368  53.148  39.948  1.00  0.00    -0.353 N 
HETATM   13  H   UNL     1      35.441  53.171  39.528  1.00  0.00     0.162 HD
HETATM   14  O   UNL     1      37.490  52.364  41.792  1.00  0.00    -0.266 OA
BRANCH  12  15
HETATM   15  C   UNL     1      37.307  54.203  39.633  1.00  0.00     0.155 C 
BRANCH  15  16
HETATM   16  C   UNL     1      36.666  55.583  39.758  1.00  0.00     0.139 C 
HETATM   17  O   UNL     1      37.362  56.542  38.934  1.00  0.00    -0.384 OA
HETATM   18  C   UNL     1      36.391  57.417  38.339  1.00  0.00     0.168 C 
HETATM   19  C   UNL     1      35.046  57.069  38.943  1.00  0.00     0.029 C 
HETATM   20  C   UNL     1      35.221  55.611  39.289  1.00  0.00     0.035 C 
ENDBRANCH  15  16
ENDBRANCH  12  15
ENDBRANCH   6  11
BRANCH   8  21
HETATM   21  C   UNL     1      31.100  51.715  41.602  1.00  0.00     0.409 C 
HETATM   22  F   UNL     1      31.148  53.060  41.627  1.00  0.00    -0.169 F 
HETATM   23  F   UNL     1      31.391  51.332  40.332  1.00  0.00    -0.169 F 
HETATM   24  F   UNL     1      29.816  51.353  41.821  1.00  0.00    -0.169 F 
ENDBRANCH   8  21
BRANCH   1  25
HETATM   25  C   UNL     1      30.881  48.246  41.008  1.00  0.00    -0.034 A 
HETATM   26  C   UNL     1      31.222  47.974  39.674  1.00  0.00     0.011 A 
HETATM   27  C   UNL     1      30.236  47.726  38.713  1.00  0.00     0.026 A 
HETATM   28  C   UNL     1      28.887  47.732  39.069  1.00  0.00     0.055 A 
HETATM   29  C   UNL     1      28.527  47.991  40.393  1.00  0.00     0.056 A 
HETATM   30 CL   UNL     1      27.725  47.411  37.834  1.00  0.00    -0.083 Cl
HETATM   31  C   UNL     1      29.516  48.245  41.351  1.00  0.00     0.034 A 
HETATM   32 CL   UNL     1      26.881  48.002  40.921  1.00  0.00    -0.083 Cl
ENDBRANCH   1  25
TORSDOF 5
ENDMDL
