MODEL 1
REMARK VINA RESULT:      -8.6      0.000      0.000
REMARK  9 active torsions:
REMARK  status: ('A' for Active; 'I' for Inactive)
REMARK    1  A    between atoms: C_5  and  O_6 
REMARK    2  A    between atoms: O_6  and  C_7 
REMARK    3  A    between atoms: C_7  and  C_8 
REMARK    4  A    between atoms: N_9  and  C_10 
REMARK    5  A    between atoms: C_10  and  C_11 
REMARK    6  A    between atoms: C_11  and  C_12 
REMARK    7  A    between atoms: C_18  and  S_19 
REMARK    8  A    between atoms: S_19  and  C_20 
REMARK    9  A    between atoms: C_20  and  C_21 
REMARK       I    between atoms: C_21  and  N_22 
ROOT
HETATM    1  C   UNL     1      25.953  45.936  52.814  1.00  0.00     0.155 A 
HETATM    2  N   UNL     1      25.428  45.431  51.640  1.00  0.00    -0.309 N 
HETATM    3  C   UNL     1      24.867  46.512  51.010  1.00  0.00     0.192 A 
HETATM    4  N   UNL     1      25.000  47.583  51.755  1.00  0.00    -0.123 NA
HETATM    5  N   UNL     1      25.689  47.228  52.878  1.00  0.00    -0.132 NA
ENDROOT
BRANCH   1   6
HETATM    6  C   UNL     1      26.648  45.162  53.881  1.00  0.00     0.256 C 
BRANCH   6   7
HETATM    7  O   UNL     1      27.783  45.913  54.299  1.00  0.00    -0.344 OA
BRANCH   7   8
HETATM    8  C   UNL     1      28.797  45.207  54.888  1.00  0.00     0.069 A 
HETATM    9  C   UNL     1      29.391  45.841  55.981  1.00  0.00     0.037 A 
HETATM   10  C   UNL     1      30.426  45.223  56.686  1.00  0.00     0.009 A 
HETATM   11  C   UNL     1      30.893  43.966  56.295  1.00  0.00    -0.062 A 
HETATM   12  C   UNL     1      31.974  43.270  57.068  1.00  0.00     0.048 C 
HETATM   13  C   UNL     1      30.299  43.334  55.196  1.00  0.00     0.009 A 
HETATM   14  C   UNL     1      29.261  43.953  54.492  1.00  0.00     0.037 A 
ENDBRANCH   7   8
ENDBRANCH   6   7
ENDBRANCH   1   6
BRANCH   2  15
HETATM   15  C   UNL     1      25.476  44.058  51.172  1.00  0.00     0.137 C 
BRANCH  15  16
HETATM   16  C   UNL     1      26.658  43.786  50.240  1.00  0.00     0.059 C 
BRANCH  16  17
HETATM   17  C   UNL     1      27.278  42.435  50.491  1.00  0.00    -0.057 A 
HETATM   18  C   UNL     1      27.889  42.143  51.717  1.00  0.00     0.007 A 
HETATM   19  C   UNL     1      28.467  40.891  51.936  1.00  0.00     0.001 A 
HETATM   20  C   UNL     1      28.443  39.924  50.933  1.00  0.00     0.000 A 
HETATM   21  C   UNL     1      27.842  40.207  49.708  1.00  0.00     0.001 A 
HETATM   22  C   UNL     1      27.266  41.458  49.486  1.00  0.00     0.007 A 
ENDBRANCH  16  17
ENDBRANCH  15  16
ENDBRANCH   2  15
BRANCH   3  23
HETATM   23  S   UNL     1      24.109  46.474  49.456  1.00  0.00    -0.081 SA
BRANCH  23  24
HETATM   24  C   UNL     1      23.391  48.143  49.380  1.00  0.00     0.185 C 
BRANCH  24  25
HETATM   25  C   UNL     1      24.246  49.063  48.523  1.00  0.00     0.226 C 
HETATM   26  N   UNL     1      25.544  49.216  48.966  1.00  0.00    -0.365 N 
HETATM   27  C   UNL     1      26.500  49.970  48.198  1.00  0.00     0.149 C 
HETATM   28  H   UNL     1      25.910  48.478  49.571  1.00  0.00     0.161 HD
HETATM   29  O   UNL     1      23.805  49.627  47.525  1.00  0.00    -0.273 OA
ENDBRANCH  24  25
ENDBRANCH  23  24
ENDBRANCH   3  23
TORSDOF 9
ENDMDL
MODEL 2
REMARK VINA RESULT:      -8.5      2.064      4.373
REMARK  9 active torsions:
REMARK  status: ('A' for Active; 'I' for Inactive)
REMARK    1  A    between atoms: C_5  and  O_6 
REMARK    2  A    between atoms: O_6  and  C_7 
REMARK    3  A    between atoms: C_7  and  C_8 
REMARK    4  A    between atoms: N_9  and  C_10 
REMARK    5  A    between atoms: C_10  and  C_11 
REMARK    6  A    between atoms: C_11  and  C_12 
REMARK    7  A    between atoms: C_18  and  S_19 
REMARK    8  A    between atoms: S_19  and  C_20 
REMARK    9  A    between atoms: C_20  and  C_21 
REMARK       I    between atoms: C_21  and  N_22 
ROOT
HETATM    1  C   UNL     1      26.298  43.505  50.572  1.00  0.00     0.155 A 
HETATM    2  N   UNL     1      25.679  44.621  51.102  1.00  0.00    -0.309 N 
HETATM    3  C   UNL     1      25.991  45.641  50.241  1.00  0.00     0.192 A 
HETATM    4  N   UNL     1      26.770  45.197  49.285  1.00  0.00    -0.123 NA
HETATM    5  N   UNL     1      26.955  43.859  49.482  1.00  0.00    -0.132 NA
ENDROOT
BRANCH   1   6
HETATM    6  C   UNL     1      26.298  42.131  51.148  1.00  0.00     0.256 C 
BRANCH   6   7
HETATM    7  O   UNL     1      27.644  41.666  51.177  1.00  0.00    -0.344 OA
BRANCH   7   8
HETATM    8  C   UNL     1      28.422  42.115  52.209  1.00  0.00     0.069 A 
HETATM    9  C   UNL     1      28.133  41.543  53.449  1.00  0.00     0.037 A 
HETATM   10  C   UNL     1      28.864  41.899  54.584  1.00  0.00     0.009 A 
HETATM   11  C   UNL     1      29.887  42.847  54.495  1.00  0.00    -0.062 A 
HETATM   12  C   UNL     1      30.711  43.208  55.696  1.00  0.00     0.048 C 
HETATM   13  C   UNL     1      30.172  43.423  53.252  1.00  0.00     0.009 A 
HETATM   14  C   UNL     1      29.440  43.064  52.115  1.00  0.00     0.037 A 
ENDBRANCH   7   8
ENDBRANCH   6   7
ENDBRANCH   1   6
BRANCH   2  15
HETATM   15  C   UNL     1      24.864  44.689  52.302  1.00  0.00     0.137 C 
BRANCH  15  16
HETATM   16  C   UNL     1      25.644  44.350  53.573  1.00  0.00     0.059 C 
BRANCH  16  17
HETATM   17  C   UNL     1      26.355  45.553  54.140  1.00  0.00    -0.057 A 
HETATM   18  C   UNL     1      27.582  45.415  54.801  1.00  0.00     0.007 A 
HETATM   19  C   UNL     1      28.227  46.535  55.329  1.00  0.00     0.001 A 
HETATM   20  C   UNL     1      27.653  47.799  55.203  1.00  0.00     0.000 A 
HETATM   21  C   UNL     1      26.430  47.944  54.551  1.00  0.00     0.001 A 
HETATM   22  C   UNL     1      25.782  46.827  54.025  1.00  0.00     0.007 A 
ENDBRANCH  16  17
ENDBRANCH  15  16
ENDBRANCH   2  15
BRANCH   3  23
HETATM   23  S   UNL     1      25.428  47.269  50.384  1.00  0.00    -0.081 SA
BRANCH  23  24
HETATM   24  C   UNL     1      23.875  47.184  49.442  1.00  0.00     0.185 C 
BRANCH  24  25
HETATM   25  C   UNL     1      23.441  48.568  48.986  1.00  0.00     0.226 C 
HETATM   26  N   UNL     1      22.612  49.229  49.870  1.00  0.00    -0.365 N 
HETATM   27  C   UNL     1      22.207  50.589  49.623  1.00  0.00     0.149 C 
HETATM   28  H   UNL     1      22.645  48.922  50.843  1.00  0.00     0.161 HD
HETATM   29  O   UNL     1      23.797  49.046  47.911  1.00  0.00    -0.273 OA
ENDBRANCH  24  25
ENDBRANCH  23  24
ENDBRANCH   3  23
TORSDOF 9
ENDMDL
MODEL 3
REMARK VINA RESULT:      -8.5      1.235      2.107
REMARK  9 active torsions:
REMARK  status: ('A' for Active; 'I' for Inactive)
REMARK    1  A    between atoms: C_5  and  O_6 
REMARK    2  A    between atoms: O_6  and  C_7 
REMARK    3  A    between atoms: C_7  and  C_8 
REMARK    4  A    between atoms: N_9  and  C_10 
REMARK    5  A    between atoms: C_10  and  C_11 
REMARK    6  A    between atoms: C_11  and  C_12 
REMARK    7  A    between atoms: C_18  and  S_19 
REMARK    8  A    between atoms: S_19  and  C_20 
REMARK    9  A    between atoms: C_20  and  C_21 
REMARK       I    between atoms: C_21  and  N_22 
ROOT
HETATM    1  C   UNL     1      26.032  46.023  53.104  1.00  0.00     0.155 A 
HETATM    2  N   UNL     1      25.416  45.412  52.028  1.00  0.00    -0.309 N 
HETATM    3  C   UNL     1      24.968  46.444  51.245  1.00  0.00     0.192 A 
HETATM    4  N   UNL     1      25.250  47.592  51.813  1.00  0.00    -0.123 NA
HETATM    5  N   UNL     1      25.926  47.332  52.969  1.00  0.00    -0.132 NA
ENDROOT
BRANCH   1   6
HETATM    6  C   UNL     1      26.663  45.342  54.270  1.00  0.00     0.256 C 
BRANCH   6   7
HETATM    7  O   UNL     1      27.671  46.204  54.789  1.00  0.00    -0.344 OA
BRANCH   7   8
HETATM    8  C   UNL     1      28.714  45.600  55.437  1.00  0.00     0.069 A 
HETATM    9  C   UNL     1      29.193  44.444  54.820  1.00  0.00     0.037 A 
HETATM   10  C   UNL     1      30.268  43.738  55.365  1.00  0.00     0.009 A 
HETATM   11  C   UNL     1      30.869  44.175  56.548  1.00  0.00    -0.062 A 
HETATM   12  C   UNL     1      32.053  43.454  57.123  1.00  0.00     0.048 C 
HETATM   13  C   UNL     1      30.385  45.333  57.168  1.00  0.00     0.009 A 
HETATM   14  C   UNL     1      29.309  46.039  56.619  1.00  0.00     0.037 A 
ENDBRANCH   7   8
ENDBRANCH   6   7
ENDBRANCH   1   6
BRANCH   2  15
HETATM   15  C   UNL     1      25.286  43.987  51.779  1.00  0.00     0.137 C 
BRANCH  15  16
HETATM   16  C   UNL     1      26.270  43.474  50.726  1.00  0.00     0.059 C 
BRANCH  16  17
HETATM   17  C   UNL     1      27.152  42.376  51.263  1.00  0.00    -0.057 A 
HETATM   18  C   UNL     1      27.650  41.378  50.415  1.00  0.00     0.007 A 
HETATM   19  C   UNL     1      28.460  40.361  50.925  1.00  0.00     0.001 A 
HETATM   20  C   UNL     1      28.777  40.332  52.282  1.00  0.00     0.000 A 
HETATM   21  C   UNL     1      28.282  41.318  53.132  1.00  0.00     0.001 A 
HETATM   22  C   UNL     1      27.471  42.333  52.627  1.00  0.00     0.007 A 
ENDBRANCH  16  17
ENDBRANCH  15  16
ENDBRANCH   2  15
BRANCH   3  23
HETATM   23  S   UNL     1      24.164  46.262  49.725  1.00  0.00    -0.081 SA
BRANCH  23  24
HETATM   24  C   UNL     1      23.904  48.000  49.259  1.00  0.00     0.185 C 
BRANCH  24  25
HETATM   25  C   UNL     1      22.547  48.188  48.601  1.00  0.00     0.226 C 
HETATM   26  N   UNL     1      21.509  48.415  49.483  1.00  0.00    -0.365 N 
HETATM   27  C   UNL     1      20.187  48.718  49.000  1.00  0.00     0.149 C 
HETATM   28  H   UNL     1      21.763  48.775  50.404  1.00  0.00     0.161 HD
HETATM   29  O   UNL     1      22.395  48.131  47.383  1.00  0.00    -0.273 OA
ENDBRANCH  24  25
ENDBRANCH  23  24
ENDBRANCH   3  23
TORSDOF 9
ENDMDL
MODEL 4
REMARK VINA RESULT:      -8.2      2.684      5.254
REMARK  9 active torsions:
REMARK  status: ('A' for Active; 'I' for Inactive)
REMARK    1  A    between atoms: C_5  and  O_6 
REMARK    2  A    between atoms: O_6  and  C_7 
REMARK    3  A    between atoms: C_7  and  C_8 
REMARK    4  A    between atoms: N_9  and  C_10 
REMARK    5  A    between atoms: C_10  and  C_11 
REMARK    6  A    between atoms: C_11  and  C_12 
REMARK    7  A    between atoms: C_18  and  S_19 
REMARK    8  A    between atoms: S_19  and  C_20 
REMARK    9  A    between atoms: C_20  and  C_21 
REMARK       I    between atoms: C_21  and  N_22 
ROOT
HETATM    1  C   UNL     1      24.663  43.489  50.906  1.00  0.00     0.155 A 
HETATM    2  N   UNL     1      24.528  44.551  50.031  1.00  0.00    -0.309 N 
HETATM    3  C   UNL     1      23.207  44.542  49.666  1.00  0.00     0.192 A 
HETATM    4  N   UNL     1      22.592  43.534  50.237  1.00  0.00    -0.123 NA
HETATM    5  N   UNL     1      23.497  42.881  51.022  1.00  0.00    -0.132 NA
ENDROOT
BRANCH   1   6
HETATM    6  C   UNL     1      25.919  43.042  51.572  1.00  0.00     0.256 C 
BRANCH   6   7
HETATM    7  O   UNL     1      26.112  43.845  52.732  1.00  0.00    -0.344 OA
BRANCH   7   8
HETATM    8  C   UNL     1      27.292  43.675  53.402  1.00  0.00     0.069 A 
HETATM    9  C   UNL     1      27.711  44.784  54.138  1.00  0.00     0.037 A 
HETATM   10  C   UNL     1      28.890  44.740  54.884  1.00  0.00     0.009 A 
HETATM   11  C   UNL     1      29.678  43.586  54.890  1.00  0.00    -0.062 A 
HETATM   12  C   UNL     1      30.925  43.507  55.721  1.00  0.00     0.048 C 
HETATM   13  C   UNL     1      29.260  42.476  54.147  1.00  0.00     0.009 A 
HETATM   14  C   UNL     1      28.076  42.521  53.402  1.00  0.00     0.037 A 
ENDBRANCH   7   8
ENDBRANCH   6   7
ENDBRANCH   1   6
BRANCH   2  15
HETATM   15  C   UNL     1      25.560  45.480  49.607  1.00  0.00     0.137 C 
BRANCH  15  16
HETATM   16  C   UNL     1      25.645  46.723  50.493  1.00  0.00     0.059 C 
BRANCH  16  17
HETATM   17  C   UNL     1      25.928  47.970  49.695  1.00  0.00    -0.057 A 
HETATM   18  C   UNL     1      27.235  48.453  49.558  1.00  0.00     0.007 A 
HETATM   19  C   UNL     1      27.484  49.613  48.822  1.00  0.00     0.001 A 
HETATM   20  C   UNL     1      26.431  50.301  48.221  1.00  0.00     0.000 A 
HETATM   21  C   UNL     1      25.127  49.830  48.357  1.00  0.00     0.001 A 
HETATM   22  C   UNL     1      24.875  48.673  49.093  1.00  0.00     0.007 A 
ENDBRANCH  16  17
ENDBRANCH  15  16
ENDBRANCH   2  15
BRANCH   3  23
HETATM   23  S   UNL     1      22.457  45.695  48.619  1.00  0.00    -0.081 SA
BRANCH  23  24
HETATM   24  C   UNL     1      20.745  45.084  48.599  1.00  0.00     0.185 C 
BRANCH  24  25
HETATM   25  C   UNL     1      19.758  46.237  48.505  1.00  0.00     0.226 C 
HETATM   26  N   UNL     1      19.647  46.991  49.656  1.00  0.00    -0.365 N 
HETATM   27  C   UNL     1      18.833  48.179  49.682  1.00  0.00     0.149 C 
HETATM   28  H   UNL     1      20.433  46.951  50.306  1.00  0.00     0.161 HD
HETATM   29  O   UNL     1      19.110  46.465  47.486  1.00  0.00    -0.273 OA
ENDBRANCH  24  25
ENDBRANCH  23  24
ENDBRANCH   3  23
TORSDOF 9
ENDMDL
MODEL 5
REMARK VINA RESULT:      -8.2      2.565      5.060
REMARK  9 active torsions:
REMARK  status: ('A' for Active; 'I' for Inactive)
REMARK    1  A    between atoms: C_5  and  O_6 
REMARK    2  A    between atoms: O_6  and  C_7 
REMARK    3  A    between atoms: C_7  and  C_8 
REMARK    4  A    between atoms: N_9  and  C_10 
REMARK    5  A    between atoms: C_10  and  C_11 
REMARK    6  A    between atoms: C_11  and  C_12 
REMARK    7  A    between atoms: C_18  and  S_19 
REMARK    8  A    between atoms: S_19  and  C_20 
REMARK    9  A    between atoms: C_20  and  C_21 
REMARK       I    between atoms: C_21  and  N_22 
ROOT
HETATM    1  C   UNL     1      27.126  43.267  51.243  1.00  0.00     0.155 A 
HETATM    2  N   UNL     1      26.372  43.841  50.236  1.00  0.00    -0.309 N 
HETATM    3  C   UNL     1      25.409  42.911  49.941  1.00  0.00     0.192 A 
HETATM    4  N   UNL     1      25.582  41.839  50.676  1.00  0.00    -0.123 NA
HETATM    5  N   UNL     1      26.647  42.063  51.499  1.00  0.00    -0.132 NA
ENDROOT
BRANCH   1   6
HETATM    6  C   UNL     1      28.324  43.857  51.901  1.00  0.00     0.256 C 
BRANCH   6   7
HETATM    7  O   UNL     1      27.916  44.398  53.154  1.00  0.00    -0.344 OA
BRANCH   7   8
HETATM    8  C   UNL     1      28.819  44.311  54.178  1.00  0.00     0.069 A 
HETATM    9  C   UNL     1      29.593  43.150  54.177  1.00  0.00     0.037 A 
HETATM   10  C   UNL     1      30.566  42.942  55.157  1.00  0.00     0.009 A 
HETATM   11  C   UNL     1      30.766  43.890  56.164  1.00  0.00    -0.062 A 
HETATM   12  C   UNL     1      31.837  43.702  57.198  1.00  0.00     0.048 C 
HETATM   13  C   UNL     1      29.986  45.051  56.166  1.00  0.00     0.009 A 
HETATM   14  C   UNL     1      29.012  45.259  55.183  1.00  0.00     0.037 A 
ENDBRANCH   7   8
ENDBRANCH   6   7
ENDBRANCH   1   6
BRANCH   2  15
HETATM   15  C   UNL     1      26.555  45.150  49.636  1.00  0.00     0.137 C 
BRANCH  15  16
HETATM   16  C   UNL     1      25.771  46.250  50.354  1.00  0.00     0.059 C 
BRANCH  16  17
HETATM   17  C   UNL     1      25.920  47.588  49.675  1.00  0.00    -0.057 A 
HETATM   18  C   UNL     1      27.188  48.134  49.439  1.00  0.00     0.007 A 
HETATM   19  C   UNL     1      27.314  49.378  48.816  1.00  0.00     0.001 A 
HETATM   20  C   UNL     1      26.178  50.085  48.427  1.00  0.00     0.000 A 
HETATM   21  C   UNL     1      24.913  49.551  48.663  1.00  0.00     0.001 A 
HETATM   22  C   UNL     1      24.784  48.310  49.287  1.00  0.00     0.007 A 
ENDBRANCH  16  17
ENDBRANCH  15  16
ENDBRANCH   2  15
BRANCH   3  23
HETATM   23  S   UNL     1      24.143  43.124  48.783  1.00  0.00    -0.081 SA
BRANCH  23  24
HETATM   24  C   UNL     1      22.856  43.890  49.813  1.00  0.00     0.185 C 
BRANCH  24  25
HETATM   25  C   UNL     1      21.869  44.669  48.957  1.00  0.00     0.226 C 
HETATM   26  N   UNL     1      22.007  46.040  49.027  1.00  0.00    -0.365 N 
HETATM   27  C   UNL     1      21.214  46.904  48.191  1.00  0.00     0.149 C 
HETATM   28  H   UNL     1      22.916  46.393  49.332  1.00  0.00     0.161 HD
HETATM   29  O   UNL     1      21.014  44.112  48.271  1.00  0.00    -0.273 OA
ENDBRANCH  24  25
ENDBRANCH  23  24
ENDBRANCH   3  23
TORSDOF 9
ENDMDL
MODEL 6
REMARK VINA RESULT:      -8.1     12.320     14.863
REMARK  9 active torsions:
REMARK  status: ('A' for Active; 'I' for Inactive)
REMARK    1  A    between atoms: C_5  and  O_6 
REMARK    2  A    between atoms: O_6  and  C_7 
REMARK    3  A    between atoms: C_7  and  C_8 
REMARK    4  A    between atoms: N_9  and  C_10 
REMARK    5  A    between atoms: C_10  and  C_11 
REMARK    6  A    between atoms: C_11  and  C_12 
REMARK    7  A    between atoms: C_18  and  S_19 
REMARK    8  A    between atoms: S_19  and  C_20 
REMARK    9  A    between atoms: C_20  and  C_21 
REMARK       I    between atoms: C_21  and  N_22 
ROOT
HETATM    1  C   UNL     1      33.178  51.660  43.060  1.00  0.00     0.155 A 
HETATM    2  N   UNL     1      33.904  51.007  42.082  1.00  0.00    -0.309 N 
HETATM    3  C   UNL     1      35.216  51.250  42.394  1.00  0.00     0.192 A 
HETATM    4  N   UNL     1      35.289  52.021  43.452  1.00  0.00    -0.123 NA
HETATM    5  N   UNL     1      34.017  52.270  43.877  1.00  0.00    -0.132 NA
ENDROOT
BRANCH   1   6
HETATM    6  C   UNL     1      31.694  51.736  43.163  1.00  0.00     0.256 C 
BRANCH   6   7
HETATM    7  O   UNL     1      31.240  52.727  42.246  1.00  0.00    -0.344 OA
BRANCH   7   8
HETATM    8  C   UNL     1      30.245  52.352  41.386  1.00  0.00     0.069 A 
HETATM    9  C   UNL     1      30.665  52.112  40.077  1.00  0.00     0.037 A 
HETATM   10  C   UNL     1      29.754  51.705  39.100  1.00  0.00     0.009 A 
HETATM   11  C   UNL     1      28.403  51.547  39.419  1.00  0.00    -0.062 A 
HETATM   12  C   UNL     1      27.419  51.067  38.392  1.00  0.00     0.048 C 
HETATM   13  C   UNL     1      27.982  51.792  40.731  1.00  0.00     0.009 A 
HETATM   14  C   UNL     1      28.897  52.198  41.709  1.00  0.00     0.037 A 
ENDBRANCH   7   8
ENDBRANCH   6   7
ENDBRANCH   1   6
BRANCH   2  15
HETATM   15  C   UNL     1      33.385  50.224  40.975  1.00  0.00     0.137 C 
BRANCH  15  16
HETATM   16  C   UNL     1      32.955  48.816  41.391  1.00  0.00     0.059 C 
BRANCH  16  17
HETATM   17  C   UNL     1      31.495  48.564  41.112  1.00  0.00    -0.057 A 
HETATM   18  C   UNL     1      31.059  48.230  39.824  1.00  0.00     0.007 A 
HETATM   19  C   UNL     1      29.703  48.006  39.576  1.00  0.00     0.001 A 
HETATM   20  C   UNL     1      28.774  48.116  40.609  1.00  0.00     0.000 A 
HETATM   21  C   UNL     1      29.199  48.453  41.892  1.00  0.00     0.001 A 
HETATM   22  C   UNL     1      30.552  48.680  42.143  1.00  0.00     0.007 A 
ENDBRANCH  16  17
ENDBRANCH  15  16
ENDBRANCH   2  15
BRANCH   3  23
HETATM   23  S   UNL     1      36.576  50.620  41.532  1.00  0.00    -0.081 SA
BRANCH  23  24
HETATM   24  C   UNL     1      37.239  52.134  40.775  1.00  0.00     0.185 C 
BRANCH  24  25
HETATM   25  C   UNL     1      36.248  52.725  39.786  1.00  0.00     0.226 C 
HETATM   26  N   UNL     1      35.922  54.046  40.020  1.00  0.00    -0.365 N 
HETATM   27  C   UNL     1      35.080  54.770  39.104  1.00  0.00     0.149 C 
HETATM   28  H   UNL     1      36.590  54.590  40.569  1.00  0.00     0.161 HD
HETATM   29  O   UNL     1      35.773  52.069  38.862  1.00  0.00    -0.273 OA
ENDBRANCH  24  25
ENDBRANCH  23  24
ENDBRANCH   3  23
TORSDOF 9
ENDMDL
MODEL 7
REMARK VINA RESULT:      -8.0      2.086      6.096
REMARK  9 active torsions:
REMARK  status: ('A' for Active; 'I' for Inactive)
REMARK    1  A    between atoms: C_5  and  O_6 
REMARK    2  A    between atoms: O_6  and  C_7 
REMARK    3  A    between atoms: C_7  and  C_8 
REMARK    4  A    between atoms: N_9  and  C_10 
REMARK    5  A    between atoms: C_10  and  C_11 
REMARK    6  A    between atoms: C_11  and  C_12 
REMARK    7  A    between atoms: C_18  and  S_19 
REMARK    8  A    between atoms: S_19  and  C_20 
REMARK    9  A    between atoms: C_20  and  C_21 
REMARK       I    between atoms: C_21  and  N_22 
ROOT
HETATM    1  C   UNL     1      27.309  43.134  50.982  1.00  0.00     0.155 A 
HETATM    2  N   UNL     1      26.755  44.048  51.858  1.00  0.00    -0.309 N 
HETATM    3  C   UNL     1      26.254  45.044  51.060  1.00  0.00     0.192 A 
HETATM    4  N   UNL     1      26.515  44.783  49.802  1.00  0.00    -0.123 NA
HETATM    5  N   UNL     1      27.165  43.584  49.749  1.00  0.00    -0.132 NA
ENDROOT
BRANCH   1   6
HETATM    6  C   UNL     1      28.018  41.874  51.344  1.00  0.00     0.256 C 
BRANCH   6   7
HETATM    7  O   UNL     1      27.153  40.783  51.045  1.00  0.00    -0.344 OA
BRANCH   7   8
HETATM    8  C   UNL     1      27.587  39.906  50.088  1.00  0.00     0.069 A 
HETATM    9  C   UNL     1      26.709  39.731  49.017  1.00  0.00     0.037 A 
HETATM   10  C   UNL     1      27.036  38.878  47.961  1.00  0.00     0.009 A 
HETATM   11  C   UNL     1      28.243  38.174  47.972  1.00  0.00    -0.062 A 
HETATM   12  C   UNL     1      28.628  37.287  46.825  1.00  0.00     0.048 C 
HETATM   13  C   UNL     1      29.120  38.347  49.049  1.00  0.00     0.009 A 
HETATM   14  C   UNL     1      28.791  39.203  50.105  1.00  0.00     0.037 A 
ENDBRANCH   7   8
ENDBRANCH   6   7
ENDBRANCH   1   6
BRANCH   2  15
HETATM   15  C   UNL     1      26.704  43.961  53.307  1.00  0.00     0.137 C 
BRANCH  15  16
HETATM   16  C   UNL     1      27.382  45.144  54.000  1.00  0.00     0.059 C 
BRANCH  16  17
HETATM   17  C   UNL     1      28.656  44.738  54.697  1.00  0.00    -0.057 A 
HETATM   18  C   UNL     1      29.227  43.480  54.471  1.00  0.00     0.007 A 
HETATM   19  C   UNL     1      30.403  43.111  55.128  1.00  0.00     0.001 A 
HETATM   20  C   UNL     1      31.014  43.994  56.016  1.00  0.00     0.000 A 
HETATM   21  C   UNL     1      30.450  45.246  56.251  1.00  0.00     0.001 A 
HETATM   22  C   UNL     1      29.275  45.616  55.598  1.00  0.00     0.007 A 
ENDBRANCH  16  17
ENDBRANCH  15  16
ENDBRANCH   2  15
BRANCH   3  23
HETATM   23  S   UNL     1      25.392  46.432  51.626  1.00  0.00    -0.081 SA
BRANCH  23  24
HETATM   24  C   UNL     1      24.671  47.048  50.075  1.00  0.00     0.185 C 
BRANCH  24  25
HETATM   25  C   UNL     1      25.429  48.266  49.571  1.00  0.00     0.226 C 
HETATM   26  N   UNL     1      26.803  48.135  49.589  1.00  0.00    -0.365 N 
HETATM   27  C   UNL     1      27.648  49.164  49.042  1.00  0.00     0.149 C 
HETATM   28  H   UNL     1      27.170  47.182  49.591  1.00  0.00     0.161 HD
HETATM   29  O   UNL     1      24.855  49.284  49.190  1.00  0.00    -0.273 OA
ENDBRANCH  24  25
ENDBRANCH  23  24
ENDBRANCH   3  23
TORSDOF 9
ENDMDL
MODEL 8
REMARK VINA RESULT:      -8.0      3.120      8.097
REMARK  9 active torsions:
REMARK  status: ('A' for Active; 'I' for Inactive)
REMARK    1  A    between atoms: C_5  and  O_6 
REMARK    2  A    between atoms: O_6  and  C_7 
REMARK    3  A    between atoms: C_7  and  C_8 
REMARK    4  A    between atoms: N_9  and  C_10 
REMARK    5  A    between atoms: C_10  and  C_11 
REMARK    6  A    between atoms: C_11  and  C_12 
REMARK    7  A    between atoms: C_18  and  S_19 
REMARK    8  A    between atoms: S_19  and  C_20 
REMARK    9  A    between atoms: C_20  and  C_21 
REMARK       I    between atoms: C_21  and  N_22 
ROOT
HETATM    1  C   UNL     1      26.687  44.515  49.837  1.00  0.00     0.155 A 
HETATM    2  N   UNL     1      27.178  43.521  50.663  1.00  0.00    -0.309 N 
HETATM    3  C   UNL     1      26.500  42.388  50.294  1.00  0.00     0.192 A 
HETATM    4  N   UNL     1      25.636  42.671  49.349  1.00  0.00    -0.123 NA
HETATM    5  N   UNL     1      25.759  43.998  49.054  1.00  0.00    -0.132 NA
ENDROOT
BRANCH   1   6
HETATM    6  C   UNL     1      27.075  45.953  49.852  1.00  0.00     0.256 C 
BRANCH   6   7
HETATM    7  O   UNL     1      26.060  46.675  50.542  1.00  0.00    -0.344 OA
BRANCH   7   8
HETATM    8  C   UNL     1      25.468  47.700  49.856  1.00  0.00     0.069 A 
HETATM    9  C   UNL     1      24.073  47.668  49.848  1.00  0.00     0.037 A 
HETATM   10  C   UNL     1      23.341  48.665  49.199  1.00  0.00     0.009 A 
HETATM   11  C   UNL     1      24.000  49.703  48.534  1.00  0.00    -0.062 A 
HETATM   12  C   UNL     1      23.229  50.805  47.871  1.00  0.00     0.048 C 
HETATM   13  C   UNL     1      25.399  49.731  48.540  1.00  0.00     0.009 A 
HETATM   14  C   UNL     1      26.130  48.732  49.191  1.00  0.00     0.037 A 
ENDBRANCH   7   8
ENDBRANCH   6   7
ENDBRANCH   1   6
BRANCH   2  15
HETATM   15  C   UNL     1      28.201  43.650  51.686  1.00  0.00     0.137 C 
BRANCH  15  16
HETATM   16  C   UNL     1      27.621  43.797  53.093  1.00  0.00     0.059 C 
BRANCH  16  17
HETATM   17  C   UNL     1      28.693  44.041  54.125  1.00  0.00    -0.057 A 
HETATM   18  C   UNL     1      29.688  43.085  54.364  1.00  0.00     0.007 A 
HETATM   19  C   UNL     1      30.672  43.318  55.328  1.00  0.00     0.001 A 
HETATM   20  C   UNL     1      30.668  44.504  56.060  1.00  0.00     0.000 A 
HETATM   21  C   UNL     1      29.679  45.458  55.832  1.00  0.00     0.001 A 
HETATM   22  C   UNL     1      28.694  45.227  54.872  1.00  0.00     0.007 A 
ENDBRANCH  16  17
ENDBRANCH  15  16
ENDBRANCH   2  15
BRANCH   3  23
HETATM   23  S   UNL     1      26.756  40.814  50.963  1.00  0.00    -0.081 SA
BRANCH  23  24
HETATM   24  C   UNL     1      28.292  40.325  50.123  1.00  0.00     0.185 C 
BRANCH  24  25
HETATM   25  C   UNL     1      28.306  38.830  49.846  1.00  0.00     0.226 C 
HETATM   26  N   UNL     1      27.076  38.214  49.958  1.00  0.00    -0.365 N 
HETATM   27  C   UNL     1      26.915  36.824  49.621  1.00  0.00     0.149 C 
HETATM   28  H   UNL     1      26.255  38.815  49.865  1.00  0.00     0.161 HD
HETATM   29  O   UNL     1      29.337  38.227  49.556  1.00  0.00    -0.273 OA
ENDBRANCH  24  25
ENDBRANCH  23  24
ENDBRANCH   3  23
TORSDOF 9
ENDMDL
MODEL 9
REMARK VINA RESULT:      -8.0      4.637     10.814
REMARK  9 active torsions:
REMARK  status: ('A' for Active; 'I' for Inactive)
REMARK    1  A    between atoms: C_5  and  O_6 
REMARK    2  A    between atoms: O_6  and  C_7 
REMARK    3  A    between atoms: C_7  and  C_8 
REMARK    4  A    between atoms: N_9  and  C_10 
REMARK    5  A    between atoms: C_10  and  C_11 
REMARK    6  A    between atoms: C_11  and  C_12 
REMARK    7  A    between atoms: C_18  and  S_19 
REMARK    8  A    between atoms: S_19  and  C_20 
REMARK    9  A    between atoms: C_20  and  C_21 
REMARK       I    between atoms: C_21  and  N_22 
ROOT
HETATM    1  C   UNL     1      22.888  49.308  49.052  1.00  0.00     0.155 A 
HETATM    2  N   UNL     1      22.502  48.025  48.713  1.00  0.00    -0.309 N 
HETATM    3  C   UNL     1      23.482  47.214  49.224  1.00  0.00     0.192 A 
HETATM    4  N   UNL     1      24.413  47.942  49.793  1.00  0.00    -0.123 NA
HETATM    5  N   UNL     1      24.038  49.250  49.697  1.00  0.00    -0.132 NA
ENDROOT
BRANCH   1   6
HETATM    6  C   UNL     1      22.177  50.570  48.703  1.00  0.00     0.256 C 
BRANCH   6   7
HETATM    7  O   UNL     1      21.370  50.942  49.816  1.00  0.00    -0.344 OA
BRANCH   7   8
HETATM    8  C   UNL     1      20.059  51.228  49.549  1.00  0.00     0.069 A 
HETATM    9  C   UNL     1      19.854  52.033  48.427  1.00  0.00     0.037 A 
HETATM   10  C   UNL     1      18.562  52.386  48.031  1.00  0.00     0.009 A 
HETATM   11  C   UNL     1      17.456  51.950  48.765  1.00  0.00    -0.062 A 
HETATM   12  C   UNL     1      16.060  52.285  48.327  1.00  0.00     0.048 C 
HETATM   13  C   UNL     1      17.663  51.147  49.892  1.00  0.00     0.009 A 
HETATM   14  C   UNL     1      18.958  50.793  50.286  1.00  0.00     0.037 A 
ENDBRANCH   7   8
ENDBRANCH   6   7
ENDBRANCH   1   6
BRANCH   2  15
HETATM   15  C   UNL     1      21.310  47.626  47.987  1.00  0.00     0.137 C 
BRANCH  15  16
HETATM   16  C   UNL     1      20.086  47.468  48.891  1.00  0.00     0.059 C 
BRANCH  16  17
HETATM   17  C   UNL     1      18.820  47.934  48.217  1.00  0.00    -0.057 A 
HETATM   18  C   UNL     1      17.565  47.629  48.760  1.00  0.00     0.007 A 
HETATM   19  C   UNL     1      16.399  48.059  48.123  1.00  0.00     0.001 A 
HETATM   20  C   UNL     1      16.477  48.794  46.941  1.00  0.00     0.000 A 
HETATM   21  C   UNL     1      17.721  49.097  46.392  1.00  0.00     0.001 A 
HETATM   22  C   UNL     1      18.887  48.666  47.024  1.00  0.00     0.007 A 
ENDBRANCH  16  17
ENDBRANCH  15  16
ENDBRANCH   2  15
BRANCH   3  23
HETATM   23  S   UNL     1      23.486  45.487  49.144  1.00  0.00    -0.081 SA
BRANCH  23  24
HETATM   24  C   UNL     1      25.169  45.117  49.723  1.00  0.00     0.185 C 
BRANCH  24  25
HETATM   25  C   UNL     1      25.151  44.614  51.158  1.00  0.00     0.226 C 
HETATM   26  N   UNL     1      26.385  44.242  51.651  1.00  0.00    -0.365 N 
HETATM   27  C   UNL     1      26.540  43.848  53.027  1.00  0.00     0.149 C 
HETATM   28  H   UNL     1      27.202  44.642  51.186  1.00  0.00     0.161 HD
HETATM   29  O   UNL     1      24.114  44.538  51.813  1.00  0.00    -0.273 OA
ENDBRANCH  24  25
ENDBRANCH  23  24
ENDBRANCH   3  23
TORSDOF 9
ENDMDL
MODEL 10
REMARK VINA RESULT:      -8.0      3.815      7.561
REMARK  9 active torsions:
REMARK  status: ('A' for Active; 'I' for Inactive)
REMARK    1  A    between atoms: C_5  and  O_6 
REMARK    2  A    between atoms: O_6  and  C_7 
REMARK    3  A    between atoms: C_7  and  C_8 
REMARK    4  A    between atoms: N_9  and  C_10 
REMARK    5  A    between atoms: C_10  and  C_11 
REMARK    6  A    between atoms: C_11  and  C_12 
REMARK    7  A    between atoms: C_18  and  S_19 
REMARK    8  A    between atoms: S_19  and  C_20 
REMARK    9  A    between atoms: C_20  and  C_21 
REMARK       I    between atoms: C_21  and  N_22 
ROOT
HETATM    1  C   UNL     1      25.474  41.938  50.348  1.00  0.00     0.155 A 
HETATM    2  N   UNL     1      26.832  41.738  50.512  1.00  0.00    -0.309 N 
HETATM    3  C   UNL     1      27.143  40.709  49.662  1.00  0.00     0.192 A 
HETATM    4  N   UNL     1      26.060  40.286  49.056  1.00  0.00    -0.123 NA
HETATM    5  N   UNL     1      25.017  41.060  49.474  1.00  0.00    -0.132 NA
ENDROOT
BRANCH   1   6
HETATM    6  C   UNL     1      24.629  42.929  51.071  1.00  0.00     0.256 C 
BRANCH   6   7
HETATM    7  O   UNL     1      25.102  44.232  50.745  1.00  0.00    -0.344 OA
BRANCH   7   8
HETATM    8  C   UNL     1      25.363  45.066  51.798  1.00  0.00     0.069 A 
HETATM    9  C   UNL     1      25.941  46.287  51.445  1.00  0.00     0.037 A 
HETATM   10  C   UNL     1      26.243  47.239  52.421  1.00  0.00     0.009 A 
HETATM   11  C   UNL     1      25.984  46.975  53.768  1.00  0.00    -0.062 A 
HETATM   12  C   UNL     1      26.262  48.005  54.823  1.00  0.00     0.048 C 
HETATM   13  C   UNL     1      25.409  45.749  54.120  1.00  0.00     0.009 A 
HETATM   14  C   UNL     1      25.106  44.796  53.142  1.00  0.00     0.037 A 
ENDBRANCH   7   8
ENDBRANCH   6   7
ENDBRANCH   1   6
BRANCH   2  15
HETATM   15  C   UNL     1      27.731  42.470  51.386  1.00  0.00     0.137 C 
BRANCH  15  16
HETATM   16  C   UNL     1      27.754  41.922  52.813  1.00  0.00     0.059 C 
BRANCH  16  17
HETATM   17  C   UNL     1      28.600  42.767  53.731  1.00  0.00    -0.057 A 
HETATM   18  C   UNL     1      28.074  43.914  54.339  1.00  0.00     0.007 A 
HETATM   19  C   UNL     1      28.870  44.693  55.181  1.00  0.00     0.001 A 
HETATM   20  C   UNL     1      30.196  44.336  55.420  1.00  0.00     0.000 A 
HETATM   21  C   UNL     1      30.729  43.200  54.816  1.00  0.00     0.001 A 
HETATM   22  C   UNL     1      29.937  42.421  53.972  1.00  0.00     0.007 A 
ENDBRANCH  16  17
ENDBRANCH  15  16
ENDBRANCH   2  15
BRANCH   3  23
HETATM   23  S   UNL     1      28.731  40.072  49.411  1.00  0.00    -0.081 SA
BRANCH  23  24
HETATM   24  C   UNL     1      28.397  38.285  49.442  1.00  0.00     0.185 C 
BRANCH  24  25
HETATM   25  C   UNL     1      29.443  37.552  50.266  1.00  0.00     0.226 C 
HETATM   26  N   UNL     1      28.943  36.535  51.053  1.00  0.00    -0.365 N 
HETATM   27  C   UNL     1      29.828  35.683  51.805  1.00  0.00     0.149 C 
HETATM   28  H   UNL     1      28.044  36.140  50.773  1.00  0.00     0.161 HD
HETATM   29  O   UNL     1      30.634  37.855  50.233  1.00  0.00    -0.273 OA
ENDBRANCH  24  25
ENDBRANCH  23  24
ENDBRANCH   3  23
TORSDOF 9
ENDMDL
