MODEL 1
REMARK VINA RESULT:      -9.2      0.000      0.000
REMARK  7 active torsions:
REMARK  status: ('A' for Active; 'I' for Inactive)
REMARK    1  A    between atoms: C_2  and  O_3 
REMARK    2  A    between atoms: O_3  and  C_4 
REMARK    3  A    between atoms: C_7  and  N_8 
REMARK    4  A    between atoms: C_9  and  O_10 
REMARK    5  A    between atoms: C_9  and  C_11 
REMARK       I    between atoms: C_11  and  N_12 
REMARK    6  A    between atoms: N_12  and  C_13 
REMARK    7  A    between atoms: C_13  and  C_14 
ROOT
HETATM    1  N   UNL     1      26.780  42.678  50.873  1.00  0.00    -0.254 N 
HETATM    2  C   UNL     1      25.736  43.711  50.752  1.00  0.00     0.256 C 
HETATM    3  C   UNL     1      24.620  43.294  49.821  1.00  0.00     0.034 A 
HETATM    4  C   UNL     1      24.939  42.426  48.781  1.00  0.00     0.048 A 
HETATM    5  N   UNL     1      26.237  41.926  48.712  1.00  0.00    -0.308 N 
HETATM    6  C   UNL     1      27.157  41.980  49.730  1.00  0.00     0.330 C 
HETATM    7  O   UNL     1      28.206  41.358  49.577  1.00  0.00    -0.246 OA
HETATM    8  C   UNL     1      23.316  43.807  49.896  1.00  0.00     0.015 A 
HETATM    9  C   UNL     1      22.357  43.440  48.950  1.00  0.00     0.001 A 
HETATM   10  C   UNL     1      22.699  42.575  47.911  1.00  0.00     0.002 A 
HETATM   11  C   UNL     1      23.996  42.072  47.819  1.00  0.00     0.030 A 
HETATM   12  H   UNL     1      26.496  41.299  47.960  1.00  0.00     0.170 HD
ENDROOT
BRANCH   2  13
HETATM   13  O   UNL     1      25.131  43.982  52.022  1.00  0.00    -0.359 OA
HETATM   14  H   UNL     1      25.882  44.004  52.648  1.00  0.00     0.213 HD
ENDBRANCH   2  13
BRANCH   2  15
HETATM   15  C   UNL     1      26.412  45.053  50.239  1.00  0.00     0.279 C 
HETATM   16  N   UNL     1      26.067  46.226  50.878  1.00  0.00    -0.352 N 
HETATM   17  H   UNL     1      25.472  46.196  51.698  1.00  0.00     0.162 HD
HETATM   18  O   UNL     1      27.205  45.039  49.291  1.00  0.00    -0.268 OA
BRANCH  16  19
HETATM   19  C   UNL     1      26.683  47.481  50.531  1.00  0.00     0.161 C 
BRANCH  19  20
HETATM   20  C   UNL     1      25.772  48.298  49.655  1.00  0.00    -0.038 A 
HETATM   21  C   UNL     1      24.388  48.054  49.654  1.00  0.00     0.048 A 
HETATM   22  C   UNL     1      23.594  48.807  48.814  1.00  0.00     0.105 A 
HETATM   23  C   UNL     1      24.122  49.769  47.987  1.00  0.00     0.105 A 
HETATM   24  O   UNL     1      22.243  48.702  48.691  1.00  0.00    -0.323 OA
HETATM   25  O   UNL     1      23.171  50.393  47.243  1.00  0.00    -0.323 OA
HETATM   26  C   UNL     1      25.475  50.029  47.949  1.00  0.00     0.040 A 
HETATM   27  C   UNL     1      21.981  49.723  47.706  1.00  0.00     0.352 A 
HETATM   28  C   UNL     1      26.306  49.281  48.790  1.00  0.00     0.012 A 
ENDBRANCH  19  20
ENDBRANCH  16  19
ENDBRANCH   2  15
BRANCH   1  29
HETATM   29  C   UNL     1      27.636  42.688  52.020  1.00  0.00     0.043 A 
HETATM   30  C   UNL     1      28.499  43.755  52.289  1.00  0.00     0.032 A 
HETATM   31  C   UNL     1      29.332  43.738  53.420  1.00  0.00     0.039 A 
HETATM   32  C   UNL     1      29.319  42.647  54.284  1.00  0.00     0.068 A 
HETATM   33  C   UNL     1      28.491  41.563  53.999  1.00  0.00     0.039 A 
HETATM   34  C   UNL     1      27.658  41.583  52.878  1.00  0.00     0.032 A 
BRANCH  32  35
HETATM   35  O   UNL     1      30.075  42.502  55.414  1.00  0.00    -0.352 OA
BRANCH  35  36
HETATM   36  C   UNL     1      30.968  43.568  55.732  1.00  0.00     0.171 C 
HETATM   37  C   UNL     1      31.565  43.275  57.097  1.00  0.00     0.034 C 
ENDBRANCH  35  36
ENDBRANCH  32  35
ENDBRANCH   1  29
TORSDOF 7
ENDMDL
MODEL 2
REMARK VINA RESULT:      -9.1      2.226      6.714
REMARK  7 active torsions:
REMARK  status: ('A' for Active; 'I' for Inactive)
REMARK    1  A    between atoms: C_2  and  O_3 
REMARK    2  A    between atoms: O_3  and  C_4 
REMARK    3  A    between atoms: C_7  and  N_8 
REMARK    4  A    between atoms: C_9  and  O_10 
REMARK    5  A    between atoms: C_9  and  C_11 
REMARK       I    between atoms: C_11  and  N_12 
REMARK    6  A    between atoms: N_12  and  C_13 
REMARK    7  A    between atoms: C_13  and  C_14 
ROOT
HETATM    1  N   UNL     1      26.186  45.867  49.715  1.00  0.00    -0.254 N 
HETATM    2  C   UNL     1      24.952  46.428  50.294  1.00  0.00     0.256 C 
HETATM    3  C   UNL     1      24.561  47.739  49.651  1.00  0.00     0.034 A 
HETATM    4  C   UNL     1      25.580  48.538  49.144  1.00  0.00     0.048 A 
HETATM    5  N   UNL     1      26.883  48.047  49.177  1.00  0.00    -0.308 N 
HETATM    6  C   UNL     1      27.225  46.736  49.401  1.00  0.00     0.330 C 
HETATM    7  O   UNL     1      28.404  46.426  49.243  1.00  0.00    -0.246 OA
HETATM    8  C   UNL     1      23.245  48.227  49.627  1.00  0.00     0.015 A 
HETATM    9  C   UNL     1      22.968  49.486  49.091  1.00  0.00     0.001 A 
HETATM   10  C   UNL     1      24.005  50.275  48.594  1.00  0.00     0.002 A 
HETATM   11  C   UNL     1      25.318  49.805  48.628  1.00  0.00     0.030 A 
HETATM   12  H   UNL     1      27.644  48.613  48.820  1.00  0.00     0.170 HD
ENDROOT
BRANCH   2  13
HETATM   13  O   UNL     1      23.847  45.536  50.113  1.00  0.00    -0.359 OA
HETATM   14  H   UNL     1      24.261  44.657  49.999  1.00  0.00     0.213 HD
ENDBRANCH   2  13
BRANCH   2  15
HETATM   15  C   UNL     1      25.171  46.620  51.855  1.00  0.00     0.279 C 
HETATM   16  N   UNL     1      24.964  45.526  52.668  1.00  0.00    -0.352 N 
HETATM   17  H   UNL     1      24.768  44.621  52.254  1.00  0.00     0.162 HD
HETATM   18  O   UNL     1      25.499  47.719  52.317  1.00  0.00    -0.268 OA
BRANCH  16  19
HETATM   19  C   UNL     1      25.209  45.585  54.087  1.00  0.00     0.161 C 
BRANCH  19  20
HETATM   20  C   UNL     1      26.654  45.289  54.390  1.00  0.00    -0.038 A 
HETATM   21  C   UNL     1      27.148  43.979  54.265  1.00  0.00     0.048 A 
HETATM   22  C   UNL     1      28.471  43.750  54.580  1.00  0.00     0.105 A 
HETATM   23  C   UNL     1      29.299  44.757  55.014  1.00  0.00     0.105 A 
HETATM   24  O   UNL     1      29.107  42.549  54.513  1.00  0.00    -0.323 OA
HETATM   25  O   UNL     1      30.560  44.319  55.271  1.00  0.00    -0.323 OA
HETATM   26  C   UNL     1      28.849  46.051  55.163  1.00  0.00     0.040 A 
HETATM   27  C   UNL     1      30.435  42.922  54.936  1.00  0.00     0.352 A 
HETATM   28  C   UNL     1      27.511  46.315  54.851  1.00  0.00     0.012 A 
ENDBRANCH  19  20
ENDBRANCH  16  19
ENDBRANCH   2  15
BRANCH   1  29
HETATM   29  C   UNL     1      26.442  44.466  49.854  1.00  0.00     0.043 A 
HETATM   30  C   UNL     1      25.734  43.508  49.121  1.00  0.00     0.032 A 
HETATM   31  C   UNL     1      26.003  42.139  49.278  1.00  0.00     0.039 A 
HETATM   32  C   UNL     1      26.973  41.714  50.183  1.00  0.00     0.068 A 
HETATM   33  C   UNL     1      27.652  42.661  50.945  1.00  0.00     0.039 A 
HETATM   34  C   UNL     1      27.390  44.023  50.783  1.00  0.00     0.032 A 
BRANCH  32  35
HETATM   35  O   UNL     1      27.332  40.419  50.433  1.00  0.00    -0.352 OA
BRANCH  35  36
HETATM   36  C   UNL     1      27.501  39.567  49.301  1.00  0.00     0.171 C 
HETATM   37  C   UNL     1      28.849  39.887  48.682  1.00  0.00     0.034 C 
ENDBRANCH  35  36
ENDBRANCH  32  35
ENDBRANCH   1  29
TORSDOF 7
ENDMDL
MODEL 3
REMARK VINA RESULT:      -8.7      4.912     10.689
REMARK  7 active torsions:
REMARK  status: ('A' for Active; 'I' for Inactive)
REMARK    1  A    between atoms: C_2  and  O_3 
REMARK    2  A    between atoms: O_3  and  C_4 
REMARK    3  A    between atoms: C_7  and  N_8 
REMARK    4  A    between atoms: C_9  and  O_10 
REMARK    5  A    between atoms: C_9  and  C_11 
REMARK       I    between atoms: C_11  and  N_12 
REMARK    6  A    between atoms: N_12  and  C_13 
REMARK    7  A    between atoms: C_13  and  C_14 
ROOT
HETATM    1  N   UNL     1      18.338  49.378  49.046  1.00  0.00    -0.254 N 
HETATM    2  C   UNL     1      19.011  49.125  47.760  1.00  0.00     0.256 C 
HETATM    3  C   UNL     1      19.378  47.669  47.581  1.00  0.00     0.034 A 
HETATM    4  C   UNL     1      19.647  46.927  48.726  1.00  0.00     0.048 A 
HETATM    5  N   UNL     1      19.477  47.538  49.965  1.00  0.00    -0.308 N 
HETATM    6  C   UNL     1      18.798  48.713  50.177  1.00  0.00     0.330 C 
HETATM    7  O   UNL     1      18.596  49.046  51.344  1.00  0.00    -0.246 OA
HETATM    8  C   UNL     1      19.550  47.063  46.326  1.00  0.00     0.015 A 
HETATM    9  C   UNL     1      19.972  45.736  46.236  1.00  0.00     0.001 A 
HETATM   10  C   UNL     1      20.245  45.011  47.396  1.00  0.00     0.002 A 
HETATM   11  C   UNL     1      20.091  45.609  48.646  1.00  0.00     0.030 A 
HETATM   12  H   UNL     1      19.674  47.021  50.814  1.00  0.00     0.170 HD
ENDROOT
BRANCH   2  13
HETATM   13  O   UNL     1      18.164  49.474  46.659  1.00  0.00    -0.359 OA
HETATM   14  H   UNL     1      18.397  50.402  46.458  1.00  0.00     0.213 HD
ENDBRANCH   2  13
BRANCH   2  15
HETATM   15  C   UNL     1      20.309  50.037  47.683  1.00  0.00     0.279 C 
HETATM   16  N   UNL     1      21.533  49.414  47.805  1.00  0.00    -0.352 N 
HETATM   17  H   UNL     1      21.581  48.402  47.852  1.00  0.00     0.162 HD
HETATM   18  O   UNL     1      20.215  51.260  47.535  1.00  0.00    -0.268 OA
BRANCH  16  19
HETATM   19  C   UNL     1      22.767  50.147  47.675  1.00  0.00     0.161 C 
BRANCH  19  20
HETATM   20  C   UNL     1      23.893  49.419  48.359  1.00  0.00    -0.038 A 
HETATM   21  C   UNL     1      23.620  48.339  49.215  1.00  0.00     0.048 A 
HETATM   22  C   UNL     1      24.681  47.721  49.842  1.00  0.00     0.105 A 
HETATM   23  C   UNL     1      25.977  48.137  49.656  1.00  0.00     0.105 A 
HETATM   24  O   UNL     1      24.594  46.665  50.696  1.00  0.00    -0.323 OA
HETATM   25  O   UNL     1      26.868  47.395  50.366  1.00  0.00    -0.323 OA
HETATM   26  C   UNL     1      26.285  49.201  48.836  1.00  0.00     0.040 A 
HETATM   27  C   UNL     1      25.986  46.453  51.010  1.00  0.00     0.352 A 
HETATM   28  C   UNL     1      25.230  49.849  48.186  1.00  0.00     0.012 A 
ENDBRANCH  19  20
ENDBRANCH  16  19
ENDBRANCH   2  15
BRANCH   1  29
HETATM   29  C   UNL     1      17.526  50.549  49.186  1.00  0.00     0.043 A 
HETATM   30  C   UNL     1      17.998  51.705  49.818  1.00  0.00     0.032 A 
HETATM   31  C   UNL     1      17.181  52.839  49.945  1.00  0.00     0.039 A 
HETATM   32  C   UNL     1      15.877  52.823  49.454  1.00  0.00     0.068 A 
HETATM   33  C   UNL     1      15.389  51.662  48.861  1.00  0.00     0.039 A 
HETATM   34  C   UNL     1      16.204  50.536  48.728  1.00  0.00     0.032 A 
BRANCH  32  35
HETATM   35  O   UNL     1      14.980  53.853  49.512  1.00  0.00    -0.352 OA
BRANCH  35  36
HETATM   36  C   UNL     1      14.007  53.802  50.554  1.00  0.00     0.171 C 
HETATM   37  C   UNL     1      14.501  54.683  51.687  1.00  0.00     0.034 C 
ENDBRANCH  35  36
ENDBRANCH  32  35
ENDBRANCH   1  29
TORSDOF 7
ENDMDL
MODEL 4
REMARK VINA RESULT:      -8.6      9.207     12.763
REMARK  7 active torsions:
REMARK  status: ('A' for Active; 'I' for Inactive)
REMARK    1  A    between atoms: C_2  and  O_3 
REMARK    2  A    between atoms: O_3  and  C_4 
REMARK    3  A    between atoms: C_7  and  N_8 
REMARK    4  A    between atoms: C_9  and  O_10 
REMARK    5  A    between atoms: C_9  and  C_11 
REMARK       I    between atoms: C_11  and  N_12 
REMARK    6  A    between atoms: N_12  and  C_13 
REMARK    7  A    between atoms: C_13  and  C_14 
ROOT
HETATM    1  N   UNL     1      27.379  48.737  40.110  1.00  0.00    -0.254 N 
HETATM    2  C   UNL     1      28.068  49.653  41.035  1.00  0.00     0.256 C 
HETATM    3  C   UNL     1      28.391  50.983  40.392  1.00  0.00     0.034 A 
HETATM    4  C   UNL     1      28.614  50.997  39.019  1.00  0.00     0.048 A 
HETATM    5  N   UNL     1      28.440  49.812  38.308  1.00  0.00    -0.308 N 
HETATM    6  C   UNL     1      27.795  48.697  38.784  1.00  0.00     0.330 C 
HETATM    7  O   UNL     1      27.582  47.785  37.986  1.00  0.00    -0.246 OA
HETATM    8  C   UNL     1      28.568  52.171  41.117  1.00  0.00     0.015 A 
HETATM    9  C   UNL     1      28.949  53.345  40.466  1.00  0.00     0.001 A 
HETATM   10  C   UNL     1      29.176  53.338  39.090  1.00  0.00     0.002 A 
HETATM   11  C   UNL     1      29.016  52.158  38.362  1.00  0.00     0.030 A 
HETATM   12  H   UNL     1      28.604  49.795  37.308  1.00  0.00     0.170 HD
ENDROOT
BRANCH   2  13
HETATM   13  O   UNL     1      27.255  49.938  42.179  1.00  0.00    -0.359 OA
HETATM   14  H   UNL     1      27.548  49.291  42.852  1.00  0.00     0.213 HD
ENDBRANCH   2  13
BRANCH   2  15
HETATM   15  C   UNL     1      29.397  48.948  41.546  1.00  0.00     0.279 C 
HETATM   16  N   UNL     1      30.555  49.181  40.835  1.00  0.00    -0.352 N 
HETATM   17  H   UNL     1      30.554  49.850  40.074  1.00  0.00     0.162 HD
HETATM   18  O   UNL     1      29.379  48.207  42.535  1.00  0.00    -0.268 OA
BRANCH  16  19
HETATM   19  C   UNL     1      31.823  48.645  41.265  1.00  0.00     0.161 C 
BRANCH  19  20
HETATM   20  C   UNL     1      32.629  49.695  41.980  1.00  0.00    -0.038 A 
HETATM   21  C   UNL     1      33.977  49.904  41.642  1.00  0.00     0.048 A 
HETATM   22  C   UNL     1      34.684  50.858  42.343  1.00  0.00     0.105 A 
HETATM   23  C   UNL     1      34.109  51.589  43.355  1.00  0.00     0.105 A 
HETATM   24  O   UNL     1      35.989  51.187  42.143  1.00  0.00    -0.323 OA
HETATM   25  O   UNL     1      34.978  52.472  43.916  1.00  0.00    -0.323 OA
HETATM   26  C   UNL     1      32.796  51.405  43.726  1.00  0.00     0.040 A 
HETATM   27  C   UNL     1      36.163  52.222  43.132  1.00  0.00     0.352 A 
HETATM   28  C   UNL     1      32.052  50.444  43.033  1.00  0.00     0.012 A 
ENDBRANCH  19  20
ENDBRANCH  16  19
ENDBRANCH   2  15
BRANCH   1  29
HETATM   29  C   UNL     1      26.604  47.661  40.649  1.00  0.00     0.043 A 
HETATM   30  C   UNL     1      27.195  46.476  41.098  1.00  0.00     0.032 A 
HETATM   31  C   UNL     1      26.411  45.434  41.620  1.00  0.00     0.039 A 
HETATM   32  C   UNL     1      25.026  45.562  41.682  1.00  0.00     0.068 A 
HETATM   33  C   UNL     1      24.428  46.723  41.198  1.00  0.00     0.039 A 
HETATM   34  C   UNL     1      25.209  47.762  40.686  1.00  0.00     0.032 A 
BRANCH  32  35
HETATM   35  O   UNL     1      24.149  44.630  42.163  1.00  0.00    -0.352 OA
BRANCH  35  36
HETATM   36  C   UNL     1      24.125  44.437  43.576  1.00  0.00     0.171 C 
HETATM   37  C   UNL     1      22.758  44.866  44.076  1.00  0.00     0.034 C 
ENDBRANCH  35  36
ENDBRANCH  32  35
ENDBRANCH   1  29
TORSDOF 7
ENDMDL
MODEL 5
REMARK VINA RESULT:      -8.4      5.727      9.853
REMARK  7 active torsions:
REMARK  status: ('A' for Active; 'I' for Inactive)
REMARK    1  A    between atoms: C_2  and  O_3 
REMARK    2  A    between atoms: O_3  and  C_4 
REMARK    3  A    between atoms: C_7  and  N_8 
REMARK    4  A    between atoms: C_9  and  O_10 
REMARK    5  A    between atoms: C_9  and  C_11 
REMARK       I    between atoms: C_11  and  N_12 
REMARK    6  A    between atoms: N_12  and  C_13 
REMARK    7  A    between atoms: C_13  and  C_14 
ROOT
HETATM    1  N   UNL     1      19.513  50.296  48.779  1.00  0.00    -0.254 N 
HETATM    2  C   UNL     1      18.862  50.262  47.457  1.00  0.00     0.256 C 
HETATM    3  C   UNL     1      17.624  51.130  47.404  1.00  0.00     0.034 A 
HETATM    4  C   UNL     1      16.913  51.310  48.585  1.00  0.00     0.048 A 
HETATM    5  N   UNL     1      17.425  50.759  49.757  1.00  0.00    -0.308 N 
HETATM    6  C   UNL     1      18.709  50.298  49.914  1.00  0.00     0.330 C 
HETATM    7  O   UNL     1      19.062  49.986  51.050  1.00  0.00    -0.246 OA
HETATM    8  C   UNL     1      17.113  51.678  46.217  1.00  0.00     0.015 A 
HETATM    9  C   UNL     1      15.919  52.399  46.230  1.00  0.00     0.001 A 
HETATM   10  C   UNL     1      15.215  52.562  47.423  1.00  0.00     0.002 A 
HETATM   11  C   UNL     1      15.708  52.009  48.605  1.00  0.00     0.030 A 
HETATM   12  H   UNL     1      16.921  50.870  50.629  1.00  0.00     0.170 HD
ENDROOT
BRANCH   2  13
HETATM   13  O   UNL     1      19.744  50.742  46.436  1.00  0.00    -0.359 OA
HETATM   14  H   UNL     1      19.558  50.168  45.666  1.00  0.00     0.213 HD
ENDBRANCH   2  13
BRANCH   2  15
HETATM   15  C   UNL     1      18.495  48.755  47.115  1.00  0.00     0.279 C 
HETATM   16  N   UNL     1      19.169  48.157  46.071  1.00  0.00    -0.352 N 
HETATM   17  H   UNL     1      19.927  48.649  45.612  1.00  0.00     0.162 HD
HETATM   18  O   UNL     1      17.626  48.154  47.757  1.00  0.00    -0.268 OA
BRANCH  16  19
HETATM   19  C   UNL     1      18.957  46.771  45.735  1.00  0.00     0.161 C 
BRANCH  19  20
HETATM   20  C   UNL     1      20.142  45.938  46.145  1.00  0.00    -0.038 A 
HETATM   21  C   UNL     1      20.204  45.386  47.436  1.00  0.00     0.048 A 
HETATM   22  C   UNL     1      21.322  44.653  47.777  1.00  0.00     0.105 A 
HETATM   23  C   UNL     1      22.360  44.461  46.898  1.00  0.00     0.105 A 
HETATM   24  O   UNL     1      21.541  44.051  48.977  1.00  0.00    -0.323 OA
HETATM   25  O   UNL     1      23.362  43.713  47.432  1.00  0.00    -0.323 OA
HETATM   26  C   UNL     1      22.343  44.997  45.629  1.00  0.00     0.040 A 
HETATM   27  C   UNL     1      22.829  43.442  48.744  1.00  0.00     0.352 A 
HETATM   28  C   UNL     1      21.222  45.746  45.253  1.00  0.00     0.012 A 
ENDBRANCH  19  20
ENDBRANCH  16  19
ENDBRANCH   2  15
BRANCH   1  29
HETATM   29  C   UNL     1      20.894  49.936  48.881  1.00  0.00     0.043 A 
HETATM   30  C   UNL     1      21.305  48.602  48.974  1.00  0.00     0.032 A 
HETATM   31  C   UNL     1      22.666  48.274  49.077  1.00  0.00     0.039 A 
HETATM   32  C   UNL     1      23.630  49.280  49.103  1.00  0.00     0.068 A 
HETATM   33  C   UNL     1      23.223  50.611  49.052  1.00  0.00     0.039 A 
HETATM   34  C   UNL     1      21.870  50.936  48.942  1.00  0.00     0.032 A 
BRANCH  32  35
HETATM   35  O   UNL     1      24.981  49.101  49.199  1.00  0.00    -0.352 OA
BRANCH  35  36
HETATM   36  C   UNL     1      25.791  49.782  48.243  1.00  0.00     0.171 C 
HETATM   37  C   UNL     1      27.223  49.749  48.746  1.00  0.00     0.034 C 
ENDBRANCH  35  36
ENDBRANCH  32  35
ENDBRANCH   1  29
TORSDOF 7
ENDMDL
MODEL 6
REMARK VINA RESULT:      -8.3      3.854      5.840
REMARK  7 active torsions:
REMARK  status: ('A' for Active; 'I' for Inactive)
REMARK    1  A    between atoms: C_2  and  O_3 
REMARK    2  A    between atoms: O_3  and  C_4 
REMARK    3  A    between atoms: C_7  and  N_8 
REMARK    4  A    between atoms: C_9  and  O_10 
REMARK    5  A    between atoms: C_9  and  C_11 
REMARK       I    between atoms: C_11  and  N_12 
REMARK    6  A    between atoms: N_12  and  C_13 
REMARK    7  A    between atoms: C_13  and  C_14 
ROOT
HETATM    1  N   UNL     1      22.096  44.442  48.111  1.00  0.00    -0.254 N 
HETATM    2  C   UNL     1      20.904  45.290  48.283  1.00  0.00     0.256 C 
HETATM    3  C   UNL     1      19.803  44.938  47.307  1.00  0.00     0.034 A 
HETATM    4  C   UNL     1      20.178  44.413  46.075  1.00  0.00     0.048 A 
HETATM    5  N   UNL     1      21.529  44.162  45.846  1.00  0.00    -0.308 N 
HETATM    6  C   UNL     1      22.496  44.114  46.820  1.00  0.00     0.330 C 
HETATM    7  O   UNL     1      23.614  43.726  46.486  1.00  0.00    -0.246 OA
HETATM    8  C   UNL     1      18.445  45.199  47.545  1.00  0.00     0.015 A 
HETATM    9  C   UNL     1      17.491  44.923  46.564  1.00  0.00     0.001 A 
HETATM   10  C   UNL     1      17.888  44.405  45.332  1.00  0.00     0.002 A 
HETATM   11  C   UNL     1      19.237  44.156  45.080  1.00  0.00     0.030 A 
HETATM   12  H   UNL     1      21.828  43.787  44.954  1.00  0.00     0.170 HD
ENDROOT
BRANCH   2  13
HETATM   13  O   UNL     1      20.351  45.141  49.596  1.00  0.00    -0.359 OA
HETATM   14  H   UNL     1      21.013  45.556  50.185  1.00  0.00     0.213 HD
ENDBRANCH   2  13
BRANCH   2  15
HETATM   15  C   UNL     1      21.335  46.808  48.105  1.00  0.00     0.279 C 
HETATM   16  N   UNL     1      21.008  47.686  49.116  1.00  0.00    -0.352 N 
HETATM   17  H   UNL     1      20.588  47.337  49.970  1.00  0.00     0.162 HD
HETATM   18  O   UNL     1      21.928  47.182  47.086  1.00  0.00    -0.268 OA
BRANCH  16  19
HETATM   19  C   UNL     1      21.422  49.066  49.078  1.00  0.00     0.161 C 
BRANCH  19  20
HETATM   20  C   UNL     1      20.234  49.973  48.895  1.00  0.00    -0.038 A 
HETATM   21  C   UNL     1      18.937  49.436  48.842  1.00  0.00     0.048 A 
HETATM   22  C   UNL     1      17.882  50.302  48.645  1.00  0.00     0.105 A 
HETATM   23  C   UNL     1      18.071  51.654  48.494  1.00  0.00     0.105 A 
HETATM   24  O   UNL     1      16.569  49.951  48.571  1.00  0.00    -0.323 OA
HETATM   25  O   UNL     1      16.903  52.325  48.310  1.00  0.00    -0.323 OA
HETATM   26  C   UNL     1      19.328  52.218  48.526  1.00  0.00     0.040 A 
HETATM   27  C   UNL     1      15.954  51.241  48.376  1.00  0.00     0.352 A 
HETATM   28  C   UNL     1      20.419  51.365  48.725  1.00  0.00     0.012 A 
ENDBRANCH  19  20
ENDBRANCH  16  19
ENDBRANCH   2  15
BRANCH   1  29
HETATM   29  C   UNL     1      23.016  44.310  49.199  1.00  0.00     0.043 A 
HETATM   30  C   UNL     1      23.829  45.371  49.614  1.00  0.00     0.032 A 
HETATM   31  C   UNL     1      24.725  45.215  50.683  1.00  0.00     0.039 A 
HETATM   32  C   UNL     1      24.829  43.990  51.338  1.00  0.00     0.068 A 
HETATM   33  C   UNL     1      24.052  42.919  50.904  1.00  0.00     0.039 A 
HETATM   34  C   UNL     1      23.155  43.077  49.845  1.00  0.00     0.032 A 
BRANCH  32  35
HETATM   35  O   UNL     1      25.657  43.703  52.388  1.00  0.00    -0.352 OA
BRANCH  35  36
HETATM   36  C   UNL     1      25.372  44.348  53.628  1.00  0.00     0.171 C 
HETATM   37  C   UNL     1      26.366  43.833  54.652  1.00  0.00     0.034 C 
ENDBRANCH  35  36
ENDBRANCH  32  35
ENDBRANCH   1  29
TORSDOF 7
ENDMDL
MODEL 7
REMARK VINA RESULT:      -8.2      4.632      8.727
REMARK  7 active torsions:
REMARK  status: ('A' for Active; 'I' for Inactive)
REMARK    1  A    between atoms: C_2  and  O_3 
REMARK    2  A    between atoms: O_3  and  C_4 
REMARK    3  A    between atoms: C_7  and  N_8 
REMARK    4  A    between atoms: C_9  and  O_10 
REMARK    5  A    between atoms: C_9  and  C_11 
REMARK       I    between atoms: C_11  and  N_12 
REMARK    6  A    between atoms: N_12  and  C_13 
REMARK    7  A    between atoms: C_13  and  C_14 
ROOT
HETATM    1  N   UNL     1      19.164  48.342  47.755  1.00  0.00    -0.254 N 
HETATM    2  C   UNL     1      19.398  49.466  48.678  1.00  0.00     0.256 C 
HETATM    3  C   UNL     1      18.195  50.375  48.794  1.00  0.00     0.034 A 
HETATM    4  C   UNL     1      17.354  50.474  47.690  1.00  0.00     0.048 A 
HETATM    5  N   UNL     1      17.617  49.671  46.584  1.00  0.00    -0.308 N 
HETATM    6  C   UNL     1      18.456  48.584  46.583  1.00  0.00     0.330 C 
HETATM    7  O   UNL     1      18.466  47.879  45.575  1.00  0.00    -0.246 OA
HETATM    8  C   UNL     1      17.940  51.184  49.913  1.00  0.00     0.015 A 
HETATM    9  C   UNL     1      16.855  52.061  49.916  1.00  0.00     0.001 A 
HETATM   10  C   UNL     1      16.028  52.153  48.797  1.00  0.00     0.002 A 
HETATM   11  C   UNL     1      16.282  51.364  47.675  1.00  0.00     0.030 A 
HETATM   12  H   UNL     1      17.024  49.731  45.765  1.00  0.00     0.170 HD
ENDROOT
BRANCH   2  13
HETATM   13  O   UNL     1      19.685  48.996  50.000  1.00  0.00    -0.359 OA
HETATM   14  H   UNL     1      19.399  48.060  49.992  1.00  0.00     0.213 HD
ENDBRANCH   2  13
BRANCH   2  15
HETATM   15  C   UNL     1      20.660  50.283  48.167  1.00  0.00     0.279 C 
HETATM   16  N   UNL     1      21.766  50.328  48.989  1.00  0.00    -0.352 N 
HETATM   17  H   UNL     1      21.783  49.779  49.842  1.00  0.00     0.162 HD
HETATM   18  O   UNL     1      20.637  50.867  47.078  1.00  0.00    -0.268 OA
BRANCH  16  19
HETATM   19  C   UNL     1      22.984  50.982  48.579  1.00  0.00     0.161 C 
BRANCH  19  20
HETATM   20  C   UNL     1      24.156  50.045  48.697  1.00  0.00    -0.038 A 
HETATM   21  C   UNL     1      24.005  48.799  49.328  1.00  0.00     0.048 A 
HETATM   22  C   UNL     1      25.113  47.986  49.439  1.00  0.00     0.105 A 
HETATM   23  C   UNL     1      26.343  48.367  48.959  1.00  0.00     0.105 A 
HETATM   24  O   UNL     1      25.141  46.754  50.015  1.00  0.00    -0.323 OA
HETATM   25  O   UNL     1      27.299  47.423  49.170  1.00  0.00    -0.323 OA
HETATM   26  C   UNL     1      26.536  49.586  48.347  1.00  0.00     0.040 A 
HETATM   27  C   UNL     1      26.526  46.397  49.826  1.00  0.00     0.352 A 
HETATM   28  C   UNL     1      25.430  50.433  48.220  1.00  0.00     0.012 A 
ENDBRANCH  19  20
ENDBRANCH  16  19
ENDBRANCH   2  15
BRANCH   1  29
HETATM   29  C   UNL     1      19.973  47.168  47.873  1.00  0.00     0.043 A 
HETATM   30  C   UNL     1      21.260  47.099  47.329  1.00  0.00     0.032 A 
HETATM   31  C   UNL     1      22.033  45.934  47.455  1.00  0.00     0.039 A 
HETATM   32  C   UNL     1      21.520  44.820  48.115  1.00  0.00     0.068 A 
HETATM   33  C   UNL     1      20.224  44.868  48.623  1.00  0.00     0.039 A 
HETATM   34  C   UNL     1      19.458  46.030  48.503  1.00  0.00     0.032 A 
BRANCH  32  35
HETATM   35  O   UNL     1      22.162  43.628  48.307  1.00  0.00    -0.352 OA
BRANCH  35  36
HETATM   36  C   UNL     1      23.505  43.690  48.782  1.00  0.00     0.171 C 
HETATM   37  C   UNL     1      23.469  43.513  50.290  1.00  0.00     0.034 C 
ENDBRANCH  35  36
ENDBRANCH  32  35
ENDBRANCH   1  29
TORSDOF 7
ENDMDL
MODEL 8
REMARK VINA RESULT:      -8.0      7.024     11.334
REMARK  7 active torsions:
REMARK  status: ('A' for Active; 'I' for Inactive)
REMARK    1  A    between atoms: C_2  and  O_3 
REMARK    2  A    between atoms: O_3  and  C_4 
REMARK    3  A    between atoms: C_7  and  N_8 
REMARK    4  A    between atoms: C_9  and  O_10 
REMARK    5  A    between atoms: C_9  and  C_11 
REMARK       I    between atoms: C_11  and  N_12 
REMARK    6  A    between atoms: N_12  and  C_13 
REMARK    7  A    between atoms: C_13  and  C_14 
ROOT
HETATM    1  N   UNL     1      18.232  51.020  48.366  1.00  0.00    -0.254 N 
HETATM    2  C   UNL     1      17.322  51.097  47.210  1.00  0.00     0.256 C 
HETATM    3  C   UNL     1      16.240  52.136  47.400  1.00  0.00     0.034 A 
HETATM    4  C   UNL     1      15.824  52.404  48.700  1.00  0.00     0.048 A 
HETATM    5  N   UNL     1      16.485  51.770  49.749  1.00  0.00    -0.308 N 
HETATM    6  C   UNL     1      17.692  51.124  49.643  1.00  0.00     0.330 C 
HETATM    7  O   UNL     1      18.226  50.750  50.686  1.00  0.00    -0.246 OA
HETATM    8  C   UNL     1      15.577  52.767  46.335  1.00  0.00     0.015 A 
HETATM    9  C   UNL     1      14.529  53.655  46.583  1.00  0.00     0.001 A 
HETATM   10  C   UNL     1      14.121  53.904  47.894  1.00  0.00     0.002 A 
HETATM   11  C   UNL     1      14.764  53.271  48.957  1.00  0.00     0.030 A 
HETATM   12  H   UNL     1      16.195  51.942  50.705  1.00  0.00     0.170 HD
ENDROOT
BRANCH   2  13
HETATM   13  O   UNL     1      18.032  51.456  46.019  1.00  0.00    -0.359 OA
HETATM   14  H   UNL     1      17.653  52.321  45.763  1.00  0.00     0.213 HD
ENDBRANCH   2  13
BRANCH   2  15
HETATM   15  C   UNL     1      16.678  49.664  46.980  1.00  0.00     0.279 C 
HETATM   16  N   UNL     1      17.076  48.958  45.864  1.00  0.00    -0.352 N 
HETATM   17  H   UNL     1      17.818  49.321  45.277  1.00  0.00     0.162 HD
HETATM   18  O   UNL     1      15.840  49.213  47.768  1.00  0.00    -0.268 OA
BRANCH  16  19
HETATM   19  C   UNL     1      16.603  47.620  45.611  1.00  0.00     0.161 C 
BRANCH  19  20
HETATM   20  C   UNL     1      17.613  46.603  46.071  1.00  0.00    -0.038 A 
HETATM   21  C   UNL     1      18.576  46.109  45.175  1.00  0.00     0.048 A 
HETATM   22  C   UNL     1      19.463  45.157  45.632  1.00  0.00     0.105 A 
HETATM   23  C   UNL     1      19.420  44.685  46.922  1.00  0.00     0.105 A 
HETATM   24  O   UNL     1      20.454  44.577  44.902  1.00  0.00    -0.323 OA
HETATM   25  O   UNL     1      20.379  43.753  47.167  1.00  0.00    -0.323 OA
HETATM   26  C   UNL     1      18.483  45.135  47.827  1.00  0.00     0.040 A 
HETATM   27  C   UNL     1      21.041  43.702  45.887  1.00  0.00     0.352 A 
HETATM   28  C   UNL     1      17.569  46.101  47.392  1.00  0.00     0.012 A 
ENDBRANCH  19  20
ENDBRANCH  16  19
ENDBRANCH   2  15
BRANCH   1  29
HETATM   29  C   UNL     1      19.537  50.461  48.185  1.00  0.00     0.043 A 
HETATM   30  C   UNL     1      19.733  49.091  47.978  1.00  0.00     0.032 A 
HETATM   31  C   UNL     1      21.024  48.567  47.806  1.00  0.00     0.039 A 
HETATM   32  C   UNL     1      22.134  49.407  47.855  1.00  0.00     0.068 A 
HETATM   33  C   UNL     1      21.949  50.765  48.102  1.00  0.00     0.039 A 
HETATM   34  C   UNL     1      20.664  51.287  48.265  1.00  0.00     0.032 A 
BRANCH  32  35
HETATM   35  O   UNL     1      23.439  49.030  47.705  1.00  0.00    -0.352 OA
BRANCH  35  36
HETATM   36  C   UNL     1      24.274  49.125  48.858  1.00  0.00     0.171 C 
HETATM   37  C   UNL     1      25.590  49.745  48.422  1.00  0.00     0.034 C 
ENDBRANCH  35  36
ENDBRANCH  32  35
ENDBRANCH   1  29
TORSDOF 7
ENDMDL
MODEL 9
REMARK VINA RESULT:      -7.8     12.841     15.428
REMARK  7 active torsions:
REMARK  status: ('A' for Active; 'I' for Inactive)
REMARK    1  A    between atoms: C_2  and  O_3 
REMARK    2  A    between atoms: O_3  and  C_4 
REMARK    3  A    between atoms: C_7  and  N_8 
REMARK    4  A    between atoms: C_9  and  O_10 
REMARK    5  A    between atoms: C_9  and  C_11 
REMARK       I    between atoms: C_11  and  N_12 
REMARK    6  A    between atoms: N_12  and  C_13 
REMARK    7  A    between atoms: C_13  and  C_14 
ROOT
HETATM    1  N   UNL     1      32.809  50.992  41.309  1.00  0.00    -0.254 N 
HETATM    2  C   UNL     1      32.184  52.025  40.465  1.00  0.00     0.256 C 
HETATM    3  C   UNL     1      30.914  51.537  39.806  1.00  0.00     0.034 A 
HETATM    4  C   UNL     1      30.816  50.178  39.523  1.00  0.00     0.048 A 
HETATM    5  N   UNL     1      31.846  49.340  39.940  1.00  0.00    -0.308 N 
HETATM    6  C   UNL     1      32.815  49.678  40.853  1.00  0.00     0.330 C 
HETATM    7  O   UNL     1      33.564  48.783  41.240  1.00  0.00    -0.246 OA
HETATM    8  C   UNL     1      29.882  52.390  39.385  1.00  0.00     0.015 A 
HETATM    9  C   UNL     1      28.775  51.878  38.706  1.00  0.00     0.001 A 
HETATM   10  C   UNL     1      28.699  50.514  38.425  1.00  0.00     0.002 A 
HETATM   11  C   UNL     1      29.726  49.660  38.826  1.00  0.00     0.030 A 
HETATM   12  H   UNL     1      31.802  48.348  39.740  1.00  0.00     0.170 HD
ENDROOT
BRANCH   2  13
HETATM   13  O   UNL     1      31.827  53.176  41.239  1.00  0.00    -0.359 OA
HETATM   14  H   UNL     1      32.457  53.170  41.987  1.00  0.00     0.213 HD
ENDBRANCH   2  13
BRANCH   2  15
HETATM   15  C   UNL     1      33.236  52.484  39.367  1.00  0.00     0.279 C 
HETATM   16  N   UNL     1      34.024  53.578  39.657  1.00  0.00    -0.352 N 
HETATM   17  H   UNL     1      33.979  54.001  40.576  1.00  0.00     0.162 HD
HETATM   18  O   UNL     1      33.326  51.885  38.289  1.00  0.00    -0.268 OA
BRANCH  16  19
HETATM   19  C   UNL     1      35.056  54.022  38.754  1.00  0.00     0.161 C 
BRANCH  19  20
HETATM   20  C   UNL     1      36.418  53.823  39.364  1.00  0.00    -0.038 A 
HETATM   21  C   UNL     1      36.896  54.720  40.334  1.00  0.00     0.048 A 
HETATM   22  C   UNL     1      38.160  54.514  40.845  1.00  0.00     0.105 A 
HETATM   23  C   UNL     1      38.951  53.471  40.425  1.00  0.00     0.105 A 
HETATM   24  O   UNL     1      38.772  55.282  41.787  1.00  0.00    -0.323 OA
HETATM   25  O   UNL     1      40.158  53.450  41.052  1.00  0.00    -0.323 OA
HETATM   26  C   UNL     1      38.525  52.579  39.467  1.00  0.00     0.040 A 
HETATM   27  C   UNL     1      40.031  54.591  41.925  1.00  0.00     0.352 A 
HETATM   28  C   UNL     1      37.246  52.761  38.930  1.00  0.00     0.012 A 
ENDBRANCH  19  20
ENDBRANCH  16  19
ENDBRANCH   2  15
BRANCH   1  29
HETATM   29  C   UNL     1      33.714  51.395  42.342  1.00  0.00     0.043 A 
HETATM   30  C   UNL     1      33.271  51.724  43.627  1.00  0.00     0.032 A 
HETATM   31  C   UNL     1      34.179  52.120  44.622  1.00  0.00     0.039 A 
HETATM   32  C   UNL     1      35.539  52.206  44.336  1.00  0.00     0.068 A 
HETATM   33  C   UNL     1      35.982  51.919  43.047  1.00  0.00     0.039 A 
HETATM   34  C   UNL     1      35.079  51.518  42.059  1.00  0.00     0.032 A 
BRANCH  32  35
HETATM   35  O   UNL     1      36.526  52.576  45.206  1.00  0.00    -0.352 OA
BRANCH  35  36
HETATM   36  C   UNL     1      37.633  53.290  44.659  1.00  0.00     0.171 C 
HETATM   37  C   UNL     1      37.689  54.644  45.343  1.00  0.00     0.034 C 
ENDBRANCH  35  36
ENDBRANCH  32  35
ENDBRANCH   1  29
TORSDOF 7
ENDMDL
MODEL 10
REMARK VINA RESULT:      -7.5      7.315     12.391
REMARK  7 active torsions:
REMARK  status: ('A' for Active; 'I' for Inactive)
REMARK    1  A    between atoms: C_2  and  O_3 
REMARK    2  A    between atoms: O_3  and  C_4 
REMARK    3  A    between atoms: C_7  and  N_8 
REMARK    4  A    between atoms: C_9  and  O_10 
REMARK    5  A    between atoms: C_9  and  C_11 
REMARK       I    between atoms: C_11  and  N_12 
REMARK    6  A    between atoms: N_12  and  C_13 
REMARK    7  A    between atoms: C_13  and  C_14 
ROOT
HETATM    1  N   UNL     1      16.012  51.132  46.882  1.00  0.00    -0.254 N 
HETATM    2  C   UNL     1      16.106  51.421  48.324  1.00  0.00     0.256 C 
HETATM    3  C   UNL     1      15.144  52.505  48.756  1.00  0.00     0.034 A 
HETATM    4  C   UNL     1      14.801  53.473  47.818  1.00  0.00     0.048 A 
HETATM    5  N   UNL     1      15.289  53.340  46.521  1.00  0.00    -0.308 N 
HETATM    6  C   UNL     1      15.843  52.195  46.002  1.00  0.00     0.330 C 
HETATM    7  O   UNL     1      16.083  52.181  44.796  1.00  0.00    -0.246 OA
HETATM    8  C   UNL     1      14.660  52.633  50.067  1.00  0.00     0.015 A 
HETATM    9  C   UNL     1      13.841  53.708  50.415  1.00  0.00     0.001 A 
HETATM   10  C   UNL     1      13.516  54.673  49.463  1.00  0.00     0.002 A 
HETATM   11  C   UNL     1      14.003  54.563  48.161  1.00  0.00     0.030 A 
HETATM   12  H   UNL     1      15.060  54.037  45.822  1.00  0.00     0.170 HD
ENDROOT
BRANCH   2  13
HETATM   13  O   UNL     1      15.794  50.261  49.103  1.00  0.00    -0.359 OA
HETATM   14  H   UNL     1      15.087  50.559  49.709  1.00  0.00     0.213 HD
ENDBRANCH   2  13
BRANCH   2  15
HETATM   15  C   UNL     1      17.600  51.843  48.656  1.00  0.00     0.279 C 
HETATM   16  N   UNL     1      18.210  51.235  49.733  1.00  0.00    -0.352 N 
HETATM   17  H   UNL     1      17.735  50.485  50.223  1.00  0.00     0.162 HD
HETATM   18  O   UNL     1      18.181  52.698  47.979  1.00  0.00    -0.268 OA
BRANCH  16  19
HETATM   19  C   UNL     1      19.587  51.499  50.066  1.00  0.00     0.161 C 
BRANCH  19  20
HETATM   20  C   UNL     1      20.499  50.526  49.368  1.00  0.00    -0.038 A 
HETATM   21  C   UNL     1      20.204  49.152  49.373  1.00  0.00     0.048 A 
HETATM   22  C   UNL     1      21.083  48.295  48.745  1.00  0.00     0.105 A 
HETATM   23  C   UNL     1      22.226  48.749  48.132  1.00  0.00     0.105 A 
HETATM   24  O   UNL     1      20.948  46.944  48.654  1.00  0.00    -0.323 OA
HETATM   25  O   UNL     1      22.952  47.742  47.576  1.00  0.00    -0.323 OA
HETATM   26  C   UNL     1      22.558  50.085  48.117  1.00  0.00     0.040 A 
HETATM   27  C   UNL     1      22.128  46.603  47.897  1.00  0.00     0.352 A 
HETATM   28  C   UNL     1      21.685  50.980  48.746  1.00  0.00     0.012 A 
ENDBRANCH  19  20
ENDBRANCH  16  19
ENDBRANCH   2  15
BRANCH   1  29
HETATM   29  C   UNL     1      16.478  49.869  46.396  1.00  0.00     0.043 A 
HETATM   30  C   UNL     1      17.842  49.579  46.281  1.00  0.00     0.032 A 
HETATM   31  C   UNL     1      18.274  48.333  45.798  1.00  0.00     0.039 A 
HETATM   32  C   UNL     1      17.345  47.370  45.411  1.00  0.00     0.068 A 
HETATM   33  C   UNL     1      15.987  47.669  45.485  1.00  0.00     0.039 A 
HETATM   34  C   UNL     1      15.557  48.905  45.972  1.00  0.00     0.032 A 
BRANCH  32  35
HETATM   35  O   UNL     1      17.628  46.124  44.926  1.00  0.00    -0.352 OA
BRANCH  35  36
HETATM   36  C   UNL     1      18.803  45.489  45.428  1.00  0.00     0.171 C 
HETATM   37  C   UNL     1      18.398  44.664  46.637  1.00  0.00     0.034 C 
ENDBRANCH  35  36
ENDBRANCH  32  35
ENDBRANCH   1  29
TORSDOF 7
ENDMDL
