MODEL 1
REMARK VINA RESULT:      -9.2      0.000      0.000
REMARK  2 active torsions:
REMARK  status: ('A' for Active; 'I' for Inactive)
REMARK    1  A    between atoms: C_2  and  N_3 
REMARK    2  A    between atoms: N_3  and  C_4 
ROOT
HETATM    1  N   UNL     1      20.776  49.147  49.712  1.00  0.00    -0.340 N 
HETATM    2  H   UNL     1      20.651  49.549  50.629  1.00  0.00     0.167 HD
ENDROOT
BRANCH   1   3
HETATM    3  C   UNL     1      22.040  49.380  49.144  1.00  0.00     0.036 A 
HETATM    4  C   UNL     1      22.346  50.514  48.382  1.00  0.00     0.032 A 
HETATM    5  C   UNL     1      23.630  50.711  47.860  1.00  0.00     0.042 A 
HETATM    6  C   UNL     1      24.643  49.798  48.135  1.00  0.00     0.102 A 
HETATM    7  C   UNL     1      24.363  48.670  48.903  1.00  0.00     0.104 A 
HETATM    8  O   UNL     1      25.854  50.020  47.540  1.00  0.00    -0.348 OA
HETATM    9  C   UNL     1      23.069  48.456  49.387  1.00  0.00     0.069 A 
HETATM   10  O   UNL     1      25.281  47.684  49.149  1.00  0.00    -0.348 OA
HETATM   11  C   UNL     1      26.398  48.168  49.897  1.00  0.00     0.178 C 
HETATM   12  C   UNL     1      27.424  48.860  49.013  1.00  0.00     0.053 C 
HETATM   13  C   UNL     1      26.898  50.191  48.500  1.00  0.00     0.178 C 
ENDBRANCH   1   3
BRANCH   1  14
HETATM   14  C   UNL     1      19.636  48.494  49.221  1.00  0.00     0.143 A 
HETATM   15  N   UNL     1      19.660  47.169  48.938  1.00  0.00    -0.223 NA
HETATM   16  C   UNL     1      18.572  46.582  48.419  1.00  0.00     0.236 A 
HETATM   17  N   UNL     1      17.402  47.149  48.123  1.00  0.00    -0.234 NA
HETATM   18  C   UNL     1      17.389  48.460  48.414  1.00  0.00     0.114 A 
HETATM   19  C   UNL     1      18.440  49.201  48.958  1.00  0.00     0.053 A 
HETATM   20  S   UNL     1      15.979  49.398  48.109  1.00  0.00    -0.073 SA
HETATM   21  C   UNL     1      18.019  50.553  49.127  1.00  0.00    -0.028 A 
HETATM   22  C   UNL     1      16.735  50.761  48.702  1.00  0.00    -0.008 A 
HETATM   23  C   UNL     1      18.607  51.812  49.653  1.00  0.00     0.041 C 
HETATM   24  C   UNL     1      16.259  52.156  48.857  1.00  0.00     0.047 C 
HETATM   25  C   UNL     1      17.356  52.734  49.799  1.00  0.00     0.010 C 
ENDBRANCH   1  14
TORSDOF 2
ENDMDL
MODEL 2
REMARK VINA RESULT:      -8.8      5.703      9.704
REMARK  2 active torsions:
REMARK  status: ('A' for Active; 'I' for Inactive)
REMARK    1  A    between atoms: C_2  and  N_3 
REMARK    2  A    between atoms: N_3  and  C_4 
ROOT
HETATM    1  N   UNL     1      26.082  45.850  52.081  1.00  0.00    -0.340 N 
HETATM    2  H   UNL     1      26.577  44.985  51.930  1.00  0.00     0.167 HD
ENDROOT
BRANCH   1   3
HETATM    3  C   UNL     1      25.260  46.242  51.012  1.00  0.00     0.036 A 
HETATM    4  C   UNL     1      24.292  45.411  50.437  1.00  0.00     0.032 A 
HETATM    5  C   UNL     1      23.481  45.860  49.389  1.00  0.00     0.042 A 
HETATM    6  C   UNL     1      23.593  47.168  48.930  1.00  0.00     0.102 A 
HETATM    7  C   UNL     1      24.542  48.017  49.497  1.00  0.00     0.104 A 
HETATM    8  O   UNL     1      22.815  47.519  47.862  1.00  0.00    -0.348 OA
HETATM    9  C   UNL     1      25.378  47.551  50.516  1.00  0.00     0.069 A 
HETATM   10  O   UNL     1      24.771  49.290  49.049  1.00  0.00    -0.348 OA
HETATM   11  C   UNL     1      23.626  50.129  49.208  1.00  0.00     0.178 C 
HETATM   12  C   UNL     1      22.620  49.946  48.082  1.00  0.00     0.053 C 
HETATM   13  C   UNL     1      21.930  48.595  48.175  1.00  0.00     0.178 C 
ENDBRANCH   1   3
BRANCH   1  14
HETATM   14  C   UNL     1      26.377  46.463  53.308  1.00  0.00     0.143 A 
HETATM   15  N   UNL     1      25.709  47.572  53.711  1.00  0.00    -0.223 NA
HETATM   16  C   UNL     1      26.049  48.169  54.863  1.00  0.00     0.236 A 
HETATM   17  N   UNL     1      27.005  47.806  55.718  1.00  0.00    -0.234 NA
HETATM   18  C   UNL     1      27.655  46.704  55.310  1.00  0.00     0.114 A 
HETATM   19  C   UNL     1      27.409  45.978  54.143  1.00  0.00     0.053 A 
HETATM   20  S   UNL     1      28.937  46.056  56.260  1.00  0.00    -0.073 SA
HETATM   21  C   UNL     1      28.304  44.869  54.086  1.00  0.00    -0.028 A 
HETATM   22  C   UNL     1      29.157  44.825  55.156  1.00  0.00    -0.008 A 
HETATM   23  C   UNL     1      28.559  43.730  53.167  1.00  0.00     0.041 C 
HETATM   24  C   UNL     1      30.106  43.688  55.134  1.00  0.00     0.047 C 
HETATM   25  C   UNL     1      29.467  42.797  54.028  1.00  0.00     0.010 C 
ENDBRANCH   1  14
TORSDOF 2
ENDMDL
MODEL 3
REMARK VINA RESULT:      -8.8      5.866      9.305
REMARK  2 active torsions:
REMARK  status: ('A' for Active; 'I' for Inactive)
REMARK    1  A    between atoms: C_2  and  N_3 
REMARK    2  A    between atoms: N_3  and  C_4 
ROOT
HETATM    1  N   UNL     1      25.831  44.487  50.813  1.00  0.00    -0.340 N 
HETATM    2  H   UNL     1      24.887  44.132  50.826  1.00  0.00     0.167 HD
ENDROOT
BRANCH   1   3
HETATM    3  C   UNL     1      25.948  45.805  50.341  1.00  0.00     0.036 A 
HETATM    4  C   UNL     1      27.126  46.327  49.794  1.00  0.00     0.032 A 
HETATM    5  C   UNL     1      27.182  47.641  49.314  1.00  0.00     0.042 A 
HETATM    6  C   UNL     1      26.043  48.439  49.329  1.00  0.00     0.102 A 
HETATM    7  C   UNL     1      24.856  47.934  49.856  1.00  0.00     0.104 A 
HETATM    8  O   UNL     1      26.186  49.731  48.903  1.00  0.00    -0.348 OA
HETATM    9  C   UNL     1      24.816  46.636  50.373  1.00  0.00     0.069 A 
HETATM   10  O   UNL     1      23.716  48.681  49.982  1.00  0.00    -0.348 OA
HETATM   11  C   UNL     1      23.211  49.106  48.715  1.00  0.00     0.178 C 
HETATM   12  C   UNL     1      23.927  50.344  48.199  1.00  0.00     0.053 C 
HETATM   13  C   UNL     1      25.353  50.020  47.781  1.00  0.00     0.178 C 
ENDBRANCH   1   3
BRANCH   1  14
HETATM   14  C   UNL     1      26.791  43.554  51.231  1.00  0.00     0.143 A 
HETATM   15  N   UNL     1      27.035  42.435  50.506  1.00  0.00    -0.223 NA
HETATM   16  C   UNL     1      27.920  41.533  50.957  1.00  0.00     0.236 A 
HETATM   17  N   UNL     1      28.634  41.584  52.081  1.00  0.00    -0.234 NA
HETATM   18  C   UNL     1      28.387  42.699  52.786  1.00  0.00     0.114 A 
HETATM   19  C   UNL     1      27.501  43.721  52.441  1.00  0.00     0.053 A 
HETATM   20  S   UNL     1      29.197  42.973  54.281  1.00  0.00    -0.073 SA
HETATM   21  C   UNL     1      27.541  44.733  53.446  1.00  0.00    -0.028 A 
HETATM   22  C   UNL     1      28.403  44.429  54.465  1.00  0.00    -0.008 A 
HETATM   23  C   UNL     1      26.894  46.049  53.684  1.00  0.00     0.041 C 
HETATM   24  C   UNL     1      28.473  45.454  55.532  1.00  0.00     0.047 C 
HETATM   25  C   UNL     1      27.761  46.650  54.833  1.00  0.00     0.010 C 
ENDBRANCH   1  14
TORSDOF 2
ENDMDL
MODEL 4
REMARK VINA RESULT:      -8.8      9.596     12.389
REMARK  2 active torsions:
REMARK  status: ('A' for Active; 'I' for Inactive)
REMARK    1  A    between atoms: C_2  and  N_3 
REMARK    2  A    between atoms: N_3  and  C_4 
ROOT
HETATM    1  N   UNL     1      28.048  42.297  52.888  1.00  0.00    -0.340 N 
HETATM    2  H   UNL     1      27.897  41.381  53.281  1.00  0.00     0.167 HD
ENDROOT
BRANCH   1   3
HETATM    3  C   UNL     1      28.531  43.248  53.803  1.00  0.00     0.036 A 
HETATM    4  C   UNL     1      27.831  44.409  54.152  1.00  0.00     0.032 A 
HETATM    5  C   UNL     1      28.346  45.311  55.089  1.00  0.00     0.042 A 
HETATM    6  C   UNL     1      29.550  45.041  55.731  1.00  0.00     0.102 A 
HETATM    7  C   UNL     1      30.257  43.884  55.409  1.00  0.00     0.104 A 
HETATM    8  O   UNL     1      30.024  45.996  56.587  1.00  0.00    -0.348 OA
HETATM    9  C   UNL     1      29.758  43.006  54.441  1.00  0.00     0.069 A 
HETATM   10  O   UNL     1      31.486  43.586  55.933  1.00  0.00    -0.348 OA
HETATM   11  C   UNL     1      31.434  43.405  57.349  1.00  0.00     0.178 C 
HETATM   12  C   UNL     1      31.470  44.729  58.098  1.00  0.00     0.053 C 
HETATM   13  C   UNL     1      30.170  45.498  57.917  1.00  0.00     0.178 C 
ENDBRANCH   1   3
BRANCH   1  14
HETATM   14  C   UNL     1      27.694  42.397  51.535  1.00  0.00     0.143 A 
HETATM   15  N   UNL     1      27.068  43.501  51.059  1.00  0.00    -0.223 NA
HETATM   16  C   UNL     1      26.692  43.548  49.772  1.00  0.00     0.236 A 
HETATM   17  N   UNL     1      26.856  42.608  48.840  1.00  0.00    -0.234 NA
HETATM   18  C   UNL     1      27.482  41.523  49.323  1.00  0.00     0.114 A 
HETATM   19  C   UNL     1      27.932  41.336  50.632  1.00  0.00     0.053 A 
HETATM   20  S   UNL     1      27.796  40.178  48.295  1.00  0.00    -0.073 SA
HETATM   21  C   UNL     1      28.556  40.058  50.733  1.00  0.00    -0.028 A 
HETATM   22  C   UNL     1      28.530  39.364  49.553  1.00  0.00    -0.008 A 
HETATM   23  C   UNL     1      29.241  39.268  51.789  1.00  0.00     0.041 C 
HETATM   24  C   UNL     1      29.167  38.028  49.615  1.00  0.00     0.047 C 
HETATM   25  C   UNL     1      29.931  38.134  50.968  1.00  0.00     0.010 C 
ENDBRANCH   1  14
TORSDOF 2
ENDMDL
MODEL 5
REMARK VINA RESULT:      -8.6      9.799     12.324
REMARK  2 active torsions:
REMARK  status: ('A' for Active; 'I' for Inactive)
REMARK    1  A    between atoms: C_2  and  N_3 
REMARK    2  A    between atoms: N_3  and  C_4 
ROOT
HETATM    1  N   UNL     1      28.654  44.016  53.121  1.00  0.00    -0.340 N 
HETATM    2  H   UNL     1      29.645  44.005  52.935  1.00  0.00     0.167 HD
ENDROOT
BRANCH   1   3
HETATM    3  C   UNL     1      27.909  43.110  52.348  1.00  0.00     0.036 A 
HETATM    4  C   UNL     1      26.593  43.348  51.934  1.00  0.00     0.032 A 
HETATM    5  C   UNL     1      25.905  42.422  51.142  1.00  0.00     0.042 A 
HETATM    6  C   UNL     1      26.540  41.264  50.709  1.00  0.00     0.102 A 
HETATM    7  C   UNL     1      27.855  41.014  51.097  1.00  0.00     0.104 A 
HETATM    8  O   UNL     1      25.788  40.375  49.991  1.00  0.00    -0.348 OA
HETATM    9  C   UNL     1      28.525  41.921  51.923  1.00  0.00     0.069 A 
HETATM   10  O   UNL     1      28.523  39.861  50.783  1.00  0.00    -0.348 OA
HETATM   11  C   UNL     1      28.696  39.710  49.372  1.00  0.00     0.178 C 
HETATM   12  C   UNL     1      27.456  39.138  48.701  1.00  0.00     0.053 C 
HETATM   13  C   UNL     1      26.322  40.152  48.687  1.00  0.00     0.178 C 
ENDBRANCH   1   3
BRANCH   1  14
HETATM   14  C   UNL     1      28.269  44.967  54.077  1.00  0.00     0.143 A 
HETATM   15  N   UNL     1      27.244  45.822  53.836  1.00  0.00    -0.223 NA
HETATM   16  C   UNL     1      26.932  46.756  54.745  1.00  0.00     0.236 A 
HETATM   17  N   UNL     1      27.520  46.979  55.921  1.00  0.00    -0.234 NA
HETATM   18  C   UNL     1      28.529  46.123  56.150  1.00  0.00     0.114 A 
HETATM   19  C   UNL     1      28.962  45.102  55.301  1.00  0.00     0.053 A 
HETATM   20  S   UNL     1      29.437  46.228  57.609  1.00  0.00    -0.073 SA
HETATM   21  C   UNL     1      30.048  44.412  55.917  1.00  0.00    -0.028 A 
HETATM   22  C   UNL     1      30.379  44.935  57.138  1.00  0.00    -0.008 A 
HETATM   23  C   UNL     1      30.924  43.258  55.588  1.00  0.00     0.041 C 
HETATM   24  C   UNL     1      31.505  44.248  57.812  1.00  0.00     0.047 C 
HETATM   25  C   UNL     1      31.607  42.950  56.957  1.00  0.00     0.010 C 
ENDBRANCH   1  14
TORSDOF 2
ENDMDL
MODEL 6
REMARK VINA RESULT:      -8.4      8.950     11.587
REMARK  2 active torsions:
REMARK  status: ('A' for Active; 'I' for Inactive)
REMARK    1  A    between atoms: C_2  and  N_3 
REMARK    2  A    between atoms: N_3  and  C_4 
ROOT
HETATM    1  N   UNL     1      27.083  42.574  52.939  1.00  0.00    -0.340 N 
HETATM    2  H   UNL     1      27.399  41.879  53.598  1.00  0.00     0.167 HD
ENDROOT
BRANCH   1   3
HETATM    3  C   UNL     1      27.054  42.137  51.604  1.00  0.00     0.036 A 
HETATM    4  C   UNL     1      26.889  42.998  50.513  1.00  0.00     0.032 A 
HETATM    5  C   UNL     1      26.893  42.513  49.200  1.00  0.00     0.042 A 
HETATM    6  C   UNL     1      27.112  41.162  48.955  1.00  0.00     0.102 A 
HETATM    7  C   UNL     1      27.293  40.289  50.026  1.00  0.00     0.104 A 
HETATM    8  O   UNL     1      27.040  40.748  47.654  1.00  0.00    -0.348 OA
HETATM    9  C   UNL     1      27.246  40.771  51.338  1.00  0.00     0.069 A 
HETATM   10  O   UNL     1      27.432  38.935  49.874  1.00  0.00    -0.348 OA
HETATM   11  C   UNL     1      28.607  38.597  49.136  1.00  0.00     0.178 C 
HETATM   12  C   UNL     1      28.393  38.712  47.634  1.00  0.00     0.053 C 
HETATM   13  C   UNL     1      28.265  40.167  47.208  1.00  0.00     0.178 C 
ENDBRANCH   1   3
BRANCH   1  14
HETATM   14  C   UNL     1      26.795  43.816  53.523  1.00  0.00     0.143 A 
HETATM   15  N   UNL     1      25.620  44.445  53.277  1.00  0.00    -0.223 NA
HETATM   16  C   UNL     1      25.393  45.657  53.805  1.00  0.00     0.236 A 
HETATM   17  N   UNL     1      26.206  46.372  54.583  1.00  0.00    -0.234 NA
HETATM   18  C   UNL     1      27.364  45.735  54.823  1.00  0.00     0.114 A 
HETATM   19  C   UNL     1      27.734  44.477  54.346  1.00  0.00     0.053 A 
HETATM   20  S   UNL     1      28.570  46.477  55.803  1.00  0.00    -0.073 SA
HETATM   21  C   UNL     1      29.033  44.154  54.841  1.00  0.00    -0.028 A 
HETATM   22  C   UNL     1      29.563  45.150  55.616  1.00  0.00    -0.008 A 
HETATM   23  C   UNL     1      29.975  43.010  54.743  1.00  0.00     0.041 C 
HETATM   24  C   UNL     1      30.914  44.856  56.148  1.00  0.00     0.047 C 
HETATM   25  C   UNL     1      31.011  43.328  55.866  1.00  0.00     0.010 C 
ENDBRANCH   1  14
TORSDOF 2
ENDMDL
MODEL 7
REMARK VINA RESULT:      -8.4      6.714     10.197
REMARK  2 active torsions:
REMARK  status: ('A' for Active; 'I' for Inactive)
REMARK    1  A    between atoms: C_2  and  N_3 
REMARK    2  A    between atoms: N_3  and  C_4 
ROOT
HETATM    1  N   UNL     1      25.702  43.637  52.517  1.00  0.00    -0.340 N 
HETATM    2  H   UNL     1      25.222  43.767  53.395  1.00  0.00     0.167 HD
ENDROOT
BRANCH   1   3
HETATM    3  C   UNL     1      24.998  44.110  51.397  1.00  0.00     0.036 A 
HETATM    4  C   UNL     1      24.053  43.347  50.701  1.00  0.00     0.032 A 
HETATM    5  C   UNL     1      23.361  43.875  49.605  1.00  0.00     0.042 A 
HETATM    6  C   UNL     1      23.568  45.194  49.218  1.00  0.00     0.102 A 
HETATM    7  C   UNL     1      24.495  45.976  49.905  1.00  0.00     0.104 A 
HETATM    8  O   UNL     1      22.906  45.624  48.101  1.00  0.00    -0.348 OA
HETATM    9  C   UNL     1      25.214  45.431  50.973  1.00  0.00     0.069 A 
HETATM   10  O   UNL     1      24.817  47.254  49.537  1.00  0.00    -0.348 OA
HETATM   11  C   UNL     1      23.697  48.137  49.631  1.00  0.00     0.178 C 
HETATM   12  C   UNL     1      22.792  48.046  48.412  1.00  0.00     0.053 C 
HETATM   13  C   UNL     1      22.041  46.724  48.382  1.00  0.00     0.178 C 
ENDBRANCH   1   3
BRANCH   1  14
HETATM   14  C   UNL     1      26.933  42.976  52.639  1.00  0.00     0.143 A 
HETATM   15  N   UNL     1      27.179  41.831  51.957  1.00  0.00    -0.223 NA
HETATM   16  C   UNL     1      28.344  41.192  52.133  1.00  0.00     0.236 A 
HETATM   17  N   UNL     1      29.354  41.541  52.931  1.00  0.00    -0.234 NA
HETATM   18  C   UNL     1      29.100  42.679  53.596  1.00  0.00     0.114 A 
HETATM   19  C   UNL     1      27.939  43.451  53.511  1.00  0.00     0.053 A 
HETATM   20  S   UNL     1      30.265  43.318  54.691  1.00  0.00    -0.073 SA
HETATM   21  C   UNL     1      28.070  44.587  54.364  1.00  0.00    -0.028 A 
HETATM   22  C   UNL     1      29.262  44.605  55.037  1.00  0.00    -0.008 A 
HETATM   23  C   UNL     1      27.251  45.774  54.719  1.00  0.00     0.041 C 
HETATM   24  C   UNL     1      29.437  45.768  55.937  1.00  0.00     0.047 C 
HETATM   25  C   UNL     1      28.282  46.691  55.447  1.00  0.00     0.010 C 
ENDBRANCH   1  14
TORSDOF 2
ENDMDL
MODEL 8
REMARK VINA RESULT:      -8.3      5.580      9.010
REMARK  2 active torsions:
REMARK  status: ('A' for Active; 'I' for Inactive)
REMARK    1  A    between atoms: C_2  and  N_3 
REMARK    2  A    between atoms: N_3  and  C_4 
ROOT
HETATM    1  N   UNL     1      24.985  45.355  51.607  1.00  0.00    -0.340 N 
HETATM    2  H   UNL     1      24.562  45.530  52.506  1.00  0.00     0.167 HD
ENDROOT
BRANCH   1   3
HETATM    3  C   UNL     1      24.344  45.992  50.531  1.00  0.00     0.036 A 
HETATM    4  C   UNL     1      23.536  45.319  49.607  1.00  0.00     0.032 A 
HETATM    5  C   UNL     1      22.899  46.006  48.567  1.00  0.00     0.042 A 
HETATM    6  C   UNL     1      23.022  47.388  48.464  1.00  0.00     0.102 A 
HETATM    7  C   UNL     1      23.811  48.079  49.382  1.00  0.00     0.104 A 
HETATM    8  O   UNL     1      22.426  47.985  47.388  1.00  0.00    -0.348 OA
HETATM    9  C   UNL     1      24.479  47.383  50.395  1.00  0.00     0.069 A 
HETATM   10  O   UNL     1      24.049  49.425  49.302  1.00  0.00    -0.348 OA
HETATM   11  C   UNL     1      22.852  50.190  49.446  1.00  0.00     0.178 C 
HETATM   12  C   UNL     1      22.070  50.282  48.145  1.00  0.00     0.053 C 
HETATM   13  C   UNL     1      21.445  48.944  47.783  1.00  0.00     0.178 C 
ENDBRANCH   1   3
BRANCH   1  14
HETATM   14  C   UNL     1      26.083  44.484  51.660  1.00  0.00     0.143 A 
HETATM   15  N   UNL     1      26.231  43.496  50.744  1.00  0.00    -0.223 NA
HETATM   16  C   UNL     1      27.261  42.643  50.849  1.00  0.00     0.236 A 
HETATM   17  N   UNL     1      28.215  42.628  51.781  1.00  0.00    -0.234 NA
HETATM   18  C   UNL     1      28.059  43.614  52.679  1.00  0.00     0.114 A 
HETATM   19  C   UNL     1      27.043  44.572  52.693  1.00  0.00     0.053 A 
HETATM   20  S   UNL     1      29.175  43.783  53.979  1.00  0.00    -0.073 SA
HETATM   21  C   UNL     1      27.244  45.449  53.800  1.00  0.00    -0.028 A 
HETATM   22  C   UNL     1      28.341  45.112  54.546  1.00  0.00    -0.008 A 
HETATM   23  C   UNL     1      26.575  46.649  54.366  1.00  0.00     0.041 C 
HETATM   24  C   UNL     1      28.584  45.997  55.708  1.00  0.00     0.047 C 
HETATM   25  C   UNL     1      27.642  47.190  55.368  1.00  0.00     0.010 C 
ENDBRANCH   1  14
TORSDOF 2
ENDMDL
MODEL 9
REMARK VINA RESULT:      -8.2      7.087     10.060
REMARK  2 active torsions:
REMARK  status: ('A' for Active; 'I' for Inactive)
REMARK    1  A    between atoms: C_2  and  N_3 
REMARK    2  A    between atoms: N_3  and  C_4 
ROOT
HETATM    1  N   UNL     1      26.679  44.293  53.110  1.00  0.00    -0.340 N 
HETATM    2  H   UNL     1      26.439  43.317  53.193  1.00  0.00     0.167 HD
ENDROOT
BRANCH   1   3
HETATM    3  C   UNL     1      27.613  44.744  54.058  1.00  0.00     0.036 A 
HETATM    4  C   UNL     1      27.404  45.859  54.877  1.00  0.00     0.032 A 
HETATM    5  C   UNL     1      28.357  46.250  55.825  1.00  0.00     0.042 A 
HETATM    6  C   UNL     1      29.516  45.501  56.001  1.00  0.00     0.102 A 
HETATM    7  C   UNL     1      29.737  44.379  55.205  1.00  0.00     0.104 A 
HETATM    8  O   UNL     1      30.431  45.977  56.898  1.00  0.00    -0.348 OA
HETATM    9  C   UNL     1      28.802  44.016  54.231  1.00  0.00     0.069 A 
HETATM   10  O   UNL     1      30.887  43.638  55.258  1.00  0.00    -0.348 OA
HETATM   11  C   UNL     1      31.067  43.020  56.534  1.00  0.00     0.178 C 
HETATM   12  C   UNL     1      31.672  43.975  57.552  1.00  0.00     0.053 C 
HETATM   13  C   UNL     1      30.676  45.051  57.956  1.00  0.00     0.178 C 
ENDBRANCH   1   3
BRANCH   1  14
HETATM   14  C   UNL     1      25.983  44.961  52.092  1.00  0.00     0.143 A 
HETATM   15  N   UNL     1      25.748  46.294  52.168  1.00  0.00    -0.223 NA
HETATM   16  C   UNL     1      25.033  46.897  51.207  1.00  0.00     0.236 A 
HETATM   17  N   UNL     1      24.487  46.340  50.125  1.00  0.00    -0.234 NA
HETATM   18  C   UNL     1      24.731  45.021  50.060  1.00  0.00     0.114 A 
HETATM   19  C   UNL     1      25.459  44.264  50.980  1.00  0.00     0.053 A 
HETATM   20  S   UNL     1      24.116  44.094  48.747  1.00  0.00    -0.073 SA
HETATM   21  C   UNL     1      25.499  42.908  50.540  1.00  0.00    -0.028 A 
HETATM   22  C   UNL     1      24.813  42.713  49.372  1.00  0.00    -0.008 A 
HETATM   23  C   UNL     1      26.099  41.633  51.013  1.00  0.00     0.041 C 
HETATM   24  C   UNL     1      24.827  41.315  48.880  1.00  0.00     0.047 C 
HETATM   25  C   UNL     1      25.958  40.709  49.763  1.00  0.00     0.010 C 
ENDBRANCH   1  14
TORSDOF 2
ENDMDL
MODEL 10
REMARK VINA RESULT:      -8.1      8.742     10.665
REMARK  2 active torsions:
REMARK  status: ('A' for Active; 'I' for Inactive)
REMARK    1  A    between atoms: C_2  and  N_3 
REMARK    2  A    between atoms: N_3  and  C_4 
ROOT
HETATM    1  N   UNL     1      27.073  41.424  52.455  1.00  0.00    -0.340 N 
HETATM    2  H   UNL     1      26.366  40.930  52.979  1.00  0.00     0.167 HD
ENDROOT
BRANCH   1   3
HETATM    3  C   UNL     1      27.632  42.523  53.129  1.00  0.00     0.036 A 
HETATM    4  C   UNL     1      26.941  43.717  53.365  1.00  0.00     0.032 A 
HETATM    5  C   UNL     1      27.536  44.773  54.064  1.00  0.00     0.042 A 
HETATM    6  C   UNL     1      28.819  44.631  54.583  1.00  0.00     0.102 A 
HETATM    7  C   UNL     1      29.520  43.446  54.372  1.00  0.00     0.104 A 
HETATM    8  O   UNL     1      29.362  45.724  55.200  1.00  0.00    -0.348 OA
HETATM    9  C   UNL     1      28.936  42.410  53.636  1.00  0.00     0.069 A 
HETATM   10  O   UNL     1      30.814  43.258  54.777  1.00  0.00    -0.348 OA
HETATM   11  C   UNL     1      30.944  43.321  56.199  1.00  0.00     0.178 C 
HETATM   12  C   UNL     1      31.027  44.753  56.704  1.00  0.00     0.053 C 
HETATM   13  C   UNL     1      29.688  45.462  56.565  1.00  0.00     0.178 C 
ENDBRANCH   1   3
BRANCH   1  14
HETATM   14  C   UNL     1      27.285  40.910  51.168  1.00  0.00     0.143 A 
HETATM   15  N   UNL     1      28.365  40.138  50.895  1.00  0.00    -0.223 NA
HETATM   16  C   UNL     1      28.571  39.704  49.643  1.00  0.00     0.236 A 
HETATM   17  N   UNL     1      27.821  39.938  48.565  1.00  0.00    -0.234 NA
HETATM   18  C   UNL     1      26.752  40.699  48.850  1.00  0.00     0.114 A 
HETATM   19  C   UNL     1      26.410  41.217  50.101  1.00  0.00     0.053 A 
HETATM   20  S   UNL     1      25.646  41.133  47.605  1.00  0.00    -0.073 SA
HETATM   21  C   UNL     1      25.197  41.958  49.983  1.00  0.00    -0.028 A 
HETATM   22  C   UNL     1      24.716  41.980  48.701  1.00  0.00    -0.008 A 
HETATM   23  C   UNL     1      24.300  42.719  50.891  1.00  0.00     0.041 C 
HETATM   24  C   UNL     1      23.457  42.742  48.534  1.00  0.00     0.047 C 
HETATM   25  C   UNL     1      23.020  42.910  50.020  1.00  0.00     0.010 C 
ENDBRANCH   1  14
TORSDOF 2
ENDMDL
