MODEL 1
REMARK VINA RESULT:      -8.3      0.000      0.000
REMARK  5 active torsions:
REMARK  status: ('A' for Active; 'I' for Inactive)
REMARK    1  A    between atoms: C_6  and  N_7 
REMARK       I    between atoms: N_7  and  C_8 
REMARK    2  A    between atoms: C_8  and  C_9 
REMARK    3  A    between atoms: C_9  and  C_10 
REMARK    4  A    between atoms: C_13  and  O_14 
REMARK    5  A    between atoms: C_19  and  C_20 
ROOT
HETATM    1  C   UNL     1      27.464  40.113  48.708  1.00  0.00     0.073 C 
HETATM    2  C   UNL     1      27.985  40.328  50.082  1.00  0.00     0.065 A 
HETATM    3  N   UNL     1      28.779  39.408  50.645  1.00  0.00    -0.177 NA
HETATM    4  N   UNL     1      29.068  39.927  51.851  1.00  0.00    -0.262 N 
HETATM    5  H   UNL     1      29.672  39.414  52.489  1.00  0.00     0.191 HD
HETATM    6  C   UNL     1      28.477  41.141  52.090  1.00  0.00     0.137 A 
HETATM    7  C   UNL     1      27.760  41.437  50.946  1.00  0.00     0.046 A 
ENDROOT
BRANCH   6   8
HETATM    8  N   UNL     1      28.622  41.848  53.271  1.00  0.00    -0.311 N 
HETATM    9  C   UNL     1      29.578  42.845  53.422  1.00  0.00     0.227 C 
HETATM   10  O   UNL     1      30.368  43.173  52.537  1.00  0.00    -0.273 OA
HETATM   11  H   UNL     1      27.995  41.619  54.034  1.00  0.00     0.170 HD
BRANCH   9  12
HETATM   12  C   UNL     1      29.482  43.536  54.776  1.00  0.00     0.141 C 
BRANCH  12  13
HETATM   13  C   UNL     1      28.509  44.689  54.844  1.00  0.00    -0.049 A 
HETATM   14  C   UNL     1      28.801  45.825  55.607  1.00  0.00     0.010 A 
HETATM   15  C   UNL     1      27.917  46.907  55.632  1.00  0.00     0.037 A 
HETATM   16  C   UNL     1      26.735  46.880  54.890  1.00  0.00     0.068 A 
HETATM   17  C   UNL     1      26.431  45.745  54.140  1.00  0.00     0.037 A 
HETATM   18  C   UNL     1      27.311  44.656  54.118  1.00  0.00     0.010 A 
BRANCH  16  19
HETATM   19  O   UNL     1      25.971  48.010  54.986  1.00  0.00    -0.356 OA
HETATM   20  C   UNL     1      26.242  48.873  56.083  1.00  0.00     0.210 C 
ENDBRANCH  16  19
ENDBRANCH  12  13
ENDBRANCH   9  12
ENDBRANCH   6   8
BRANCH   7  21
HETATM   21  C   UNL     1      26.970  42.636  50.747  1.00  0.00    -0.020 A 
HETATM   22  C   UNL     1      27.588  43.846  50.406  1.00  0.00     0.014 A 
HETATM   23  C   UNL     1      26.822  44.999  50.215  1.00  0.00     0.020 A 
HETATM   24  C   UNL     1      25.437  44.939  50.356  1.00  0.00     0.011 A 
HETATM   25 BR   UNL     1      24.400  46.497  50.094  1.00  0.00    -0.051 Br
HETATM   26  C   UNL     1      24.810  43.739  50.685  1.00  0.00     0.020 A 
HETATM   27  C   UNL     1      25.577  42.587  50.880  1.00  0.00     0.014 A 
ENDBRANCH   7  21
TORSDOF 5
ENDMDL
MODEL 2
REMARK VINA RESULT:      -8.2      3.460      6.049
REMARK  5 active torsions:
REMARK  status: ('A' for Active; 'I' for Inactive)
REMARK    1  A    between atoms: C_6  and  N_7 
REMARK       I    between atoms: N_7  and  C_8 
REMARK    2  A    between atoms: C_8  and  C_9 
REMARK    3  A    between atoms: C_9  and  C_10 
REMARK    4  A    between atoms: C_13  and  O_14 
REMARK    5  A    between atoms: C_19  and  C_20 
ROOT
HETATM    1  C   UNL     1      31.730  43.663  56.807  1.00  0.00     0.073 C 
HETATM    2  C   UNL     1      30.575  44.587  56.678  1.00  0.00     0.065 A 
HETATM    3  N   UNL     1      30.451  45.621  57.520  1.00  0.00    -0.177 NA
HETATM    4  N   UNL     1      29.329  46.238  57.110  1.00  0.00    -0.262 N 
HETATM    5  H   UNL     1      29.007  47.074  57.594  1.00  0.00     0.191 HD
HETATM    6  C   UNL     1      28.720  45.631  56.042  1.00  0.00     0.137 A 
HETATM    7  C   UNL     1      29.513  44.545  55.729  1.00  0.00     0.046 A 
ENDROOT
BRANCH   6   8
HETATM    8  N   UNL     1      27.545  46.085  55.467  1.00  0.00    -0.311 N 
HETATM    9  C   UNL     1      27.488  47.266  54.737  1.00  0.00     0.227 C 
HETATM   10  O   UNL     1      28.458  48.000  54.551  1.00  0.00    -0.273 OA
HETATM   11  H   UNL     1      26.714  45.517  55.590  1.00  0.00     0.170 HD
BRANCH   9  12
HETATM   12  C   UNL     1      26.110  47.504  54.132  1.00  0.00     0.141 C 
BRANCH  12  13
HETATM   13  C   UNL     1      25.822  46.737  52.864  1.00  0.00    -0.049 A 
HETATM   14  C   UNL     1      26.100  47.297  51.612  1.00  0.00     0.010 A 
HETATM   15  C   UNL     1      25.872  46.567  50.443  1.00  0.00     0.037 A 
HETATM   16  C   UNL     1      25.375  45.264  50.501  1.00  0.00     0.068 A 
HETATM   17  C   UNL     1      25.081  44.705  51.745  1.00  0.00     0.037 A 
HETATM   18  C   UNL     1      25.303  45.437  52.918  1.00  0.00     0.010 A 
BRANCH  16  19
HETATM   19  O   UNL     1      25.218  44.655  49.288  1.00  0.00    -0.356 OA
HETATM   20  C   UNL     1      25.455  43.253  49.241  1.00  0.00     0.210 C 
ENDBRANCH  16  19
ENDBRANCH  12  13
ENDBRANCH   9  12
ENDBRANCH   6   8
BRANCH   7  21
HETATM   21  C   UNL     1      29.253  43.606  54.656  1.00  0.00    -0.020 A 
HETATM   22  C   UNL     1      30.286  43.197  53.803  1.00  0.00     0.014 A 
HETATM   23  C   UNL     1      30.031  42.292  52.769  1.00  0.00     0.020 A 
HETATM   24  C   UNL     1      28.743  41.789  52.594  1.00  0.00     0.011 A 
HETATM   25 BR   UNL     1      28.396  40.563  51.199  1.00  0.00    -0.051 Br
HETATM   26  C   UNL     1      27.709  42.181  53.442  1.00  0.00     0.020 A 
HETATM   27  C   UNL     1      27.964  43.090  54.473  1.00  0.00     0.014 A 
ENDBRANCH   7  21
TORSDOF 5
ENDMDL
MODEL 3
REMARK VINA RESULT:      -7.4      1.585      2.378
REMARK  5 active torsions:
REMARK  status: ('A' for Active; 'I' for Inactive)
REMARK    1  A    between atoms: C_6  and  N_7 
REMARK       I    between atoms: N_7  and  C_8 
REMARK    2  A    between atoms: C_8  and  C_9 
REMARK    3  A    between atoms: C_9  and  C_10 
REMARK    4  A    between atoms: C_13  and  O_14 
REMARK    5  A    between atoms: C_19  and  C_20 
ROOT
HETATM    1  C   UNL     1      25.350  40.318  47.272  1.00  0.00     0.073 C 
HETATM    2  C   UNL     1      25.880  40.110  48.643  1.00  0.00     0.065 A 
HETATM    3  N   UNL     1      26.342  38.906  49.003  1.00  0.00    -0.177 NA
HETATM    4  N   UNL     1      26.748  39.083  50.272  1.00  0.00    -0.262 N 
HETATM    5  H   UNL     1      27.151  38.303  50.787  1.00  0.00     0.191 HD
HETATM    6  C   UNL     1      26.553  40.355  50.746  1.00  0.00     0.137 A 
HETATM    7  C   UNL     1      25.988  41.058  49.700  1.00  0.00     0.046 A 
ENDROOT
BRANCH   6   8
HETATM    8  N   UNL     1      26.880  40.757  52.030  1.00  0.00    -0.311 N 
HETATM    9  C   UNL     1      28.156  41.195  52.363  1.00  0.00     0.227 C 
HETATM   10  O   UNL     1      29.088  41.254  51.562  1.00  0.00    -0.273 OA
HETATM   11  H   UNL     1      26.149  40.728  52.730  1.00  0.00     0.170 HD
BRANCH   9  12
HETATM   12  C   UNL     1      28.244  41.666  53.809  1.00  0.00     0.141 C 
BRANCH  12  13
HETATM   13  C   UNL     1      28.033  43.146  54.019  1.00  0.00    -0.049 A 
HETATM   14  C   UNL     1      26.892  43.783  53.517  1.00  0.00     0.010 A 
HETATM   15  C   UNL     1      26.680  45.144  53.752  1.00  0.00     0.037 A 
HETATM   16  C   UNL     1      27.593  45.890  54.499  1.00  0.00     0.068 A 
HETATM   17  C   UNL     1      28.740  45.265  54.989  1.00  0.00     0.037 A 
HETATM   18  C   UNL     1      28.959  43.903  54.749  1.00  0.00     0.010 A 
BRANCH  16  19
HETATM   19  O   UNL     1      27.257  47.203  54.672  1.00  0.00    -0.356 OA
HETATM   20  C   UNL     1      25.974  47.601  54.203  1.00  0.00     0.210 C 
ENDBRANCH  16  19
ENDBRANCH  12  13
ENDBRANCH   9  12
ENDBRANCH   6   8
BRANCH   7  21
HETATM   21  C   UNL     1      25.608  42.456  49.747  1.00  0.00    -0.020 A 
HETATM   22  C   UNL     1      24.279  42.824  49.999  1.00  0.00     0.014 A 
HETATM   23  C   UNL     1      23.917  44.173  50.043  1.00  0.00     0.020 A 
HETATM   24  C   UNL     1      24.886  45.155  49.845  1.00  0.00     0.011 A 
HETATM   25 BR   UNL     1      24.399  46.979  49.908  1.00  0.00    -0.051 Br
HETATM   26  C   UNL     1      26.212  44.802  49.603  1.00  0.00     0.020 A 
HETATM   27  C   UNL     1      26.573  43.452  49.555  1.00  0.00     0.014 A 
ENDBRANCH   7  21
TORSDOF 5
ENDMDL
MODEL 4
REMARK VINA RESULT:      -7.4      3.141      4.551
REMARK  5 active torsions:
REMARK  status: ('A' for Active; 'I' for Inactive)
REMARK    1  A    between atoms: C_6  and  N_7 
REMARK       I    between atoms: N_7  and  C_8 
REMARK    2  A    between atoms: C_8  and  C_9 
REMARK    3  A    between atoms: C_9  and  C_10 
REMARK    4  A    between atoms: C_13  and  O_14 
REMARK    5  A    between atoms: C_19  and  C_20 
ROOT
HETATM    1  C   UNL     1      23.013  42.534  49.712  1.00  0.00     0.073 C 
HETATM    2  C   UNL     1      24.116  43.070  50.547  1.00  0.00     0.065 A 
HETATM    3  N   UNL     1      23.881  44.079  51.396  1.00  0.00    -0.177 NA
HETATM    4  N   UNL     1      25.071  44.289  51.985  1.00  0.00    -0.262 N 
HETATM    5  H   UNL     1      25.164  45.018  52.689  1.00  0.00     0.191 HD
HETATM    6  C   UNL     1      26.067  43.460  51.537  1.00  0.00     0.137 A 
HETATM    7  C   UNL     1      25.474  42.643  50.594  1.00  0.00     0.046 A 
ENDROOT
BRANCH   6   8
HETATM    8  N   UNL     1      27.373  43.511  51.992  1.00  0.00    -0.311 N 
HETATM    9  C   UNL     1      27.885  42.568  52.874  1.00  0.00     0.227 C 
HETATM   10  O   UNL     1      27.230  41.629  53.324  1.00  0.00    -0.273 OA
HETATM   11  H   UNL     1      27.958  44.266  51.652  1.00  0.00     0.170 HD
BRANCH   9  12
HETATM   12  C   UNL     1      29.366  42.786  53.155  1.00  0.00     0.141 C 
BRANCH  12  13
HETATM   13  C   UNL     1      29.674  43.662  54.346  1.00  0.00    -0.049 A 
HETATM   14  C   UNL     1      30.746  43.362  55.195  1.00  0.00     0.010 A 
HETATM   15  C   UNL     1      31.053  44.200  56.270  1.00  0.00     0.037 A 
HETATM   16  C   UNL     1      30.307  45.355  56.510  1.00  0.00     0.068 A 
HETATM   17  C   UNL     1      29.228  45.651  55.678  1.00  0.00     0.037 A 
HETATM   18  C   UNL     1      28.913  44.810  54.603  1.00  0.00     0.010 A 
BRANCH  16  19
HETATM   19  O   UNL     1      30.724  46.096  57.580  1.00  0.00    -0.356 OA
HETATM   20  C   UNL     1      30.974  45.390  58.788  1.00  0.00     0.210 C 
ENDBRANCH  16  19
ENDBRANCH  12  13
ENDBRANCH   9  12
ENDBRANCH   6   8
BRANCH   7  21
HETATM   21  C   UNL     1      26.155  41.601  49.850  1.00  0.00    -0.020 A 
HETATM   22  C   UNL     1      26.097  40.268  50.278  1.00  0.00     0.014 A 
HETATM   23  C   UNL     1      26.755  39.267  49.558  1.00  0.00     0.020 A 
HETATM   24  C   UNL     1      27.463  39.599  48.404  1.00  0.00     0.011 A 
HETATM   25 BR   UNL     1      28.350  38.246  47.428  1.00  0.00    -0.051 Br
HETATM   26  C   UNL     1      27.520  40.919  47.964  1.00  0.00     0.020 A 
HETATM   27  C   UNL     1      26.865  41.921  48.687  1.00  0.00     0.014 A 
ENDBRANCH   7  21
TORSDOF 5
ENDMDL
MODEL 5
REMARK VINA RESULT:      -7.3      4.120      6.264
REMARK  5 active torsions:
REMARK  status: ('A' for Active; 'I' for Inactive)
REMARK    1  A    between atoms: C_6  and  N_7 
REMARK       I    between atoms: N_7  and  C_8 
REMARK    2  A    between atoms: C_8  and  C_9 
REMARK    3  A    between atoms: C_9  and  C_10 
REMARK    4  A    between atoms: C_13  and  O_14 
REMARK    5  A    between atoms: C_19  and  C_20 
ROOT
HETATM    1  C   UNL     1      27.938  40.928  52.788  1.00  0.00     0.073 C 
HETATM    2  C   UNL     1      27.421  42.153  52.129  1.00  0.00     0.065 A 
HETATM    3  N   UNL     1      26.744  42.055  50.978  1.00  0.00    -0.177 NA
HETATM    4  N   UNL     1      26.420  43.327  50.686  1.00  0.00    -0.262 N 
HETATM    5  H   UNL     1      25.889  43.531  49.842  1.00  0.00     0.191 HD
HETATM    6  C   UNL     1      26.875  44.241  51.601  1.00  0.00     0.137 A 
HETATM    7  C   UNL     1      27.534  43.504  52.566  1.00  0.00     0.046 A 
ENDROOT
BRANCH   6   8
HETATM    8  N   UNL     1      26.673  45.606  51.492  1.00  0.00    -0.311 N 
HETATM    9  C   UNL     1      26.845  46.284  50.291  1.00  0.00     0.227 C 
HETATM   10  O   UNL     1      27.194  45.740  49.244  1.00  0.00    -0.273 OA
HETATM   11  H   UNL     1      26.384  46.104  52.326  1.00  0.00     0.170 HD
BRANCH   9  12
HETATM   12  C   UNL     1      26.478  47.758  50.404  1.00  0.00     0.141 C 
BRANCH  12  13
HETATM   13  C   UNL     1      25.242  48.174  49.643  1.00  0.00    -0.049 A 
HETATM   14  C   UNL     1      25.255  49.310  48.825  1.00  0.00     0.010 A 
HETATM   15  C   UNL     1      24.123  49.667  48.090  1.00  0.00     0.037 A 
HETATM   16  C   UNL     1      22.963  48.892  48.146  1.00  0.00     0.068 A 
HETATM   17  C   UNL     1      22.936  47.768  48.971  1.00  0.00     0.037 A 
HETATM   18  C   UNL     1      24.068  47.412  49.715  1.00  0.00     0.010 A 
BRANCH  16  19
HETATM   19  O   UNL     1      21.935  49.339  47.363  1.00  0.00    -0.356 OA
HETATM   20  C   UNL     1      20.823  49.917  48.036  1.00  0.00     0.210 C 
ENDBRANCH  16  19
ENDBRANCH  12  13
ENDBRANCH   9  12
ENDBRANCH   6   8
BRANCH   7  21
HETATM   21  C   UNL     1      28.181  44.058  53.738  1.00  0.00    -0.020 A 
HETATM   22  C   UNL     1      29.459  43.624  54.118  1.00  0.00     0.014 A 
HETATM   23  C   UNL     1      30.079  44.162  55.249  1.00  0.00     0.020 A 
HETATM   24  C   UNL     1      29.425  45.140  55.995  1.00  0.00     0.011 A 
HETATM   25 BR   UNL     1      30.264  45.870  57.523  1.00  0.00    -0.051 Br
HETATM   26  C   UNL     1      28.159  45.587  55.623  1.00  0.00     0.020 A 
HETATM   27  C   UNL     1      27.537  45.046  54.494  1.00  0.00     0.014 A 
ENDBRANCH   7  21
TORSDOF 5
ENDMDL
MODEL 6
REMARK VINA RESULT:      -7.2      2.760      3.676
REMARK  5 active torsions:
REMARK  status: ('A' for Active; 'I' for Inactive)
REMARK    1  A    between atoms: C_6  and  N_7 
REMARK       I    between atoms: N_7  and  C_8 
REMARK    2  A    between atoms: C_8  and  C_9 
REMARK    3  A    between atoms: C_9  and  C_10 
REMARK    4  A    between atoms: C_13  and  O_14 
REMARK    5  A    between atoms: C_19  and  C_20 
ROOT
HETATM    1  C   UNL     1      27.231  36.942  48.914  1.00  0.00     0.073 C 
HETATM    2  C   UNL     1      27.860  38.071  49.644  1.00  0.00     0.065 A 
HETATM    3  N   UNL     1      28.886  37.840  50.473  1.00  0.00    -0.177 NA
HETATM    4  N   UNL     1      29.208  39.061  50.935  1.00  0.00    -0.262 N 
HETATM    5  H   UNL     1      29.976  39.164  51.595  1.00  0.00     0.191 HD
HETATM    6  C   UNL     1      28.417  40.067  50.444  1.00  0.00     0.137 A 
HETATM    7  C   UNL     1      27.523  39.454  49.588  1.00  0.00     0.046 A 
ENDROOT
BRANCH   6   8
HETATM    8  N   UNL     1      28.558  41.399  50.797  1.00  0.00    -0.311 N 
HETATM    9  C   UNL     1      28.225  41.866  52.062  1.00  0.00     0.227 C 
HETATM   10  O   UNL     1      27.777  41.151  52.957  1.00  0.00    -0.273 OA
HETATM   11  H   UNL     1      28.924  42.033  50.096  1.00  0.00     0.170 HD
BRANCH   9  12
HETATM   12  C   UNL     1      28.551  43.344  52.235  1.00  0.00     0.141 C 
BRANCH  12  13
HETATM   13  C   UNL     1      29.180  43.715  53.556  1.00  0.00    -0.049 A 
HETATM   14  C   UNL     1      28.627  44.724  54.353  1.00  0.00     0.010 A 
HETATM   15  C   UNL     1      29.188  45.033  55.595  1.00  0.00     0.037 A 
HETATM   16  C   UNL     1      30.300  44.336  56.069  1.00  0.00     0.068 A 
HETATM   17  C   UNL     1      30.867  43.340  55.273  1.00  0.00     0.037 A 
HETATM   18  C   UNL     1      30.311  43.033  54.025  1.00  0.00     0.010 A 
BRANCH  16  19
HETATM   19  O   UNL     1      30.736  44.723  57.305  1.00  0.00    -0.356 OA
HETATM   20  C   UNL     1      30.293  45.991  57.770  1.00  0.00     0.210 C 
ENDBRANCH  16  19
ENDBRANCH  12  13
ENDBRANCH   9  12
ENDBRANCH   6   8
BRANCH   7  21
HETATM   21  C   UNL     1      26.488  40.136  48.837  1.00  0.00    -0.020 A 
HETATM   22  C   UNL     1      25.458  40.816  49.500  1.00  0.00     0.014 A 
HETATM   23  C   UNL     1      24.463  41.473  48.772  1.00  0.00     0.020 A 
HETATM   24  C   UNL     1      24.503  41.458  47.379  1.00  0.00     0.011 A 
HETATM   25 BR   UNL     1      23.160  42.349  46.392  1.00  0.00    -0.051 Br
HETATM   26  C   UNL     1      25.528  40.794  46.708  1.00  0.00     0.020 A 
HETATM   27  C   UNL     1      26.521  40.134  47.437  1.00  0.00     0.014 A 
ENDBRANCH   7  21
TORSDOF 5
ENDMDL
MODEL 7
REMARK VINA RESULT:      -7.2      3.392      5.403
REMARK  5 active torsions:
REMARK  status: ('A' for Active; 'I' for Inactive)
REMARK    1  A    between atoms: C_6  and  N_7 
REMARK       I    between atoms: N_7  and  C_8 
REMARK    2  A    between atoms: C_8  and  C_9 
REMARK    3  A    between atoms: C_9  and  C_10 
REMARK    4  A    between atoms: C_13  and  O_14 
REMARK    5  A    between atoms: C_19  and  C_20 
ROOT
HETATM    1  C   UNL     1      23.198  47.706  49.030  1.00  0.00     0.073 C 
HETATM    2  C   UNL     1      24.257  47.173  49.923  1.00  0.00     0.065 A 
HETATM    3  N   UNL     1      24.996  48.014  50.657  1.00  0.00    -0.177 NA
HETATM    4  N   UNL     1      25.822  47.204  51.342  1.00  0.00    -0.262 N 
HETATM    5  H   UNL     1      26.499  47.603  51.989  1.00  0.00     0.191 HD
HETATM    6  C   UNL     1      25.650  45.872  51.065  1.00  0.00     0.137 A 
HETATM    7  C   UNL     1      24.626  45.814  50.140  1.00  0.00     0.046 A 
ENDROOT
BRANCH   6   8
HETATM    8  N   UNL     1      26.403  44.863  51.641  1.00  0.00    -0.311 N 
HETATM    9  C   UNL     1      25.978  44.181  52.775  1.00  0.00     0.227 C 
HETATM   10  O   UNL     1      24.921  44.417  53.357  1.00  0.00    -0.273 OA
HETATM   11  H   UNL     1      27.284  44.626  51.201  1.00  0.00     0.170 HD
BRANCH   9  12
HETATM   12  C   UNL     1      26.932  43.059  53.164  1.00  0.00     0.141 C 
BRANCH  12  13
HETATM   13  C   UNL     1      28.096  43.475  54.032  1.00  0.00    -0.049 A 
HETATM   14  C   UNL     1      29.226  42.657  54.151  1.00  0.00     0.010 A 
HETATM   15  C   UNL     1      30.318  43.067  54.921  1.00  0.00     0.037 A 
HETATM   16  C   UNL     1      30.308  44.301  55.573  1.00  0.00     0.068 A 
HETATM   17  C   UNL     1      29.180  45.113  55.472  1.00  0.00     0.037 A 
HETATM   18  C   UNL     1      28.081  44.702  54.707  1.00  0.00     0.010 A 
BRANCH  16  19
HETATM   19  O   UNL     1      31.446  44.588  56.274  1.00  0.00    -0.356 OA
HETATM   20  C   UNL     1      31.882  43.612  57.212  1.00  0.00     0.210 C 
ENDBRANCH  16  19
ENDBRANCH  12  13
ENDBRANCH   9  12
ENDBRANCH   6   8
BRANCH   7  21
HETATM   21  C   UNL     1      24.101  44.596  49.556  1.00  0.00    -0.020 A 
HETATM   22  C   UNL     1      23.287  43.740  50.310  1.00  0.00     0.014 A 
HETATM   23  C   UNL     1      22.782  42.566  49.743  1.00  0.00     0.020 A 
HETATM   24  C   UNL     1      23.084  42.254  48.420  1.00  0.00     0.011 A 
HETATM   25 BR   UNL     1      22.399  40.669  47.651  1.00  0.00    -0.051 Br
HETATM   26  C   UNL     1      23.884  43.102  47.657  1.00  0.00     0.020 A 
HETATM   27  C   UNL     1      24.392  44.273  48.225  1.00  0.00     0.014 A 
ENDBRANCH   7  21
TORSDOF 5
ENDMDL
MODEL 8
REMARK VINA RESULT:      -7.1      3.505      6.853
REMARK  5 active torsions:
REMARK  status: ('A' for Active; 'I' for Inactive)
REMARK    1  A    between atoms: C_6  and  N_7 
REMARK       I    between atoms: N_7  and  C_8 
REMARK    2  A    between atoms: C_8  and  C_9 
REMARK    3  A    between atoms: C_9  and  C_10 
REMARK    4  A    between atoms: C_13  and  O_14 
REMARK    5  A    between atoms: C_19  and  C_20 
ROOT
HETATM    1  C   UNL     1      29.001  46.026  56.283  1.00  0.00     0.073 C 
HETATM    2  C   UNL     1      27.870  46.379  55.389  1.00  0.00     0.065 A 
HETATM    3  N   UNL     1      27.220  47.537  55.562  1.00  0.00    -0.177 NA
HETATM    4  N   UNL     1      26.291  47.533  54.589  1.00  0.00    -0.262 N 
HETATM    5  H   UNL     1      25.653  48.321  54.498  1.00  0.00     0.191 HD
HETATM    6  C   UNL     1      26.312  46.409  53.806  1.00  0.00     0.137 A 
HETATM    7  C   UNL     1      27.340  45.629  54.300  1.00  0.00     0.046 A 
ENDROOT
BRANCH   6   8
HETATM    8  N   UNL     1      25.435  46.185  52.758  1.00  0.00    -0.311 N 
HETATM    9  C   UNL     1      25.522  46.884  51.560  1.00  0.00     0.227 C 
HETATM   10  O   UNL     1      26.366  47.751  51.336  1.00  0.00    -0.273 OA
HETATM   11  H   UNL     1      24.719  45.479  52.889  1.00  0.00     0.170 HD
BRANCH   9  12
HETATM   12  C   UNL     1      24.507  46.398  50.534  1.00  0.00     0.141 C 
BRANCH  12  13
HETATM   13  C   UNL     1      24.616  44.939  50.159  1.00  0.00    -0.049 A 
HETATM   14  C   UNL     1      25.854  44.378  49.827  1.00  0.00     0.010 A 
HETATM   15  C   UNL     1      25.956  43.018  49.524  1.00  0.00     0.037 A 
HETATM   16  C   UNL     1      24.831  42.193  49.558  1.00  0.00     0.068 A 
HETATM   17  C   UNL     1      23.591  42.749  49.873  1.00  0.00     0.037 A 
HETATM   18  C   UNL     1      23.485  44.113  50.171  1.00  0.00     0.010 A 
BRANCH  16  19
HETATM   19  O   UNL     1      25.072  40.881  49.261  1.00  0.00    -0.356 OA
HETATM   20  C   UNL     1      26.078  40.227  50.025  1.00  0.00     0.210 C 
ENDBRANCH  16  19
ENDBRANCH  12  13
ENDBRANCH   9  12
ENDBRANCH   6   8
BRANCH   7  21
HETATM   21  C   UNL     1      27.730  44.337  53.774  1.00  0.00    -0.020 A 
HETATM   22  C   UNL     1      27.308  43.157  54.400  1.00  0.00     0.014 A 
HETATM   23  C   UNL     1      27.687  41.912  53.890  1.00  0.00     0.020 A 
HETATM   24  C   UNL     1      28.482  41.848  52.747  1.00  0.00     0.011 A 
HETATM   25 BR   UNL     1      28.992  40.166  52.053  1.00  0.00    -0.051 Br
HETATM   26  C   UNL     1      28.900  43.014  52.109  1.00  0.00     0.020 A 
HETATM   27  C   UNL     1      28.524  44.259  52.623  1.00  0.00     0.014 A 
ENDBRANCH   7  21
TORSDOF 5
ENDMDL
MODEL 9
REMARK VINA RESULT:      -7.1      6.900      9.172
REMARK  5 active torsions:
REMARK  status: ('A' for Active; 'I' for Inactive)
REMARK    1  A    between atoms: C_6  and  N_7 
REMARK       I    between atoms: N_7  and  C_8 
REMARK    2  A    between atoms: C_8  and  C_9 
REMARK    3  A    between atoms: C_9  and  C_10 
REMARK    4  A    between atoms: C_13  and  O_14 
REMARK    5  A    between atoms: C_19  and  C_20 
ROOT
HETATM    1  C   UNL     1      28.009  48.981  49.191  1.00  0.00     0.073 C 
HETATM    2  C   UNL     1      26.531  48.983  49.053  1.00  0.00     0.065 A 
HETATM    3  N   UNL     1      25.942  49.835  48.204  1.00  0.00    -0.177 NA
HETATM    4  N   UNL     1      24.633  49.553  48.322  1.00  0.00    -0.262 N 
HETATM    5  H   UNL     1      23.953  50.071  47.769  1.00  0.00     0.191 HD
HETATM    6  C   UNL     1      24.357  48.560  49.226  1.00  0.00     0.137 A 
HETATM    7  C   UNL     1      25.582  48.159  49.723  1.00  0.00     0.046 A 
ENDROOT
BRANCH   6   8
HETATM    8  N   UNL     1      23.078  48.120  49.521  1.00  0.00    -0.311 N 
HETATM    9  C   UNL     1      22.112  47.948  48.537  1.00  0.00     0.227 C 
HETATM   10  O   UNL     1      22.305  48.176  47.343  1.00  0.00    -0.273 OA
HETATM   11  H   UNL     1      22.864  47.917  50.490  1.00  0.00     0.170 HD
BRANCH   9  12
HETATM   12  C   UNL     1      20.817  47.373  49.095  1.00  0.00     0.141 C 
BRANCH  12  13
HETATM   13  C   UNL     1      19.639  48.318  49.096  1.00  0.00    -0.049 A 
HETATM   14  C   UNL     1      19.513  49.300  50.086  1.00  0.00     0.010 A 
HETATM   15  C   UNL     1      18.444  50.200  50.057  1.00  0.00     0.037 A 
HETATM   16  C   UNL     1      17.492  50.145  49.038  1.00  0.00     0.068 A 
HETATM   17  C   UNL     1      17.603  49.160  48.058  1.00  0.00     0.037 A 
HETATM   18  C   UNL     1      18.669  48.252  48.087  1.00  0.00     0.010 A 
BRANCH  16  19
HETATM   19  O   UNL     1      16.512  51.095  49.116  1.00  0.00    -0.356 OA
HETATM   20  C   UNL     1      16.807  52.256  49.882  1.00  0.00     0.210 C 
ENDBRANCH  16  19
ENDBRANCH  12  13
ENDBRANCH   9  12
ENDBRANCH   6   8
BRANCH   7  21
HETATM   21  C   UNL     1      25.778  47.121  50.715  1.00  0.00    -0.020 A 
HETATM   22  C   UNL     1      26.147  45.826  50.327  1.00  0.00     0.014 A 
HETATM   23  C   UNL     1      26.335  44.828  51.287  1.00  0.00     0.020 A 
HETATM   24  C   UNL     1      26.162  45.128  52.637  1.00  0.00     0.011 A 
HETATM   25 BR   UNL     1      26.419  43.780  53.936  1.00  0.00    -0.051 Br
HETATM   26  C   UNL     1      25.805  46.414  53.036  1.00  0.00     0.020 A 
HETATM   27  C   UNL     1      25.613  47.410  52.075  1.00  0.00     0.014 A 
ENDBRANCH   7  21
TORSDOF 5
ENDMDL
MODEL 10
REMARK VINA RESULT:      -7.1      4.888      7.094
REMARK  5 active torsions:
REMARK  status: ('A' for Active; 'I' for Inactive)
REMARK    1  A    between atoms: C_6  and  N_7 
REMARK       I    between atoms: N_7  and  C_8 
REMARK    2  A    between atoms: C_8  and  C_9 
REMARK    3  A    between atoms: C_9  and  C_10 
REMARK    4  A    between atoms: C_13  and  O_14 
REMARK    5  A    between atoms: C_19  and  C_20 
ROOT
HETATM    1  C   UNL     1      23.252  50.703  47.633  1.00  0.00     0.073 C 
HETATM    2  C   UNL     1      23.922  49.625  48.403  1.00  0.00     0.065 A 
HETATM    3  N   UNL     1      25.195  49.774  48.789  1.00  0.00    -0.177 NA
HETATM    4  N   UNL     1      25.463  48.641  49.462  1.00  0.00    -0.262 N 
HETATM    5  H   UNL     1      26.385  48.502  49.869  1.00  0.00     0.191 HD
HETATM    6  C   UNL     1      24.411  47.763  49.512  1.00  0.00     0.137 A 
HETATM    7  C   UNL     1      23.380  48.379  48.829  1.00  0.00     0.046 A 
ENDROOT
BRANCH   6   8
HETATM    8  N   UNL     1      24.468  46.529  50.136  1.00  0.00    -0.311 N 
HETATM    9  C   UNL     1      24.907  46.384  51.447  1.00  0.00     0.227 C 
HETATM   10  O   UNL     1      25.284  47.323  52.147  1.00  0.00    -0.273 OA
HETATM   11  H   UNL     1      24.168  45.721  49.604  1.00  0.00     0.170 HD
BRANCH   9  12
HETATM   12  C   UNL     1      24.794  44.947  51.937  1.00  0.00     0.141 C 
BRANCH  12  13
HETATM   13  C   UNL     1      26.030  44.394  52.605  1.00  0.00    -0.049 A 
HETATM   14  C   UNL     1      26.010  44.031  53.957  1.00  0.00     0.010 A 
HETATM   15  C   UNL     1      27.144  43.480  54.559  1.00  0.00     0.037 A 
HETATM   16  C   UNL     1      28.312  43.270  53.823  1.00  0.00     0.068 A 
HETATM   17  C   UNL     1      28.344  43.644  52.480  1.00  0.00     0.037 A 
HETATM   18  C   UNL     1      27.211  44.203  51.876  1.00  0.00     0.010 A 
BRANCH  16  19
HETATM   19  O   UNL     1      29.339  42.706  54.526  1.00  0.00    -0.356 OA
HETATM   20  C   UNL     1      30.255  43.599  55.147  1.00  0.00     0.210 C 
ENDBRANCH  16  19
ENDBRANCH  12  13
ENDBRANCH   9  12
ENDBRANCH   6   8
BRANCH   7  21
HETATM   21  C   UNL     1      22.061  47.813  48.628  1.00  0.00    -0.020 A 
HETATM   22  C   UNL     1      20.938  48.393  49.232  1.00  0.00     0.014 A 
HETATM   23  C   UNL     1      19.668  47.844  49.034  1.00  0.00     0.020 A 
HETATM   24  C   UNL     1      19.521  46.719  48.226  1.00  0.00     0.011 A 
HETATM   25 BR   UNL     1      17.804  45.977  47.955  1.00  0.00    -0.051 Br
HETATM   26  C   UNL     1      20.628  46.139  47.612  1.00  0.00     0.020 A 
HETATM   27  C   UNL     1      21.899  46.686  47.813  1.00  0.00     0.014 A 
ENDBRANCH   7  21
TORSDOF 5
ENDMDL
