MODEL 1
REMARK VINA RESULT:      -9.3      0.000      0.000
REMARK  7 active torsions:
REMARK  status: ('A' for Active; 'I' for Inactive)
REMARK    1  A    between atoms: C_2  and  C_3 
REMARK    2  A    between atoms: C_6  and  O_7 
REMARK    3  A    between atoms: O_7  and  C_8 
REMARK    4  A    between atoms: C_8  and  C_9 
REMARK       I    between atoms: C_9  and  N_10 
REMARK    5  A    between atoms: N_10  and  N_11 
REMARK       I    between atoms: N_11  and  C_12 
REMARK    6  A    between atoms: C_12  and  C_13 
REMARK    7  A    between atoms: C_16  and  N_17 
ROOT
HETATM    1  N   UNL     1      25.771  43.214  49.827  1.00  0.00    -0.263 N 
HETATM    2  C   UNL     1      24.580  43.645  50.385  1.00  0.00     0.270 C 
HETATM    3  O   UNL     1      23.819  42.910  51.005  1.00  0.00    -0.266 OA
HETATM    4  H   UNL     1      26.231  43.754  49.102  1.00  0.00     0.190 HD
ENDROOT
BRANCH   1   5
HETATM    5  N   UNL     1      26.066  41.847  49.893  1.00  0.00    -0.265 N 
HETATM    6  C   UNL     1      27.048  41.350  50.722  1.00  0.00     0.260 C 
HETATM    7  O   UNL     1      27.144  40.136  50.910  1.00  0.00    -0.269 OA
HETATM    8  H   UNL     1      25.297  41.209  49.694  1.00  0.00     0.190 HD
BRANCH   6   9
HETATM    9  C   UNL     1      28.042  42.340  51.316  1.00  0.00     0.280 C 
BRANCH   9  10
HETATM   10  O   UNL     1      27.426  43.017  52.403  1.00  0.00    -0.342 OA
BRANCH  10  11
HETATM   11  C   UNL     1      28.230  43.463  53.410  1.00  0.00     0.069 A 
HETATM   12  C   UNL     1      29.340  42.655  53.660  1.00  0.00     0.037 A 
HETATM   13  C   UNL     1      30.250  42.985  54.665  1.00  0.00     0.010 A 
HETATM   14  C   UNL     1      30.055  44.131  55.443  1.00  0.00    -0.058 A 
HETATM   15  C   UNL     1      28.944  44.944  55.185  1.00  0.00     0.010 A 
HETATM   16  C   UNL     1      28.035  44.611  54.174  1.00  0.00     0.037 A 
BRANCH  14  17
HETATM   17  C   UNL     1      31.049  44.506  56.512  1.00  0.00     0.034 C 
HETATM   18  C   UNL     1      31.756  43.286  57.080  1.00  0.00     0.010 C 
ENDBRANCH  14  17
ENDBRANCH  10  11
ENDBRANCH   9  10
ENDBRANCH   6   9
ENDBRANCH   1   5
BRANCH   2  19
HETATM   19  C   UNL     1      24.214  45.059  50.104  1.00  0.00     0.033 A 
HETATM   20  C   UNL     1      23.248  45.309  49.127  1.00  0.00     0.019 A 
HETATM   21  C   UNL     1      22.931  46.624  48.777  1.00  0.00     0.032 A 
HETATM   22  C   UNL     1      23.571  47.716  49.395  1.00  0.00     0.058 A 
HETATM   23  C   UNL     1      24.491  47.455  50.417  1.00  0.00     0.032 A 
HETATM   24  C   UNL     1      24.812  46.134  50.770  1.00  0.00     0.019 A 
BRANCH  22  25
HETATM   25  N   UNL     1      23.239  49.039  48.955  1.00  0.00    -0.238 N 
HETATM   26  N   UNL     1      21.938  49.441  49.041  1.00  0.00    -0.172 NA
HETATM   27  C   UNL     1      21.913  50.703  48.620  1.00  0.00     0.053 A 
HETATM   28  C   UNL     1      20.643  51.465  48.594  1.00  0.00     0.072 C 
HETATM   29  C   UNL     1      23.184  51.131  48.209  1.00  0.00     0.055 A 
HETATM   30  C   UNL     1      24.021  50.047  48.391  1.00  0.00     0.035 A 
HETATM   31  C   UNL     1      25.450  49.954  48.005  1.00  0.00     0.070 C 
ENDBRANCH  22  25
ENDBRANCH   2  19
TORSDOF 7
ENDMDL
MODEL 2
REMARK VINA RESULT:      -9.2     11.527     14.209
REMARK  7 active torsions:
REMARK  status: ('A' for Active; 'I' for Inactive)
REMARK    1  A    between atoms: C_2  and  C_3 
REMARK    2  A    between atoms: C_6  and  O_7 
REMARK    3  A    between atoms: O_7  and  C_8 
REMARK    4  A    between atoms: C_8  and  C_9 
REMARK       I    between atoms: C_9  and  N_10 
REMARK    5  A    between atoms: N_10  and  N_11 
REMARK       I    between atoms: N_11  and  C_12 
REMARK    6  A    between atoms: C_12  and  C_13 
REMARK    7  A    between atoms: C_16  and  N_17 
ROOT
HETATM    1  N   UNL     1      28.592  47.818  39.176  1.00  0.00    -0.263 N 
HETATM    2  C   UNL     1      28.823  47.842  40.540  1.00  0.00     0.270 C 
HETATM    3  O   UNL     1      28.012  47.445  41.370  1.00  0.00    -0.266 OA
HETATM    4  H   UNL     1      29.141  48.392  38.545  1.00  0.00     0.190 HD
ENDROOT
BRANCH   1   5
HETATM    5  N   UNL     1      27.327  47.410  38.736  1.00  0.00    -0.265 N 
HETATM    6  C   UNL     1      26.525  48.219  37.960  1.00  0.00     0.260 C 
HETATM    7  O   UNL     1      25.517  47.759  37.421  1.00  0.00    -0.269 OA
HETATM    8  H   UNL     1      27.197  46.408  38.602  1.00  0.00     0.190 HD
BRANCH   6   9
HETATM    9  C   UNL     1      26.888  49.696  37.867  1.00  0.00     0.280 C 
BRANCH   9  10
HETATM   10  O   UNL     1      26.583  50.325  39.104  1.00  0.00    -0.342 OA
BRANCH  10  11
HETATM   11  C   UNL     1      27.576  51.030  39.718  1.00  0.00     0.069 A 
HETATM   12  C   UNL     1      28.506  51.595  38.844  1.00  0.00     0.037 A 
HETATM   13  C   UNL     1      29.579  52.343  39.330  1.00  0.00     0.010 A 
HETATM   14  C   UNL     1      29.741  52.529  40.707  1.00  0.00    -0.058 A 
HETATM   15  C   UNL     1      28.802  51.966  41.582  1.00  0.00     0.010 A 
HETATM   16  C   UNL     1      27.725  51.220  41.090  1.00  0.00     0.037 A 
BRANCH  14  17
HETATM   17  C   UNL     1      30.884  53.357  41.236  1.00  0.00     0.034 C 
HETATM   18  C   UNL     1      32.122  53.237  40.360  1.00  0.00     0.010 C 
ENDBRANCH  14  17
ENDBRANCH  10  11
ENDBRANCH   9  10
ENDBRANCH   6   9
ENDBRANCH   1   5
BRANCH   2  19
HETATM   19  C   UNL     1      30.098  48.480  40.964  1.00  0.00     0.033 A 
HETATM   20  C   UNL     1      30.360  48.588  42.331  1.00  0.00     0.019 A 
HETATM   21  C   UNL     1      31.509  49.250  42.773  1.00  0.00     0.032 A 
HETATM   22  C   UNL     1      32.419  49.816  41.859  1.00  0.00     0.058 A 
HETATM   23  C   UNL     1      32.179  49.646  40.491  1.00  0.00     0.032 A 
HETATM   24  C   UNL     1      31.025  48.982  40.044  1.00  0.00     0.019 A 
BRANCH  22  25
HETATM   25  N   UNL     1      33.551  50.527  42.378  1.00  0.00    -0.238 N 
HETATM   26  N   UNL     1      34.779  50.260  41.848  1.00  0.00    -0.172 NA
HETATM   27  C   UNL     1      35.632  51.076  42.464  1.00  0.00     0.053 A 
HETATM   28  C   UNL     1      37.072  51.063  42.118  1.00  0.00     0.072 C 
HETATM   29  C   UNL     1      34.985  51.855  43.434  1.00  0.00     0.055 A 
HETATM   30  C   UNL     1      33.658  51.471  43.400  1.00  0.00     0.035 A 
HETATM   31  C   UNL     1      32.579  51.923  44.310  1.00  0.00     0.070 C 
ENDBRANCH  22  25
ENDBRANCH   2  19
TORSDOF 7
ENDMDL
MODEL 3
REMARK VINA RESULT:      -9.1      1.880      2.770
REMARK  7 active torsions:
REMARK  status: ('A' for Active; 'I' for Inactive)
REMARK    1  A    between atoms: C_2  and  C_3 
REMARK    2  A    between atoms: C_6  and  O_7 
REMARK    3  A    between atoms: O_7  and  C_8 
REMARK    4  A    between atoms: C_8  and  C_9 
REMARK       I    between atoms: C_9  and  N_10 
REMARK    5  A    between atoms: N_10  and  N_11 
REMARK       I    between atoms: N_11  and  C_12 
REMARK    6  A    between atoms: C_12  and  C_13 
REMARK    7  A    between atoms: C_16  and  N_17 
ROOT
HETATM    1  N   UNL     1      27.586  43.170  51.094  1.00  0.00    -0.263 N 
HETATM    2  C   UNL     1      26.228  43.272  50.852  1.00  0.00     0.270 C 
HETATM    3  O   UNL     1      25.476  42.304  50.796  1.00  0.00    -0.266 OA
HETATM    4  H   UNL     1      28.215  43.932  50.863  1.00  0.00     0.190 HD
ENDROOT
BRANCH   1   5
HETATM    5  N   UNL     1      28.139  41.887  51.181  1.00  0.00    -0.265 N 
HETATM    6  C   UNL     1      28.696  41.407  52.346  1.00  0.00     0.260 C 
HETATM    7  O   UNL     1      28.985  40.214  52.450  1.00  0.00    -0.269 OA
HETATM    8  H   UNL     1      27.741  41.181  50.563  1.00  0.00     0.190 HD
BRANCH   6   9
HETATM    9  C   UNL     1      29.010  42.412  53.448  1.00  0.00     0.280 C 
BRANCH   9  10
HETATM   10  O   UNL     1      27.855  42.585  54.258  1.00  0.00    -0.342 OA
BRANCH  10  11
HETATM   11  C   UNL     1      27.309  43.832  54.325  1.00  0.00     0.069 A 
HETATM   12  C   UNL     1      28.242  44.869  54.344  1.00  0.00     0.037 A 
HETATM   13  C   UNL     1      27.829  46.200  54.414  1.00  0.00     0.010 A 
HETATM   14  C   UNL     1      26.467  46.512  54.476  1.00  0.00    -0.058 A 
HETATM   15  C   UNL     1      25.531  45.470  54.449  1.00  0.00     0.010 A 
HETATM   16  C   UNL     1      25.950  44.136  54.376  1.00  0.00     0.037 A 
BRANCH  14  17
HETATM   17  C   UNL     1      26.014  47.949  54.526  1.00  0.00     0.034 C 
HETATM   18  C   UNL     1      26.403  48.619  55.834  1.00  0.00     0.010 C 
ENDBRANCH  14  17
ENDBRANCH  10  11
ENDBRANCH   9  10
ENDBRANCH   6   9
ENDBRANCH   1   5
BRANCH   2  19
HETATM   19  C   UNL     1      25.729  44.641  50.557  1.00  0.00     0.033 A 
HETATM   20  C   UNL     1      24.524  44.771  49.864  1.00  0.00     0.019 A 
HETATM   21  C   UNL     1      24.059  46.037  49.499  1.00  0.00     0.032 A 
HETATM   22  C   UNL     1      24.787  47.199  49.819  1.00  0.00     0.058 A 
HETATM   23  C   UNL     1      25.960  47.063  50.569  1.00  0.00     0.032 A 
HETATM   24  C   UNL     1      26.430  45.791  50.937  1.00  0.00     0.019 A 
BRANCH  22  25
HETATM   25  N   UNL     1      24.283  48.464  49.371  1.00  0.00    -0.238 N 
HETATM   26  N   UNL     1      22.949  48.714  49.509  1.00  0.00    -0.172 NA
HETATM   27  C   UNL     1      22.757  49.954  49.067  1.00  0.00     0.053 A 
HETATM   28  C   UNL     1      21.406  50.562  49.086  1.00  0.00     0.072 C 
HETATM   29  C   UNL     1      23.950  50.518  48.591  1.00  0.00     0.055 A 
HETATM   30  C   UNL     1      24.916  49.544  48.754  1.00  0.00     0.035 A 
HETATM   31  C   UNL     1      26.328  49.609  48.304  1.00  0.00     0.070 C 
ENDBRANCH  22  25
ENDBRANCH   2  19
TORSDOF 7
ENDMDL
MODEL 4
REMARK VINA RESULT:      -9.1      3.297      7.366
REMARK  7 active torsions:
REMARK  status: ('A' for Active; 'I' for Inactive)
REMARK    1  A    between atoms: C_2  and  C_3 
REMARK    2  A    between atoms: C_6  and  O_7 
REMARK    3  A    between atoms: O_7  and  C_8 
REMARK    4  A    between atoms: C_8  and  C_9 
REMARK       I    between atoms: C_9  and  N_10 
REMARK    5  A    between atoms: N_10  and  N_11 
REMARK       I    between atoms: N_11  and  C_12 
REMARK    6  A    between atoms: C_12  and  C_13 
REMARK    7  A    between atoms: C_16  and  N_17 
ROOT
HETATM    1  N   UNL     1      24.283  45.496  51.380  1.00  0.00    -0.263 N 
HETATM    2  C   UNL     1      25.032  46.563  51.843  1.00  0.00     0.270 C 
HETATM    3  O   UNL     1      25.039  47.667  51.309  1.00  0.00    -0.266 OA
HETATM    4  H   UNL     1      24.503  44.546  51.660  1.00  0.00     0.190 HD
ENDROOT
BRANCH   1   5
HETATM    5  N   UNL     1      23.575  45.665  50.185  1.00  0.00    -0.265 N 
HETATM    6  C   UNL     1      23.390  44.634  49.291  1.00  0.00     0.260 C 
HETATM    7  O   UNL     1      22.596  44.757  48.356  1.00  0.00    -0.269 OA
HETATM    8  H   UNL     1      22.845  46.377  50.189  1.00  0.00     0.190 HD
BRANCH   6   9
HETATM    9  C   UNL     1      24.254  43.389  49.456  1.00  0.00     0.280 C 
BRANCH   9  10
HETATM   10  O   UNL     1      25.609  43.730  49.195  1.00  0.00    -0.342 OA
BRANCH  10  11
HETATM   11  C   UNL     1      26.543  43.363  50.117  1.00  0.00     0.069 A 
HETATM   12  C   UNL     1      26.368  42.079  50.635  1.00  0.00     0.037 A 
HETATM   13  C   UNL     1      27.248  41.569  51.591  1.00  0.00     0.010 A 
HETATM   14  C   UNL     1      28.316  42.346  52.051  1.00  0.00    -0.058 A 
HETATM   15  C   UNL     1      28.493  43.632  51.524  1.00  0.00     0.010 A 
HETATM   16  C   UNL     1      27.611  44.139  50.563  1.00  0.00     0.037 A 
BRANCH  14  17
HETATM   17  C   UNL     1      29.283  41.791  53.064  1.00  0.00     0.034 C 
HETATM   18  C   UNL     1      30.447  42.737  53.313  1.00  0.00     0.010 C 
ENDBRANCH  14  17
ENDBRANCH  10  11
ENDBRANCH   9  10
ENDBRANCH   6   9
ENDBRANCH   1   5
BRANCH   2  19
HETATM   19  C   UNL     1      25.928  46.268  52.993  1.00  0.00     0.033 A 
HETATM   20  C   UNL     1      26.755  47.289  53.465  1.00  0.00     0.019 A 
HETATM   21  C   UNL     1      27.668  47.032  54.492  1.00  0.00     0.032 A 
HETATM   22  C   UNL     1      27.772  45.751  55.068  1.00  0.00     0.058 A 
HETATM   23  C   UNL     1      26.895  44.753  54.631  1.00  0.00     0.032 A 
HETATM   24  C   UNL     1      25.978  45.008  53.599  1.00  0.00     0.019 A 
BRANCH  22  25
HETATM   25  N   UNL     1      28.764  45.539  56.082  1.00  0.00    -0.238 N 
HETATM   26  N   UNL     1      29.755  44.634  55.837  1.00  0.00    -0.172 NA
HETATM   27  C   UNL     1      30.555  44.666  56.901  1.00  0.00     0.053 A 
HETATM   28  C   UNL     1      31.758  43.804  56.965  1.00  0.00     0.072 C 
HETATM   29  C   UNL     1      30.077  45.555  57.874  1.00  0.00     0.055 A 
HETATM   30  C   UNL     1      28.909  46.083  57.359  1.00  0.00     0.035 A 
HETATM   31  C   UNL     1      27.965  46.994  58.051  1.00  0.00     0.070 C 
ENDBRANCH  22  25
ENDBRANCH   2  19
TORSDOF 7
ENDMDL
MODEL 5
REMARK VINA RESULT:      -9.0      2.718      9.794
REMARK  7 active torsions:
REMARK  status: ('A' for Active; 'I' for Inactive)
REMARK    1  A    between atoms: C_2  and  C_3 
REMARK    2  A    between atoms: C_6  and  O_7 
REMARK    3  A    between atoms: O_7  and  C_8 
REMARK    4  A    between atoms: C_8  and  C_9 
REMARK       I    between atoms: C_9  and  N_10 
REMARK    5  A    between atoms: N_10  and  N_11 
REMARK       I    between atoms: N_11  and  C_12 
REMARK    6  A    between atoms: C_12  and  C_13 
REMARK    7  A    between atoms: C_16  and  N_17 
ROOT
HETATM    1  N   UNL     1      23.607  44.917  50.465  1.00  0.00    -0.263 N 
HETATM    2  C   UNL     1      24.283  43.767  50.833  1.00  0.00     0.270 C 
HETATM    3  O   UNL     1      23.938  42.641  50.490  1.00  0.00    -0.266 OA
HETATM    4  H   UNL     1      23.740  45.784  50.974  1.00  0.00     0.190 HD
ENDROOT
BRANCH   1   5
HETATM    5  N   UNL     1      22.415  44.771  49.747  1.00  0.00    -0.265 N 
HETATM    6  C   UNL     1      22.073  45.618  48.715  1.00  0.00     0.260 C 
HETATM    7  O   UNL     1      21.127  45.343  47.975  1.00  0.00    -0.269 OA
HETATM    8  H   UNL     1      22.041  43.825  49.678  1.00  0.00     0.190 HD
BRANCH   6   9
HETATM    9  C   UNL     1      22.848  46.923  48.583  1.00  0.00     0.280 C 
BRANCH   9  10
HETATM   10  O   UNL     1      22.325  47.662  47.488  1.00  0.00    -0.342 OA
BRANCH  10  11
HETATM   11  C   UNL     1      21.704  48.845  47.761  1.00  0.00     0.069 A 
HETATM   12  C   UNL     1      20.318  48.819  47.600  1.00  0.00     0.037 A 
HETATM   13  C   UNL     1      19.550  49.959  47.841  1.00  0.00     0.010 A 
HETATM   14  C   UNL     1      20.165  51.151  48.241  1.00  0.00    -0.058 A 
HETATM   15  C   UNL     1      21.556  51.172  48.408  1.00  0.00     0.010 A 
HETATM   16  C   UNL     1      22.322  50.026  48.168  1.00  0.00     0.037 A 
BRANCH  14  17
HETATM   17  C   UNL     1      19.338  52.377  48.527  1.00  0.00     0.034 C 
HETATM   18  C   UNL     1      18.368  52.150  49.676  1.00  0.00     0.010 C 
ENDBRANCH  14  17
ENDBRANCH  10  11
ENDBRANCH   9  10
ENDBRANCH   6   9
ENDBRANCH   1   5
BRANCH   2  19
HETATM   19  C   UNL     1      25.422  43.963  51.770  1.00  0.00     0.033 A 
HETATM   20  C   UNL     1      25.136  44.266  53.102  1.00  0.00     0.019 A 
HETATM   21  C   UNL     1      26.175  44.534  53.997  1.00  0.00     0.032 A 
HETATM   22  C   UNL     1      27.520  44.506  53.580  1.00  0.00     0.058 A 
HETATM   23  C   UNL     1      27.798  44.139  52.259  1.00  0.00     0.032 A 
HETATM   24  C   UNL     1      26.755  43.870  51.357  1.00  0.00     0.019 A 
BRANCH  22  25
HETATM   25  N   UNL     1      28.536  44.842  54.534  1.00  0.00    -0.238 N 
HETATM   26  N   UNL     1      29.359  43.849  54.978  1.00  0.00    -0.172 NA
HETATM   27  C   UNL     1      30.226  44.430  55.804  1.00  0.00     0.053 A 
HETATM   28  C   UNL     1      31.287  43.634  56.466  1.00  0.00     0.072 C 
HETATM   29  C   UNL     1      29.957  45.798  55.948  1.00  0.00     0.055 A 
HETATM   30  C   UNL     1      28.850  46.048  55.161  1.00  0.00     0.035 A 
HETATM   31  C   UNL     1      28.105  47.326  55.056  1.00  0.00     0.070 C 
ENDBRANCH  22  25
ENDBRANCH   2  19
TORSDOF 7
ENDMDL
MODEL 6
REMARK VINA RESULT:      -9.0     11.349     13.746
REMARK  7 active torsions:
REMARK  status: ('A' for Active; 'I' for Inactive)
REMARK    1  A    between atoms: C_2  and  C_3 
REMARK    2  A    between atoms: C_6  and  O_7 
REMARK    3  A    between atoms: O_7  and  C_8 
REMARK    4  A    between atoms: C_8  and  C_9 
REMARK       I    between atoms: C_9  and  N_10 
REMARK    5  A    between atoms: N_10  and  N_11 
REMARK       I    between atoms: N_11  and  C_12 
REMARK    6  A    between atoms: C_12  and  C_13 
REMARK    7  A    between atoms: C_16  and  N_17 
ROOT
HETATM    1  N   UNL     1      33.072  49.357  41.816  1.00  0.00    -0.263 N 
HETATM    2  C   UNL     1      32.512  48.186  41.335  1.00  0.00     0.270 C 
HETATM    3  O   UNL     1      33.147  47.149  41.174  1.00  0.00    -0.266 OA
HETATM    4  H   UNL     1      32.609  50.249  41.678  1.00  0.00     0.190 HD
ENDROOT
BRANCH   1   5
HETATM    5  N   UNL     1      34.454  49.378  42.034  1.00  0.00    -0.265 N 
HETATM    6  C   UNL     1      35.272  50.326  41.459  1.00  0.00     0.260 C 
HETATM    7  O   UNL     1      36.442  50.443  41.830  1.00  0.00    -0.269 OA
HETATM    8  H   UNL     1      34.776  49.005  42.926  1.00  0.00     0.190 HD
BRANCH   6   9
HETATM    9  C   UNL     1      34.703  51.150  40.311  1.00  0.00     0.280 C 
BRANCH   9  10
HETATM   10  O   UNL     1      33.860  52.162  40.843  1.00  0.00    -0.342 OA
BRANCH  10  11
HETATM   11  C   UNL     1      32.536  52.118  40.520  1.00  0.00     0.069 A 
HETATM   12  C   UNL     1      31.677  52.477  41.560  1.00  0.00     0.037 A 
HETATM   13  C   UNL     1      30.294  52.476  41.375  1.00  0.00     0.010 A 
HETATM   14  C   UNL     1      29.748  52.103  40.142  1.00  0.00    -0.058 A 
HETATM   15  C   UNL     1      30.613  51.750  39.098  1.00  0.00     0.010 A 
HETATM   16  C   UNL     1      32.000  51.756  39.286  1.00  0.00     0.037 A 
BRANCH  14  17
HETATM   17  C   UNL     1      28.257  52.125  39.930  1.00  0.00     0.034 C 
HETATM   18  C   UNL     1      27.497  52.023  41.243  1.00  0.00     0.010 C 
ENDBRANCH  14  17
ENDBRANCH  10  11
ENDBRANCH   9  10
ENDBRANCH   6   9
ENDBRANCH   1   5
BRANCH   2  19
HETATM   19  C   UNL     1      31.087  48.279  40.920  1.00  0.00     0.033 A 
HETATM   20  C   UNL     1      30.139  48.627  41.884  1.00  0.00     0.019 A 
HETATM   21  C   UNL     1      28.781  48.650  41.556  1.00  0.00     0.032 A 
HETATM   22  C   UNL     1      28.342  48.325  40.257  1.00  0.00     0.058 A 
HETATM   23  C   UNL     1      29.304  48.040  39.283  1.00  0.00     0.032 A 
HETATM   24  C   UNL     1      30.670  48.016  39.611  1.00  0.00     0.019 A 
BRANCH  22  25
HETATM   25  N   UNL     1      26.932  48.317  39.998  1.00  0.00    -0.238 N 
HETATM   26  N   UNL     1      26.140  47.504  40.756  1.00  0.00    -0.172 NA
HETATM   27  C   UNL     1      24.892  47.721  40.348  1.00  0.00     0.053 A 
HETATM   28  C   UNL     1      23.758  47.003  40.976  1.00  0.00     0.072 C 
HETATM   29  C   UNL     1      24.851  48.640  39.290  1.00  0.00     0.055 A 
HETATM   30  C   UNL     1      26.165  48.989  39.045  1.00  0.00     0.035 A 
HETATM   31  C   UNL     1      26.665  49.853  37.949  1.00  0.00     0.070 C 
ENDBRANCH  22  25
ENDBRANCH   2  19
TORSDOF 7
ENDMDL
MODEL 7
REMARK VINA RESULT:      -9.0      3.402      5.679
REMARK  7 active torsions:
REMARK  status: ('A' for Active; 'I' for Inactive)
REMARK    1  A    between atoms: C_2  and  C_3 
REMARK    2  A    between atoms: C_6  and  O_7 
REMARK    3  A    between atoms: O_7  and  C_8 
REMARK    4  A    between atoms: C_8  and  C_9 
REMARK       I    between atoms: C_9  and  N_10 
REMARK    5  A    between atoms: N_10  and  N_11 
REMARK       I    between atoms: N_11  and  C_12 
REMARK    6  A    between atoms: C_12  and  C_13 
REMARK    7  A    between atoms: C_16  and  N_17 
ROOT
HETATM    1  N   UNL     1      23.831  48.835  49.279  1.00  0.00    -0.263 N 
HETATM    2  C   UNL     1      23.256  49.595  48.275  1.00  0.00     0.270 C 
HETATM    3  O   UNL     1      23.851  49.932  47.258  1.00  0.00    -0.266 OA
HETATM    4  H   UNL     1      23.425  48.808  50.208  1.00  0.00     0.190 HD
ENDROOT
BRANCH   1   5
HETATM    5  N   UNL     1      25.191  48.524  49.165  1.00  0.00    -0.265 N 
HETATM    6  C   UNL     1      25.736  47.399  49.743  1.00  0.00     0.260 C 
HETATM    7  O   UNL     1      26.881  47.047  49.455  1.00  0.00    -0.269 OA
HETATM    8  H   UNL     1      25.660  48.854  48.322  1.00  0.00     0.190 HD
BRANCH   6   9
HETATM    9  C   UNL     1      24.908  46.671  50.795  1.00  0.00     0.280 C 
BRANCH   9  10
HETATM   10  O   UNL     1      25.059  47.337  52.042  1.00  0.00    -0.342 OA
BRANCH  10  11
HETATM   11  C   UNL     1      26.003  46.861  52.904  1.00  0.00     0.069 A 
HETATM   12  C   UNL     1      26.345  45.523  52.702  1.00  0.00     0.037 A 
HETATM   13  C   UNL     1      27.295  44.899  53.511  1.00  0.00     0.010 A 
HETATM   14  C   UNL     1      27.913  45.609  54.546  1.00  0.00    -0.058 A 
HETATM   15  C   UNL     1      27.573  46.954  54.742  1.00  0.00     0.010 A 
HETATM   16  C   UNL     1      26.622  47.577  53.926  1.00  0.00     0.037 A 
BRANCH  14  17
HETATM   17  C   UNL     1      28.959  44.948  55.406  1.00  0.00     0.034 C 
HETATM   18  C   UNL     1      29.543  45.911  56.428  1.00  0.00     0.010 C 
ENDBRANCH  14  17
ENDBRANCH  10  11
ENDBRANCH   9  10
ENDBRANCH   6   9
ENDBRANCH   1   5
BRANCH   2  19
HETATM   19  C   UNL     1      21.875  50.076  48.545  1.00  0.00     0.033 A 
HETATM   20  C   UNL     1      20.924  49.148  48.973  1.00  0.00     0.019 A 
HETATM   21  C   UNL     1      19.597  49.542  49.164  1.00  0.00     0.032 A 
HETATM   22  C   UNL     1      19.193  50.870  48.929  1.00  0.00     0.058 A 
HETATM   23  C   UNL     1      20.166  51.806  48.561  1.00  0.00     0.032 A 
HETATM   24  C   UNL     1      21.500  51.412  48.369  1.00  0.00     0.019 A 
BRANCH  22  25
HETATM   25  N   UNL     1      17.806  51.199  49.092  1.00  0.00    -0.238 N 
HETATM   26  N   UNL     1      17.483  52.264  49.881  1.00  0.00    -0.172 NA
HETATM   27  C   UNL     1      16.158  52.377  49.823  1.00  0.00     0.053 A 
HETATM   28  C   UNL     1      15.460  53.454  50.563  1.00  0.00     0.072 C 
HETATM   29  C   UNL     1      15.592  51.365  49.035  1.00  0.00     0.055 A 
HETATM   30  C   UNL     1      16.651  50.591  48.601  1.00  0.00     0.035 A 
HETATM   31  C   UNL     1      16.569  49.331  47.823  1.00  0.00     0.070 C 
ENDBRANCH  22  25
ENDBRANCH   2  19
TORSDOF 7
ENDMDL
MODEL 8
REMARK VINA RESULT:      -8.9     11.724     13.985
REMARK  7 active torsions:
REMARK  status: ('A' for Active; 'I' for Inactive)
REMARK    1  A    between atoms: C_2  and  C_3 
REMARK    2  A    between atoms: C_6  and  O_7 
REMARK    3  A    between atoms: O_7  and  C_8 
REMARK    4  A    between atoms: C_8  and  C_9 
REMARK       I    between atoms: C_9  and  N_10 
REMARK    5  A    between atoms: N_10  and  N_11 
REMARK       I    between atoms: N_11  and  C_12 
REMARK    6  A    between atoms: C_12  and  C_13 
REMARK    7  A    between atoms: C_16  and  N_17 
ROOT
HETATM    1  N   UNL     1      27.372  51.175  39.402  1.00  0.00    -0.263 N 
HETATM    2  C   UNL     1      28.469  51.849  38.896  1.00  0.00     0.270 C 
HETATM    3  O   UNL     1      28.528  52.281  37.750  1.00  0.00    -0.266 OA
HETATM    4  H   UNL     1      27.453  50.599  40.233  1.00  0.00     0.190 HD
ENDROOT
BRANCH   1   5
HETATM    5  N   UNL     1      26.320  50.889  38.524  1.00  0.00    -0.265 N 
HETATM    6  C   UNL     1      25.503  49.793  38.692  1.00  0.00     0.260 C 
HETATM    7  O   UNL     1      24.469  49.682  38.030  1.00  0.00    -0.269 OA
HETATM    8  H   UNL     1      25.890  51.688  38.059  1.00  0.00     0.190 HD
BRANCH   6   9
HETATM    9  C   UNL     1      25.967  48.704  39.651  1.00  0.00     0.280 C 
BRANCH   9  10
HETATM   10  O   UNL     1      27.210  48.188  39.198  1.00  0.00    -0.342 OA
BRANCH  10  11
HETATM   11  C   UNL     1      28.279  48.279  40.039  1.00  0.00     0.069 A 
HETATM   12  C   UNL     1      29.513  48.042  39.431  1.00  0.00     0.037 A 
HETATM   13  C   UNL     1      30.695  48.099  40.171  1.00  0.00     0.010 A 
HETATM   14  C   UNL     1      30.657  48.387  41.539  1.00  0.00    -0.058 A 
HETATM   15  C   UNL     1      29.417  48.631  42.145  1.00  0.00     0.010 A 
HETATM   16  C   UNL     1      28.234  48.577  41.399  1.00  0.00     0.037 A 
BRANCH  14  17
HETATM   17  C   UNL     1      31.932  48.475  42.337  1.00  0.00     0.034 C 
HETATM   18  C   UNL     1      33.162  48.362  41.450  1.00  0.00     0.010 C 
ENDBRANCH  14  17
ENDBRANCH  10  11
ENDBRANCH   9  10
ENDBRANCH   6   9
ENDBRANCH   1   5
BRANCH   2  19
HETATM   19  C   UNL     1      29.642  51.940  39.806  1.00  0.00     0.033 A 
HETATM   20  C   UNL     1      30.910  51.697  39.275  1.00  0.00     0.019 A 
HETATM   21  C   UNL     1      32.030  51.696  40.111  1.00  0.00     0.032 A 
HETATM   22  C   UNL     1      31.907  51.938  41.493  1.00  0.00     0.058 A 
HETATM   23  C   UNL     1      30.640  52.243  42.003  1.00  0.00     0.032 A 
HETATM   24  C   UNL     1      29.513  52.244  41.166  1.00  0.00     0.019 A 
BRANCH  22  25
HETATM   25  N   UNL     1      33.087  51.871  42.304  1.00  0.00    -0.238 N 
HETATM   26  N   UNL     1      34.290  51.707  41.683  1.00  0.00    -0.172 NA
HETATM   27  C   UNL     1      35.209  51.726  42.646  1.00  0.00     0.053 A 
HETATM   28  C   UNL     1      36.647  51.585  42.319  1.00  0.00     0.072 C 
HETATM   29  C   UNL     1      34.621  51.855  43.912  1.00  0.00     0.055 A 
HETATM   30  C   UNL     1      33.258  51.910  43.688  1.00  0.00     0.035 A 
HETATM   31  C   UNL     1      32.190  51.938  44.717  1.00  0.00     0.070 C 
ENDBRANCH  22  25
ENDBRANCH   2  19
TORSDOF 7
ENDMDL
MODEL 9
REMARK VINA RESULT:      -8.8     12.298     14.544
REMARK  7 active torsions:
REMARK  status: ('A' for Active; 'I' for Inactive)
REMARK    1  A    between atoms: C_2  and  C_3 
REMARK    2  A    between atoms: C_6  and  O_7 
REMARK    3  A    between atoms: O_7  and  C_8 
REMARK    4  A    between atoms: C_8  and  C_9 
REMARK       I    between atoms: C_9  and  N_10 
REMARK    5  A    between atoms: N_10  and  N_11 
REMARK       I    between atoms: N_11  and  C_12 
REMARK    6  A    between atoms: C_12  and  C_13 
REMARK    7  A    between atoms: C_16  and  N_17 
ROOT
HETATM    1  N   UNL     1      35.039  51.878  39.467  1.00  0.00    -0.263 N 
HETATM    2  C   UNL     1      34.051  52.846  39.423  1.00  0.00     0.270 C 
HETATM    3  O   UNL     1      34.267  54.041  39.594  1.00  0.00    -0.266 OA
HETATM    4  H   UNL     1      34.803  50.900  39.599  1.00  0.00     0.190 HD
ENDROOT
BRANCH   1   5
HETATM    5  N   UNL     1      36.331  52.281  39.824  1.00  0.00    -0.265 N 
HETATM    6  C   UNL     1      36.837  52.082  41.090  1.00  0.00     0.260 C 
HETATM    7  O   UNL     1      38.036  52.257  41.314  1.00  0.00    -0.269 OA
HETATM    8  H   UNL     1      37.022  52.297  39.075  1.00  0.00     0.190 HD
BRANCH   6   9
HETATM    9  C   UNL     1      35.853  51.724  42.198  1.00  0.00     0.280 C 
BRANCH   9  10
HETATM   10  O   UNL     1      35.409  50.388  42.006  1.00  0.00    -0.342 OA
BRANCH  10  11
HETATM   11  C   UNL     1      34.070  50.146  42.097  1.00  0.00     0.069 A 
HETATM   12  C   UNL     1      33.632  49.047  41.358  1.00  0.00     0.037 A 
HETATM   13  C   UNL     1      32.285  48.681  41.353  1.00  0.00     0.010 A 
HETATM   14  C   UNL     1      31.352  49.422  42.086  1.00  0.00    -0.058 A 
HETATM   15  C   UNL     1      31.796  50.522  42.832  1.00  0.00     0.010 A 
HETATM   16  C   UNL     1      33.148  50.883  42.837  1.00  0.00     0.037 A 
BRANCH  14  17
HETATM   17  C   UNL     1      29.901  49.017  42.105  1.00  0.00     0.034 C 
HETATM   18  C   UNL     1      29.580  48.013  41.009  1.00  0.00     0.010 C 
ENDBRANCH  14  17
ENDBRANCH  10  11
ENDBRANCH   9  10
ENDBRANCH   6   9
ENDBRANCH   1   5
BRANCH   2  19
HETATM   19  C   UNL     1      32.663  52.340  39.249  1.00  0.00     0.033 A 
HETATM   20  C   UNL     1      31.643  52.944  39.986  1.00  0.00     0.019 A 
HETATM   21  C   UNL     1      30.338  52.450  39.911  1.00  0.00     0.032 A 
HETATM   22  C   UNL     1      30.026  51.341  39.100  1.00  0.00     0.058 A 
HETATM   23  C   UNL     1      31.043  50.783  38.317  1.00  0.00     0.032 A 
HETATM   24  C   UNL     1      32.356  51.279  38.391  1.00  0.00     0.019 A 
BRANCH  22  25
HETATM   25  N   UNL     1      28.679  50.849  39.107  1.00  0.00    -0.238 N 
HETATM   26  N   UNL     1      28.254  50.115  38.039  1.00  0.00    -0.172 NA
HETATM   27  C   UNL     1      27.005  49.748  38.318  1.00  0.00     0.053 A 
HETATM   28  C   UNL     1      26.234  48.916  37.365  1.00  0.00     0.072 C 
HETATM   29  C   UNL     1      26.580  50.272  39.547  1.00  0.00     0.055 A 
HETATM   30  C   UNL     1      27.645  51.008  40.029  1.00  0.00     0.035 A 
HETATM   31  C   UNL     1      27.661  51.850  41.250  1.00  0.00     0.070 C 
ENDBRANCH  22  25
ENDBRANCH   2  19
TORSDOF 7
ENDMDL
MODEL 10
REMARK VINA RESULT:      -8.8     11.781     14.512
REMARK  7 active torsions:
REMARK  status: ('A' for Active; 'I' for Inactive)
REMARK    1  A    between atoms: C_2  and  C_3 
REMARK    2  A    between atoms: C_6  and  O_7 
REMARK    3  A    between atoms: O_7  and  C_8 
REMARK    4  A    between atoms: C_8  and  C_9 
REMARK       I    between atoms: C_9  and  N_10 
REMARK    5  A    between atoms: N_10  and  N_11 
REMARK       I    between atoms: N_11  and  C_12 
REMARK    6  A    between atoms: C_12  and  C_13 
REMARK    7  A    between atoms: C_16  and  N_17 
ROOT
HETATM    1  N   UNL     1      33.489  49.963  41.945  1.00  0.00    -0.263 N 
HETATM    2  C   UNL     1      32.214  49.831  42.469  1.00  0.00     0.270 C 
HETATM    3  O   UNL     1      31.869  50.320  43.539  1.00  0.00    -0.266 OA
HETATM    4  H   UNL     1      33.821  49.335  41.221  1.00  0.00     0.190 HD
ENDROOT
BRANCH   1   5
HETATM    5  N   UNL     1      34.453  50.606  42.730  1.00  0.00    -0.265 N 
HETATM    6  C   UNL     1      35.205  51.657  42.252  1.00  0.00     0.260 C 
HETATM    7  O   UNL     1      35.892  52.329  43.023  1.00  0.00    -0.269 OA
HETATM    8  H   UNL     1      34.289  50.607  43.736  1.00  0.00     0.190 HD
BRANCH   6   9
HETATM    9  C   UNL     1      35.213  51.895  40.747  1.00  0.00     0.280 C 
BRANCH   9  10
HETATM   10  O   UNL     1      34.175  52.809  40.418  1.00  0.00    -0.342 OA
BRANCH  10  11
HETATM   11  C   UNL     1      33.043  52.303  39.850  1.00  0.00     0.069 A 
HETATM   12  C   UNL     1      31.858  52.723  40.455  1.00  0.00     0.037 A 
HETATM   13  C   UNL     1      30.621  52.285  39.982  1.00  0.00     0.010 A 
HETATM   14  C   UNL     1      30.554  51.406  38.895  1.00  0.00    -0.058 A 
HETATM   15  C   UNL     1      31.745  50.992  38.285  1.00  0.00     0.010 A 
HETATM   16  C   UNL     1      32.984  51.437  38.760  1.00  0.00     0.037 A 
BRANCH  14  17
HETATM   17  C   UNL     1      29.219  50.950  38.365  1.00  0.00     0.034 C 
HETATM   18  C   UNL     1      28.083  51.301  39.312  1.00  0.00     0.010 C 
ENDBRANCH  14  17
ENDBRANCH  10  11
ENDBRANCH   9  10
ENDBRANCH   6   9
ENDBRANCH   1   5
BRANCH   2  19
HETATM   19  C   UNL     1      31.289  48.961  41.695  1.00  0.00     0.033 A 
HETATM   20  C   UNL     1      29.935  48.972  42.033  1.00  0.00     0.019 A 
HETATM   21  C   UNL     1      29.044  48.112  41.384  1.00  0.00     0.032 A 
HETATM   22  C   UNL     1      29.489  47.225  40.384  1.00  0.00     0.058 A 
HETATM   23  C   UNL     1      30.836  47.268  40.009  1.00  0.00     0.032 A 
HETATM   24  C   UNL     1      31.733  48.130  40.660  1.00  0.00     0.019 A 
BRANCH  22  25
HETATM   25  N   UNL     1      28.535  46.332  39.792  1.00  0.00    -0.238 N 
HETATM   26  N   UNL     1      28.648  44.999  40.057  1.00  0.00    -0.172 NA
HETATM   27  C   UNL     1      27.628  44.412  39.436  1.00  0.00     0.053 A 
HETATM   28  C   UNL     1      27.433  42.946  39.524  1.00  0.00     0.072 C 
HETATM   29  C   UNL     1      26.861  45.342  38.719  1.00  0.00     0.055 A 
HETATM   30  C   UNL     1      27.471  46.566  38.921  1.00  0.00     0.035 A 
HETATM   31  C   UNL     1      27.105  47.855  38.287  1.00  0.00     0.070 C 
ENDBRANCH  22  25
ENDBRANCH   2  19
TORSDOF 7
ENDMDL
