MODEL 1
REMARK VINA RESULT:      -8.7      0.000      0.000
REMARK  3 active torsions:
REMARK  status: ('A' for Active; 'I' for Inactive)
REMARK    1  A    between atoms: C_3  and  N_4 
REMARK       I    between atoms: N_4  and  C_5 
REMARK    2  A    between atoms: C_5  and  C_6 
REMARK    3  A    between atoms: C_7  and  C_8 
ROOT
HETATM    1  C   UNL     1      25.245  44.742  51.960  1.00  0.00     0.062 A 
HETATM    2  C   UNL     1      24.666  43.673  51.040  1.00  0.00     0.199 A 
HETATM    3  N   UNL     1      23.947  44.277  49.920  1.00  0.00    -0.092 N 
HETATM    4  C   UNL     1      23.780  45.622  49.739  1.00  0.00     0.735 A 
HETATM    5  N   UNL     1      24.348  46.479  50.609  1.00  0.00    -0.191 N 
HETATM    6  N   UNL     1      23.208  43.596  49.031  1.00  0.00     0.012 NA
HETATM    7  N   UNL     1      22.672  44.533  48.256  1.00  0.00     0.033 NA
HETATM    8  N   UNL     1      23.016  45.801  48.689  1.00  0.00     0.030 NA
HETATM    9  C   UNL     1      25.083  46.066  51.716  1.00  0.00     0.037 A 
HETATM   10  C   UNL     1      25.641  47.167  52.583  1.00  0.00     0.070 C 
HETATM   11  H   UNL     1      24.239  47.480  50.462  1.00  0.00     0.184 HD
ENDROOT
BRANCH   1  12
HETATM   12  C   UNL     1      26.103  44.276  53.080  1.00  0.00     0.256 C 
HETATM   13  N   UNL     1      27.432  44.592  52.901  1.00  0.00    -0.323 N 
HETATM   14  H   UNL     1      27.697  44.998  52.016  1.00  0.00     0.169 HD
HETATM   15  O   UNL     1      25.584  43.679  54.013  1.00  0.00    -0.267 OA
BRANCH  13  16
HETATM   16  C   UNL     1      28.494  44.381  53.816  1.00  0.00     0.041 A 
HETATM   17  C   UNL     1      29.351  43.273  53.622  1.00  0.00    -0.035 A 
HETATM   18  C   UNL     1      29.183  42.308  52.478  1.00  0.00     0.050 C 
HETATM   19  C   UNL     1      30.416  43.059  54.517  1.00  0.00     0.009 A 
HETATM   20  C   UNL     1      30.636  43.922  55.588  1.00  0.00     0.001 A 
HETATM   21  C   UNL     1      29.796  45.011  55.776  1.00  0.00     0.002 A 
HETATM   22  C   UNL     1      28.735  45.239  54.896  1.00  0.00     0.030 A 
ENDBRANCH  13  16
ENDBRANCH   1  12
BRANCH   2  23
HETATM   23  C   UNL     1      25.681  42.669  50.531  1.00  0.00    -0.011 A 
HETATM   24  C   UNL     1      26.613  43.050  49.566  1.00  0.00     0.125 A 
HETATM   25  N   UNL     1      27.542  42.225  49.036  1.00  0.00    -0.272 NA
HETATM   26  C   UNL     1      27.560  40.956  49.495  1.00  0.00     0.116 A 
HETATM   27  C   UNL     1      26.696  40.479  50.465  1.00  0.00     0.020 A 
HETATM   28  C   UNL     1      25.747  41.349  50.992  1.00  0.00     0.012 A 
ENDBRANCH   2  23
TORSDOF 3
ENDMDL
MODEL 2
REMARK VINA RESULT:      -8.3      1.748      4.559
REMARK  3 active torsions:
REMARK  status: ('A' for Active; 'I' for Inactive)
REMARK    1  A    between atoms: C_3  and  N_4 
REMARK       I    between atoms: N_4  and  C_5 
REMARK    2  A    between atoms: C_5  and  C_6 
REMARK    3  A    between atoms: C_7  and  C_8 
ROOT
HETATM    1  C   UNL     1      27.282  42.482  51.522  1.00  0.00     0.062 A 
HETATM    2  C   UNL     1      27.069  42.704  50.028  1.00  0.00     0.199 A 
HETATM    3  N   UNL     1      27.612  41.592  49.250  1.00  0.00    -0.092 N 
HETATM    4  C   UNL     1      28.259  40.513  49.784  1.00  0.00     0.735 A 
HETATM    5  N   UNL     1      28.378  40.412  51.123  1.00  0.00    -0.191 N 
HETATM    6  N   UNL     1      27.707  41.573  47.912  1.00  0.00     0.012 NA
HETATM    7  N   UNL     1      28.330  40.430  47.639  1.00  0.00     0.033 NA
HETATM    8  N   UNL     1      28.685  39.763  48.798  1.00  0.00     0.030 NA
HETATM    9  C   UNL     1      27.898  41.375  52.005  1.00  0.00     0.037 A 
HETATM   10  C   UNL     1      28.126  41.096  53.470  1.00  0.00     0.070 C 
HETATM   11  H   UNL     1      28.843  39.599  51.519  1.00  0.00     0.184 HD
ENDROOT
BRANCH   1  12
HETATM   12  C   UNL     1      26.676  43.477  52.445  1.00  0.00     0.256 C 
HETATM   13  N   UNL     1      27.573  44.437  52.857  1.00  0.00    -0.323 N 
HETATM   14  H   UNL     1      28.538  44.317  52.588  1.00  0.00     0.169 HD
HETATM   15  O   UNL     1      25.496  43.361  52.746  1.00  0.00    -0.267 OA
BRANCH  13  16
HETATM   16  C   UNL     1      27.302  45.578  53.654  1.00  0.00     0.041 A 
HETATM   17  C   UNL     1      28.082  45.802  54.812  1.00  0.00    -0.035 A 
HETATM   18  C   UNL     1      29.195  44.878  55.231  1.00  0.00     0.050 C 
HETATM   19  C   UNL     1      27.831  46.937  55.605  1.00  0.00     0.009 A 
HETATM   20  C   UNL     1      26.826  47.839  55.267  1.00  0.00     0.001 A 
HETATM   21  C   UNL     1      26.062  47.621  54.129  1.00  0.00     0.002 A 
HETATM   22  C   UNL     1      26.300  46.500  53.329  1.00  0.00     0.030 A 
ENDBRANCH  13  16
ENDBRANCH   1  12
BRANCH   2  23
HETATM   23  C   UNL     1      25.630  42.968  49.634  1.00  0.00    -0.011 A 
HETATM   24  C   UNL     1      25.247  44.239  49.208  1.00  0.00     0.125 A 
HETATM   25  N   UNL     1      23.988  44.577  48.856  1.00  0.00    -0.272 NA
HETATM   26  C   UNL     1      23.057  43.602  48.915  1.00  0.00     0.116 A 
HETATM   27  C   UNL     1      23.332  42.303  49.303  1.00  0.00     0.020 A 
HETATM   28  C   UNL     1      24.638  41.981  49.664  1.00  0.00     0.012 A 
ENDBRANCH   2  23
TORSDOF 3
ENDMDL
MODEL 3
REMARK VINA RESULT:      -8.2      2.640      6.527
REMARK  3 active torsions:
REMARK  status: ('A' for Active; 'I' for Inactive)
REMARK    1  A    between atoms: C_3  and  N_4 
REMARK       I    between atoms: N_4  and  C_5 
REMARK    2  A    between atoms: C_5  and  C_6 
REMARK    3  A    between atoms: C_7  and  C_8 
ROOT
HETATM    1  C   UNL     1      26.639  44.906  52.073  1.00  0.00     0.062 A 
HETATM    2  C   UNL     1      25.741  46.118  52.295  1.00  0.00     0.199 A 
HETATM    3  N   UNL     1      26.133  46.848  53.499  1.00  0.00    -0.092 N 
HETATM    4  C   UNL     1      27.145  46.476  54.339  1.00  0.00     0.735 A 
HETATM    5  N   UNL     1      27.886  45.391  54.037  1.00  0.00    -0.191 N 
HETATM    6  N   UNL     1      25.440  47.866  54.033  1.00  0.00     0.012 NA
HETATM    7  N   UNL     1      26.097  48.166  55.149  1.00  0.00     0.033 NA
HETATM    8  N   UNL     1      27.158  47.303  55.355  1.00  0.00     0.030 NA
HETATM    9  C   UNL     1      27.656  44.599  52.916  1.00  0.00     0.037 A 
HETATM   10  C   UNL     1      28.583  43.422  52.742  1.00  0.00     0.070 C 
HETATM   11  H   UNL     1      28.650  45.126  54.653  1.00  0.00     0.184 HD
ENDROOT
BRANCH   1  12
HETATM   12  C   UNL     1      26.434  44.134  50.820  1.00  0.00     0.256 C 
HETATM   13  N   UNL     1      25.398  43.231  50.914  1.00  0.00    -0.323 N 
HETATM   14  H   UNL     1      24.967  43.111  51.818  1.00  0.00     0.169 HD
HETATM   15  O   UNL     1      27.165  44.352  49.865  1.00  0.00    -0.267 OA
BRANCH  13  16
HETATM   16  C   UNL     1      24.878  42.412  49.880  1.00  0.00     0.041 A 
HETATM   17  C   UNL     1      23.575  42.670  49.397  1.00  0.00    -0.035 A 
HETATM   18  C   UNL     1      22.716  43.784  49.935  1.00  0.00     0.050 C 
HETATM   19  C   UNL     1      23.051  41.873  48.362  1.00  0.00     0.009 A 
HETATM   20  C   UNL     1      23.797  40.835  47.810  1.00  0.00     0.001 A 
HETATM   21  C   UNL     1      25.078  40.583  48.282  1.00  0.00     0.002 A 
HETATM   22  C   UNL     1      25.614  41.367  49.308  1.00  0.00     0.030 A 
ENDBRANCH  13  16
ENDBRANCH   1  12
BRANCH   2  23
HETATM   23  C   UNL     1      25.660  47.062  51.112  1.00  0.00    -0.011 A 
HETATM   24  C   UNL     1      24.438  47.280  50.477  1.00  0.00     0.125 A 
HETATM   25  N   UNL     1      24.268  48.083  49.405  1.00  0.00    -0.272 NA
HETATM   26  C   UNL     1      25.365  48.719  48.943  1.00  0.00     0.116 A 
HETATM   27  C   UNL     1      26.621  48.592  49.509  1.00  0.00     0.020 A 
HETATM   28  C   UNL     1      26.768  47.754  50.611  1.00  0.00     0.012 A 
ENDBRANCH   2  23
TORSDOF 3
ENDMDL
MODEL 4
REMARK VINA RESULT:      -7.9      5.066      7.851
REMARK  3 active torsions:
REMARK  status: ('A' for Active; 'I' for Inactive)
REMARK    1  A    between atoms: C_3  and  N_4 
REMARK       I    between atoms: N_4  and  C_5 
REMARK    2  A    between atoms: C_5  and  C_6 
REMARK    3  A    between atoms: C_7  and  C_8 
ROOT
HETATM    1  C   UNL     1      21.565  49.187  48.906  1.00  0.00     0.062 A 
HETATM    2  C   UNL     1      20.158  48.776  49.326  1.00  0.00     0.199 A 
HETATM    3  N   UNL     1      19.312  49.948  49.543  1.00  0.00    -0.092 N 
HETATM    4  C   UNL     1      19.733  51.243  49.424  1.00  0.00     0.735 A 
HETATM    5  N   UNL     1      20.998  51.491  49.031  1.00  0.00    -0.191 N 
HETATM    6  N   UNL     1      18.075  49.910  50.061  1.00  0.00     0.012 NA
HETATM    7  N   UNL     1      17.717  51.186  50.163  1.00  0.00     0.033 NA
HETATM    8  N   UNL     1      18.744  52.028  49.774  1.00  0.00     0.030 NA
HETATM    9  C   UNL     1      21.924  50.487  48.765  1.00  0.00     0.037 A 
HETATM   10  C   UNL     1      23.295  50.953  48.342  1.00  0.00     0.070 C 
HETATM   11  H   UNL     1      21.304  52.455  48.925  1.00  0.00     0.184 HD
ENDROOT
BRANCH   1  12
HETATM   12  C   UNL     1      22.504  48.096  48.536  1.00  0.00     0.256 C 
HETATM   13  N   UNL     1      23.223  47.624  49.612  1.00  0.00    -0.323 N 
HETATM   14  H   UNL     1      23.124  48.114  50.488  1.00  0.00     0.169 HD
HETATM   15  O   UNL     1      22.558  47.734  47.369  1.00  0.00    -0.267 OA
BRANCH  13  16
HETATM   16  C   UNL     1      24.126  46.531  49.626  1.00  0.00     0.041 A 
HETATM   17  C   UNL     1      25.514  46.794  49.687  1.00  0.00    -0.035 A 
HETATM   18  C   UNL     1      26.073  48.191  49.743  1.00  0.00     0.050 C 
HETATM   19  C   UNL     1      26.421  45.718  49.714  1.00  0.00     0.009 A 
HETATM   20  C   UNL     1      25.970  44.401  49.679  1.00  0.00     0.001 A 
HETATM   21  C   UNL     1      24.607  44.142  49.622  1.00  0.00     0.002 A 
HETATM   22  C   UNL     1      23.694  45.200  49.597  1.00  0.00     0.030 A 
ENDBRANCH  13  16
ENDBRANCH   1  12
BRANCH   2  23
HETATM   23  C   UNL     1      19.480  47.808  48.379  1.00  0.00    -0.011 A 
HETATM   24  C   UNL     1      19.264  46.486  48.770  1.00  0.00     0.125 A 
HETATM   25  N   UNL     1      18.689  45.545  47.991  1.00  0.00    -0.272 NA
HETATM   26  C   UNL     1      18.291  45.934  46.761  1.00  0.00     0.116 A 
HETATM   27  C   UNL     1      18.437  47.223  46.280  1.00  0.00     0.020 A 
HETATM   28  C   UNL     1      19.036  48.173  47.103  1.00  0.00     0.012 A 
ENDBRANCH   2  23
TORSDOF 3
ENDMDL
MODEL 5
REMARK VINA RESULT:      -7.7     12.812     15.063
REMARK  3 active torsions:
REMARK  status: ('A' for Active; 'I' for Inactive)
REMARK    1  A    between atoms: C_3  and  N_4 
REMARK       I    between atoms: N_4  and  C_5 
REMARK    2  A    between atoms: C_5  and  C_6 
REMARK    3  A    between atoms: C_7  and  C_8 
ROOT
HETATM    1  C   UNL     1      31.718  49.918  41.086  1.00  0.00     0.062 A 
HETATM    2  C   UNL     1      31.780  51.403  40.744  1.00  0.00     0.199 A 
HETATM    3  N   UNL     1      33.131  51.794  40.349  1.00  0.00    -0.092 N 
HETATM    4  C   UNL     1      34.208  50.953  40.324  1.00  0.00     0.735 A 
HETATM    5  N   UNL     1      34.035  49.653  40.634  1.00  0.00    -0.191 N 
HETATM    6  N   UNL     1      33.527  53.059  40.135  1.00  0.00     0.012 NA
HETATM    7  N   UNL     1      34.830  52.962  39.889  1.00  0.00     0.033 NA
HETATM    8  N   UNL     1      35.269  51.656  40.010  1.00  0.00     0.030 NA
HETATM    9  C   UNL     1      32.809  49.116  41.011  1.00  0.00     0.037 A 
HETATM   10  C   UNL     1      32.806  47.641  41.326  1.00  0.00     0.070 C 
HETATM   11  H   UNL     1      34.834  49.024  40.597  1.00  0.00     0.184 HD
ENDROOT
BRANCH   1  12
HETATM   12  C   UNL     1      30.379  49.352  41.393  1.00  0.00     0.256 C 
HETATM   13  N   UNL     1      29.832  48.670  40.329  1.00  0.00    -0.323 N 
HETATM   14  H   UNL     1      30.325  48.708  39.449  1.00  0.00     0.169 HD
HETATM   15  O   UNL     1      29.901  49.534  42.504  1.00  0.00    -0.267 OA
BRANCH  13  16
HETATM   16  C   UNL     1      28.621  47.932  40.315  1.00  0.00     0.041 A 
HETATM   17  C   UNL     1      27.398  48.633  40.204  1.00  0.00    -0.035 A 
HETATM   18  C   UNL     1      27.329  50.133  40.096  1.00  0.00     0.050 C 
HETATM   19  C   UNL     1      26.189  47.912  40.177  1.00  0.00     0.009 A 
HETATM   20  C   UNL     1      26.182  46.522  40.258  1.00  0.00     0.001 A 
HETATM   21  C   UNL     1      27.383  45.834  40.364  1.00  0.00     0.002 A 
HETATM   22  C   UNL     1      28.592  46.535  40.391  1.00  0.00     0.030 A 
ENDBRANCH  13  16
ENDBRANCH   1  12
BRANCH   2  23
HETATM   23  C   UNL     1      30.778  51.846  39.697  1.00  0.00    -0.011 A 
HETATM   24  C   UNL     1      30.834  51.311  38.409  1.00  0.00     0.125 A 
HETATM   25  N   UNL     1      30.001  51.657  37.404  1.00  0.00    -0.272 NA
HETATM   26  C   UNL     1      29.051  52.571  37.689  1.00  0.00     0.116 A 
HETATM   27  C   UNL     1      28.892  53.149  38.936  1.00  0.00     0.020 A 
HETATM   28  C   UNL     1      29.766  52.778  39.954  1.00  0.00     0.012 A 
ENDBRANCH   2  23
TORSDOF 3
ENDMDL
MODEL 6
REMARK VINA RESULT:      -7.5     12.641     14.783
REMARK  3 active torsions:
REMARK  status: ('A' for Active; 'I' for Inactive)
REMARK    1  A    between atoms: C_3  and  N_4 
REMARK       I    between atoms: N_4  and  C_5 
REMARK    2  A    between atoms: C_5  and  C_6 
REMARK    3  A    between atoms: C_7  and  C_8 
ROOT
HETATM    1  C   UNL     1      30.959  49.215  41.590  1.00  0.00     0.062 A 
HETATM    2  C   UNL     1      31.043  50.596  42.232  1.00  0.00     0.199 A 
HETATM    3  N   UNL     1      32.432  50.982  42.469  1.00  0.00    -0.092 N 
HETATM    4  C   UNL     1      33.515  50.196  42.189  1.00  0.00     0.735 A 
HETATM    5  N   UNL     1      33.325  48.995  41.607  1.00  0.00    -0.191 N 
HETATM    6  N   UNL     1      32.815  52.071  43.153  1.00  0.00     0.012 NA
HETATM    7  N   UNL     1      34.141  51.984  43.200  1.00  0.00     0.033 NA
HETATM    8  N   UNL     1      34.590  50.818  42.608  1.00  0.00     0.030 NA
HETATM    9  C   UNL     1      32.067  48.489  41.297  1.00  0.00     0.037 A 
HETATM   10  C   UNL     1      32.047  47.125  40.653  1.00  0.00     0.070 C 
HETATM   11  H   UNL     1      34.133  48.420  41.383  1.00  0.00     0.184 HD
ENDROOT
BRANCH   1  12
HETATM   12  C   UNL     1      29.611  48.740  41.183  1.00  0.00     0.256 C 
HETATM   13  N   UNL     1      29.412  48.803  39.822  1.00  0.00    -0.323 N 
HETATM   14  H   UNL     1      30.130  49.244  39.267  1.00  0.00     0.169 HD
HETATM   15  O   UNL     1      28.834  48.359  42.047  1.00  0.00    -0.267 OA
BRANCH  13  16
HETATM   16  C   UNL     1      28.284  48.340  39.099  1.00  0.00     0.041 A 
HETATM   17  C   UNL     1      27.481  49.281  38.413  1.00  0.00    -0.035 A 
HETATM   18  C   UNL     1      27.780  50.757  38.417  1.00  0.00     0.050 C 
HETATM   19  C   UNL     1      26.365  48.834  37.682  1.00  0.00     0.009 A 
HETATM   20  C   UNL     1      26.041  47.481  37.625  1.00  0.00     0.001 A 
HETATM   21  C   UNL     1      26.831  46.557  38.296  1.00  0.00     0.002 A 
HETATM   22  C   UNL     1      27.944  46.984  39.026  1.00  0.00     0.030 A 
ENDBRANCH  13  16
ENDBRANCH   1  12
BRANCH   2  23
HETATM   23  C   UNL     1      30.318  51.686  41.467  1.00  0.00    -0.011 A 
HETATM   24  C   UNL     1      30.901  52.243  40.329  1.00  0.00     0.125 A 
HETATM   25  N   UNL     1      30.346  53.230  39.595  1.00  0.00    -0.272 NA
HETATM   26  C   UNL     1      29.141  53.684  39.998  1.00  0.00     0.116 A 
HETATM   27  C   UNL     1      28.464  53.189  41.099  1.00  0.00     0.020 A 
HETATM   28  C   UNL     1      29.061  52.173  41.841  1.00  0.00     0.012 A 
ENDBRANCH   2  23
TORSDOF 3
ENDMDL
MODEL 7
REMARK VINA RESULT:      -7.5      2.188      5.356
REMARK  3 active torsions:
REMARK  status: ('A' for Active; 'I' for Inactive)
REMARK    1  A    between atoms: C_3  and  N_4 
REMARK       I    between atoms: N_4  and  C_5 
REMARK    2  A    between atoms: C_5  and  C_6 
REMARK    3  A    between atoms: C_7  and  C_8 
ROOT
HETATM    1  C   UNL     1      27.881  43.063  53.508  1.00  0.00     0.062 A 
HETATM    2  C   UNL     1      26.617  43.899  53.338  1.00  0.00     0.199 A 
HETATM    3  N   UNL     1      26.816  45.258  53.836  1.00  0.00    -0.092 N 
HETATM    4  C   UNL     1      27.968  45.713  54.414  1.00  0.00     0.735 A 
HETATM    5  N   UNL     1      29.031  44.890  54.501  1.00  0.00    -0.191 N 
HETATM    6  N   UNL     1      25.844  46.176  53.957  1.00  0.00     0.012 NA
HETATM    7  N   UNL     1      26.440  47.220  54.524  1.00  0.00     0.033 NA
HETATM    8  N   UNL     1      27.763  46.942  54.820  1.00  0.00     0.030 NA
HETATM    9  C   UNL     1      29.013  43.572  54.055  1.00  0.00     0.037 A 
HETATM   10  C   UNL     1      30.295  42.798  54.239  1.00  0.00     0.070 C 
HETATM   11  H   UNL     1      29.893  45.236  54.915  1.00  0.00     0.184 HD
ENDROOT
BRANCH   1  12
HETATM   12  C   UNL     1      27.865  41.691  52.938  1.00  0.00     0.256 C 
HETATM   13  N   UNL     1      28.503  41.612  51.720  1.00  0.00    -0.323 N 
HETATM   14  H   UNL     1      28.815  42.476  51.302  1.00  0.00     0.169 HD
HETATM   15  O   UNL     1      27.311  40.798  53.563  1.00  0.00    -0.267 OA
BRANCH  13  16
HETATM   16  C   UNL     1      28.752  40.443  50.957  1.00  0.00     0.041 A 
HETATM   17  C   UNL     1      28.265  40.379  49.630  1.00  0.00    -0.035 A 
HETATM   18  C   UNL     1      27.497  41.507  48.993  1.00  0.00     0.050 C 
HETATM   19  C   UNL     1      28.515  39.230  48.858  1.00  0.00     0.009 A 
HETATM   20  C   UNL     1      29.232  38.157  49.381  1.00  0.00     0.001 A 
HETATM   21  C   UNL     1      29.712  38.221  50.682  1.00  0.00     0.002 A 
HETATM   22  C   UNL     1      29.474  39.356  51.462  1.00  0.00     0.030 A 
ENDBRANCH  13  16
ENDBRANCH   1  12
BRANCH   2  23
HETATM   23  C   UNL     1      26.076  43.932  51.923  1.00  0.00    -0.011 A 
HETATM   24  C   UNL     1      26.740  44.666  50.940  1.00  0.00     0.125 A 
HETATM   25  N   UNL     1      26.326  44.775  49.659  1.00  0.00    -0.272 NA
HETATM   26  C   UNL     1      25.200  44.110  49.326  1.00  0.00     0.116 A 
HETATM   27  C   UNL     1      24.475  43.337  50.215  1.00  0.00     0.020 A 
HETATM   28  C   UNL     1      24.922  43.244  51.530  1.00  0.00     0.012 A 
ENDBRANCH   2  23
TORSDOF 3
ENDMDL
MODEL 8
REMARK VINA RESULT:      -7.4     16.994     18.873
REMARK  3 active torsions:
REMARK  status: ('A' for Active; 'I' for Inactive)
REMARK    1  A    between atoms: C_3  and  N_4 
REMARK       I    between atoms: N_4  and  C_5 
REMARK    2  A    between atoms: C_5  and  C_6 
REMARK    3  A    between atoms: C_7  and  C_8 
ROOT
HETATM    1  C   UNL     1      38.949  45.556  64.502  1.00  0.00     0.062 A 
HETATM    2  C   UNL     1      40.044  44.824  63.734  1.00  0.00     0.199 A 
HETATM    3  N   UNL     1      41.348  45.444  63.963  1.00  0.00    -0.092 N 
HETATM    4  C   UNL     1      41.557  46.555  64.731  1.00  0.00     0.735 A 
HETATM    5  N   UNL     1      40.515  47.113  65.378  1.00  0.00    -0.191 N 
HETATM    6  N   UNL     1      42.473  45.116  63.309  1.00  0.00     0.012 NA
HETATM    7  N   UNL     1      43.382  45.975  63.759  1.00  0.00     0.033 NA
HETATM    8  N   UNL     1      42.823  46.881  64.642  1.00  0.00     0.030 NA
HETATM    9  C   UNL     1      39.213  46.634  65.283  1.00  0.00     0.037 A 
HETATM   10  C   UNL     1      38.174  47.389  66.073  1.00  0.00     0.070 C 
HETATM   11  H   UNL     1      40.675  47.929  65.964  1.00  0.00     0.184 HD
ENDROOT
BRANCH   1  12
HETATM   12  C   UNL     1      37.585  44.967  64.459  1.00  0.00     0.256 C 
HETATM   13  N   UNL     1      37.342  44.107  65.507  1.00  0.00    -0.323 N 
HETATM   14  H   UNL     1      38.115  43.889  66.118  1.00  0.00     0.169 HD
HETATM   15  O   UNL     1      36.837  45.275  63.541  1.00  0.00    -0.267 OA
BRANCH  13  16
HETATM   16  C   UNL     1      36.121  43.457  65.817  1.00  0.00     0.041 A 
HETATM   17  C   UNL     1      35.272  44.029  66.793  1.00  0.00    -0.035 A 
HETATM   18  C   UNL     1      35.613  45.306  67.515  1.00  0.00     0.050 C 
HETATM   19  C   UNL     1      34.052  43.400  67.101  1.00  0.00     0.009 A 
HETATM   20  C   UNL     1      33.670  42.225  66.460  1.00  0.00     0.001 A 
HETATM   21  C   UNL     1      34.501  41.665  65.499  1.00  0.00     0.002 A 
HETATM   22  C   UNL     1      35.716  42.278  65.180  1.00  0.00     0.030 A 
ENDBRANCH  13  16
ENDBRANCH   1  12
BRANCH   2  23
HETATM   23  C   UNL     1      40.114  43.336  64.011  1.00  0.00    -0.011 A 
HETATM   24  C   UNL     1      40.703  42.873  65.187  1.00  0.00     0.125 A 
HETATM   25  N   UNL     1      40.832  41.569  65.513  1.00  0.00    -0.272 NA
HETATM   26  C   UNL     1      40.339  40.671  64.634  1.00  0.00     0.116 A 
HETATM   27  C   UNL     1      39.718  41.021  63.448  1.00  0.00     0.020 A 
HETATM   28  C   UNL     1      39.601  42.372  63.135  1.00  0.00     0.012 A 
ENDBRANCH   2  23
TORSDOF 3
ENDMDL
MODEL 9
REMARK VINA RESULT:      -7.2     12.743     14.101
REMARK  3 active torsions:
REMARK  status: ('A' for Active; 'I' for Inactive)
REMARK    1  A    between atoms: C_3  and  N_4 
REMARK       I    between atoms: N_4  and  C_5 
REMARK    2  A    between atoms: C_5  and  C_6 
REMARK    3  A    between atoms: C_7  and  C_8 
ROOT
HETATM    1  C   UNL     1      31.684  49.291  40.086  1.00  0.00     0.062 A 
HETATM    2  C   UNL     1      30.497  49.821  39.289  1.00  0.00     0.199 A 
HETATM    3  N   UNL     1      29.506  48.771  39.060  1.00  0.00    -0.092 N 
HETATM    4  C   UNL     1      29.640  47.474  39.472  1.00  0.00     0.735 A 
HETATM    5  N   UNL     1      30.728  47.118  40.183  1.00  0.00    -0.191 N 
HETATM    6  N   UNL     1      28.431  48.896  38.267  1.00  0.00     0.012 NA
HETATM    7  N   UNL     1      27.866  47.693  38.280  1.00  0.00     0.033 NA
HETATM    8  N   UNL     1      28.613  46.795  39.022  1.00  0.00     0.030 NA
HETATM    9  C   UNL     1      31.753  48.002  40.503  1.00  0.00     0.037 A 
HETATM   10  C   UNL     1      32.894  47.425  41.302  1.00  0.00     0.070 C 
HETATM   11  H   UNL     1      30.817  46.157  40.504  1.00  0.00     0.184 HD
ENDROOT
BRANCH   1  12
HETATM   12  C   UNL     1      32.717  50.277  40.495  1.00  0.00     0.256 C 
HETATM   13  N   UNL     1      33.035  50.193  41.832  1.00  0.00    -0.323 N 
HETATM   14  H   UNL     1      32.485  49.568  42.402  1.00  0.00     0.169 HD
HETATM   15  O   UNL     1      33.168  51.043  39.654  1.00  0.00    -0.267 OA
BRANCH  13  16
HETATM   16  C   UNL     1      34.042  50.916  42.520  1.00  0.00     0.041 A 
HETATM   17  C   UNL     1      33.678  51.682  43.651  1.00  0.00    -0.035 A 
HETATM   18  C   UNL     1      32.262  51.759  44.158  1.00  0.00     0.050 C 
HETATM   19  C   UNL     1      34.670  52.395  44.351  1.00  0.00     0.009 A 
HETATM   20  C   UNL     1      36.001  52.356  43.945  1.00  0.00     0.001 A 
HETATM   21  C   UNL     1      36.359  51.601  42.836  1.00  0.00     0.002 A 
HETATM   22  C   UNL     1      35.387  50.886  42.131  1.00  0.00     0.030 A 
ENDBRANCH  13  16
ENDBRANCH   1  12
BRANCH   2  23
HETATM   23  C   UNL     1      29.835  51.044  39.892  1.00  0.00    -0.011 A 
HETATM   24  C   UNL     1      29.756  52.227  39.157  1.00  0.00     0.125 A 
HETATM   25  N   UNL     1      29.206  53.373  39.613  1.00  0.00    -0.272 NA
HETATM   26  C   UNL     1      28.693  53.346  40.861  1.00  0.00     0.116 A 
HETATM   27  C   UNL     1      28.699  52.222  41.668  1.00  0.00     0.020 A 
HETATM   28  C   UNL     1      29.275  51.055  41.174  1.00  0.00     0.012 A 
ENDBRANCH   2  23
TORSDOF 3
ENDMDL
MODEL 10
REMARK VINA RESULT:      -7.1     13.202     14.277
REMARK  3 active torsions:
REMARK  status: ('A' for Active; 'I' for Inactive)
REMARK    1  A    between atoms: C_3  and  N_4 
REMARK       I    between atoms: N_4  and  C_5 
REMARK    2  A    between atoms: C_5  and  C_6 
REMARK    3  A    between atoms: C_7  and  C_8 
ROOT
HETATM    1  C   UNL     1      29.793  49.050  38.838  1.00  0.00     0.062 A 
HETATM    2  C   UNL     1      28.655  49.999  38.476  1.00  0.00     0.199 A 
HETATM    3  N   UNL     1      27.406  49.266  38.274  1.00  0.00    -0.092 N 
HETATM    4  C   UNL     1      27.280  47.908  38.358  1.00  0.00     0.735 A 
HETATM    5  N   UNL     1      28.352  47.166  38.699  1.00  0.00    -0.191 N 
HETATM    6  N   UNL     1      26.272  49.808  37.803  1.00  0.00     0.012 NA
HETATM    7  N   UNL     1      25.433  48.783  37.696  1.00  0.00     0.033 NA
HETATM    8  N   UNL     1      26.050  47.591  38.033  1.00  0.00     0.030 NA
HETATM    9  C   UNL     1      29.608  47.711  38.946  1.00  0.00     0.037 A 
HETATM   10  C   UNL     1      30.692  46.727  39.311  1.00  0.00     0.070 C 
HETATM   11  H   UNL     1      28.251  46.157  38.780  1.00  0.00     0.184 HD
ENDROOT
BRANCH   1  12
HETATM   12  C   UNL     1      31.099  49.667  39.189  1.00  0.00     0.256 C 
HETATM   13  N   UNL     1      31.355  49.640  40.542  1.00  0.00    -0.323 N 
HETATM   14  H   UNL     1      30.617  49.314  41.148  1.00  0.00     0.169 HD
HETATM   15  O   UNL     1      31.795  50.125  38.294  1.00  0.00    -0.267 OA
BRANCH  13  16
HETATM   16  C   UNL     1      32.543  50.053  41.197  1.00  0.00     0.041 A 
HETATM   17  C   UNL     1      32.476  51.126  42.116  1.00  0.00    -0.035 A 
HETATM   18  C   UNL     1      31.192  51.846  42.430  1.00  0.00     0.050 C 
HETATM   19  C   UNL     1      33.645  51.538  42.783  1.00  0.00     0.009 A 
HETATM   20  C   UNL     1      34.863  50.905  42.549  1.00  0.00     0.001 A 
HETATM   21  C   UNL     1      34.928  49.850  41.650  1.00  0.00     0.002 A 
HETATM   22  C   UNL     1      33.776  49.427  40.981  1.00  0.00     0.030 A 
ENDBRANCH  13  16
ENDBRANCH   1  12
BRANCH   2  23
HETATM   23  C   UNL     1      28.445  51.129  39.463  1.00  0.00    -0.011 A 
HETATM   24  C   UNL     1      27.787  50.889  40.669  1.00  0.00     0.125 A 
HETATM   25  N   UNL     1      27.535  51.833  41.601  1.00  0.00    -0.272 NA
HETATM   26  C   UNL     1      27.968  53.082  41.334  1.00  0.00     0.116 A 
HETATM   27  C   UNL     1      28.649  53.427  40.180  1.00  0.00     0.020 A 
HETATM   28  C   UNL     1      28.894  52.435  39.234  1.00  0.00     0.012 A 
ENDBRANCH   2  23
TORSDOF 3
ENDMDL
