MODEL 1
REMARK VINA RESULT:     -10.7      0.000      0.000
REMARK  9 active torsions:
REMARK  status: ('A' for Active; 'I' for Inactive)
REMARK    1  A    between atoms: C_4  and  C_5 
REMARK    2  A    between atoms: C_7  and  O_8 
REMARK    3  A    between atoms: C_10  and  O_11 
REMARK    4  A    between atoms: C_16  and  C_17 
REMARK    5  A    between atoms: C_20  and  C_21 
REMARK    6  A    between atoms: C_21  and  N_22 
REMARK    7  A    between atoms: N_22  and  C_23 
REMARK    8  A    between atoms: C_23  and  N_24 
REMARK    9  A    between atoms: N_24  and  C_25 
ROOT
HETATM    1  C   UNL     1      25.670  46.196  49.694  1.00  0.00     0.067 C 
HETATM    2  C   UNL     1      24.949  44.830  49.713  1.00  0.00     0.001 C 
HETATM    3  C   UNL     1      24.348  44.493  51.098  1.00  0.00     0.040 C 
HETATM    4  C   UNL     1      25.436  44.438  52.186  1.00  0.00     0.206 C 
HETATM    5  N   UNL     1      26.727  44.928  51.547  1.00  0.00    -0.065 N 
HETATM    6  H   UNL     1      27.428  44.974  52.306  1.00  0.00     0.280 HD
HETATM    7  C   UNL     1      26.578  46.307  50.940  1.00  0.00     0.246 C 
HETATM    8  C   UNL     1      26.056  43.763  49.474  1.00  0.00     0.033 C 
HETATM    9  C   UNL     1      27.189  43.929  50.501  1.00  0.00     0.236 C 
ENDROOT
BRANCH   4  10
HETATM   10  C   UNL     1      25.062  45.232  53.462  1.00  0.00     0.155 C 
BRANCH  10  11
HETATM   11  N   UNL     1      26.114  45.404  54.468  1.00  0.00    -0.365 N 
HETATM   12  H   UNL     1      26.570  44.541  54.752  1.00  0.00     0.161 HD
BRANCH  11  13
HETATM   13  C   UNL     1      26.906  46.506  54.650  1.00  0.00     0.172 C 
HETATM   14  S   UNL     1      26.353  47.975  55.210  1.00  0.00    -0.041 SA
BRANCH  13  15
HETATM   15  N   UNL     1      28.249  46.304  54.506  1.00  0.00    -0.333 N 
HETATM   16  H   UNL     1      28.729  47.010  53.954  1.00  0.00     0.168 HD
BRANCH  15  17
HETATM   17  C   UNL     1      29.021  45.138  54.775  1.00  0.00     0.045 A 
HETATM   18  C   UNL     1      29.787  45.058  55.973  1.00  0.00     0.001 A 
HETATM   19  C   UNL     1      30.589  43.906  56.189  1.00  0.00    -0.024 A 
HETATM   20  C   UNL     1      29.784  46.045  56.991  1.00  0.00     0.014 A 
HETATM   21  C   UNL     1      31.352  43.782  57.361  1.00  0.00     0.012 A 
HETATM   22  C   UNL     1      30.621  42.883  55.232  1.00  0.00     0.012 A 
HETATM   23  C   UNL     1      31.335  44.777  58.335  1.00  0.00     0.001 A 
HETATM   24  C   UNL     1      30.550  45.907  58.153  1.00  0.00     0.001 A 
HETATM   25  C   UNL     1      29.885  42.983  54.056  1.00  0.00     0.003 A 
HETATM   26  C   UNL     1      29.098  44.106  53.826  1.00  0.00     0.030 A 
ENDBRANCH  15  17
ENDBRANCH  13  15
ENDBRANCH  11  13
ENDBRANCH  10  11
ENDBRANCH   4  10
BRANCH   1  27
HETATM   27  C   UNL     1      24.937  47.486  49.448  1.00  0.00     0.038 C 
HETATM   28  N   UNL     1      25.365  48.723  49.028  1.00  0.00    -0.277 N 
HETATM   29  C   UNL     1      26.690  49.256  48.829  1.00  0.00     0.179 C 
HETATM   30  N   UNL     1      24.353  49.556  48.729  1.00  0.00    -0.172 NA
HETATM   31  C   UNL     1      23.236  48.938  49.128  1.00  0.00     0.089 C 
HETATM   32  C   UNL     1      23.564  47.644  49.595  1.00  0.00     0.061 C 
BRANCH  31  33
HETATM   33  C   UNL     1      21.911  49.555  49.015  1.00  0.00    -0.003 A 
HETATM   34  C   UNL     1      20.748  48.783  49.173  1.00  0.00     0.053 A 
HETATM   35  C   UNL     1      19.477  49.369  49.103  1.00  0.00     0.102 A 
HETATM   36  C   UNL     1      19.357  50.753  48.872  1.00  0.00     0.101 A 
HETATM   37  C   UNL     1      20.510  51.521  48.696  1.00  0.00     0.040 A 
HETATM   38  C   UNL     1      21.775  50.928  48.768  1.00  0.00     0.017 A 
BRANCH  35  39
HETATM   39  O   UNL     1      18.298  48.683  49.261  1.00  0.00    -0.353 OA
HETATM   40  C   UNL     1      17.799  47.957  48.147  1.00  0.00     0.210 C 
ENDBRANCH  35  39
BRANCH  36  41
HETATM   41  O   UNL     1      18.080  51.253  48.828  1.00  0.00    -0.353 OA
HETATM   42  C   UNL     1      17.653  51.875  47.625  1.00  0.00     0.210 C 
ENDBRANCH  36  41
ENDBRANCH  31  33
ENDBRANCH   1  27
TORSDOF 9
ENDMDL
MODEL 2
REMARK VINA RESULT:     -10.2      1.691      2.753
REMARK  9 active torsions:
REMARK  status: ('A' for Active; 'I' for Inactive)
REMARK    1  A    between atoms: C_4  and  C_5 
REMARK    2  A    between atoms: C_7  and  O_8 
REMARK    3  A    between atoms: C_10  and  O_11 
REMARK    4  A    between atoms: C_16  and  C_17 
REMARK    5  A    between atoms: C_20  and  C_21 
REMARK    6  A    between atoms: C_21  and  N_22 
REMARK    7  A    between atoms: N_22  and  C_23 
REMARK    8  A    between atoms: C_23  and  N_24 
REMARK    9  A    between atoms: N_24  and  C_25 
ROOT
HETATM    1  C   UNL     1      24.473  45.570  49.201  1.00  0.00     0.067 C 
HETATM    2  C   UNL     1      24.526  44.387  50.194  1.00  0.00     0.001 C 
HETATM    3  C   UNL     1      24.590  44.849  51.669  1.00  0.00     0.040 C 
HETATM    4  C   UNL     1      25.837  45.712  51.935  1.00  0.00     0.206 C 
HETATM    5  N   UNL     1      26.493  45.973  50.587  1.00  0.00    -0.065 N 
HETATM    6  H   UNL     1      27.274  46.626  50.766  1.00  0.00     0.280 HD
HETATM    7  C   UNL     1      25.538  46.616  49.602  1.00  0.00     0.246 C 
HETATM    8  C   UNL     1      25.882  43.671  49.928  1.00  0.00     0.033 C 
HETATM    9  C   UNL     1      27.045  44.674  50.029  1.00  0.00     0.236 C 
ENDROOT
BRANCH   4  10
HETATM   10  C   UNL     1      25.522  47.016  52.709  1.00  0.00     0.155 C 
BRANCH  10  11
HETATM   11  N   UNL     1      26.604  47.586  53.516  1.00  0.00    -0.365 N 
HETATM   12  H   UNL     1      27.015  48.433  53.133  1.00  0.00     0.161 HD
BRANCH  11  13
HETATM   13  C   UNL     1      26.754  47.492  54.875  1.00  0.00     0.172 C 
HETATM   14  S   UNL     1      26.414  48.724  55.943  1.00  0.00    -0.041 SA
BRANCH  13  15
HETATM   15  N   UNL     1      27.049  46.248  55.356  1.00  0.00    -0.333 N 
HETATM   16  H   UNL     1      26.247  45.717  55.686  1.00  0.00     0.168 HD
BRANCH  15  17
HETATM   17  C   UNL     1      28.311  45.694  55.713  1.00  0.00     0.045 A 
HETATM   18  C   UNL     1      28.891  44.676  54.902  1.00  0.00     0.001 A 
HETATM   19  C   UNL     1      30.125  44.104  55.312  1.00  0.00    -0.024 A 
HETATM   20  C   UNL     1      28.332  44.208  53.686  1.00  0.00     0.014 A 
HETATM   21  C   UNL     1      30.735  43.105  54.537  1.00  0.00     0.012 A 
HETATM   22  C   UNL     1      30.742  44.537  56.493  1.00  0.00     0.012 A 
HETATM   23  C   UNL     1      30.152  42.659  53.354  1.00  0.00     0.001 A 
HETATM   24  C   UNL     1      28.953  43.212  52.926  1.00  0.00     0.001 A 
HETATM   25  C   UNL     1      30.155  45.516  57.287  1.00  0.00     0.003 A 
HETATM   26  C   UNL     1      28.944  46.083  56.904  1.00  0.00     0.030 A 
ENDBRANCH  15  17
ENDBRANCH  13  15
ENDBRANCH  11  13
ENDBRANCH  10  11
ENDBRANCH   4  10
BRANCH   1  27
HETATM   27  C   UNL     1      23.182  46.239  48.821  1.00  0.00     0.038 C 
HETATM   28  N   UNL     1      21.983  45.740  48.369  1.00  0.00    -0.277 N 
HETATM   29  C   UNL     1      21.600  44.413  47.952  1.00  0.00     0.179 C 
HETATM   30  N   UNL     1      21.004  46.661  48.348  1.00  0.00    -0.172 NA
HETATM   31  C   UNL     1      21.594  47.832  48.609  1.00  0.00     0.089 C 
HETATM   32  C   UNL     1      22.959  47.609  48.899  1.00  0.00     0.061 C 
BRANCH  31  33
HETATM   33  C   UNL     1      20.855  49.099  48.625  1.00  0.00    -0.003 A 
HETATM   34  C   UNL     1      19.873  49.365  47.657  1.00  0.00     0.053 A 
HETATM   35  C   UNL     1      19.136  50.556  47.684  1.00  0.00     0.102 A 
HETATM   36  C   UNL     1      19.379  51.506  48.696  1.00  0.00     0.101 A 
HETATM   37  C   UNL     1      20.368  51.254  49.649  1.00  0.00     0.040 A 
HETATM   38  C   UNL     1      21.098  50.061  49.614  1.00  0.00     0.017 A 
BRANCH  35  39
HETATM   39  O   UNL     1      18.152  50.879  46.782  1.00  0.00    -0.353 OA
HETATM   40  C   UNL     1      16.934  50.151  46.842  1.00  0.00     0.210 C 
ENDBRANCH  35  39
BRANCH  36  41
HETATM   41  O   UNL     1      18.609  52.641  48.660  1.00  0.00    -0.353 OA
HETATM   42  C   UNL     1      17.547  52.752  49.597  1.00  0.00     0.210 C 
ENDBRANCH  36  41
ENDBRANCH  31  33
ENDBRANCH   1  27
TORSDOF 9
ENDMDL
MODEL 3
REMARK VINA RESULT:     -10.1      3.814     10.658
REMARK  9 active torsions:
REMARK  status: ('A' for Active; 'I' for Inactive)
REMARK    1  A    between atoms: C_4  and  C_5 
REMARK    2  A    between atoms: C_7  and  O_8 
REMARK    3  A    between atoms: C_10  and  O_11 
REMARK    4  A    between atoms: C_16  and  C_17 
REMARK    5  A    between atoms: C_20  and  C_21 
REMARK    6  A    between atoms: C_21  and  N_22 
REMARK    7  A    between atoms: N_22  and  C_23 
REMARK    8  A    between atoms: C_23  and  N_24 
REMARK    9  A    between atoms: N_24  and  C_25 
ROOT
HETATM    1  C   UNL     1      25.540  42.108  50.433  1.00  0.00     0.067 C 
HETATM    2  C   UNL     1      25.608  42.570  48.961  1.00  0.00     0.001 C 
HETATM    3  C   UNL     1      25.393  44.094  48.804  1.00  0.00     0.040 C 
HETATM    4  C   UNL     1      24.019  44.528  49.344  1.00  0.00     0.206 C 
HETATM    5  N   UNL     1      23.409  43.314  50.031  1.00  0.00    -0.065 N 
HETATM    6  H   UNL     1      22.530  43.640  50.469  1.00  0.00     0.280 HD
HETATM    7  C   UNL     1      24.311  42.755  51.111  1.00  0.00     0.246 C 
HETATM    8  C   UNL     1      24.390  41.908  48.253  1.00  0.00     0.033 C 
HETATM    9  C   UNL     1      23.088  42.251  48.997  1.00  0.00     0.236 C 
ENDROOT
BRANCH   4  10
HETATM   10  C   UNL     1      24.092  45.765  50.273  1.00  0.00     0.155 C 
BRANCH  10  11
HETATM   11  N   UNL     1      24.721  46.969  49.723  1.00  0.00    -0.365 N 
HETATM   12  H   UNL     1      25.546  46.793  49.155  1.00  0.00     0.161 HD
BRANCH  11  13
HETATM   13  C   UNL     1      24.101  48.149  49.405  1.00  0.00     0.172 C 
HETATM   14  S   UNL     1      24.863  49.445  48.687  1.00  0.00    -0.041 SA
BRANCH  13  15
HETATM   15  N   UNL     1      22.743  48.166  49.554  1.00  0.00    -0.333 N 
HETATM   16  H   UNL     1      22.415  47.958  50.493  1.00  0.00     0.168 HD
BRANCH  15  17
HETATM   17  C   UNL     1      21.725  48.163  48.558  1.00  0.00     0.045 A 
HETATM   18  C   UNL     1      20.913  49.319  48.375  1.00  0.00     0.001 A 
HETATM   19  C   UNL     1      19.871  49.268  47.412  1.00  0.00    -0.024 A 
HETATM   20  C   UNL     1      21.090  50.540  49.073  1.00  0.00     0.014 A 
HETATM   21  C   UNL     1      19.052  50.387  47.192  1.00  0.00     0.012 A 
HETATM   22  C   UNL     1      19.655  48.098  46.671  1.00  0.00     0.012 A 
HETATM   23  C   UNL     1      19.246  51.568  47.906  1.00  0.00     0.001 A 
HETATM   24  C   UNL     1      20.267  51.646  48.843  1.00  0.00     0.001 A 
HETATM   25  C   UNL     1      20.441  46.969  46.875  1.00  0.00     0.003 A 
HETATM   26  C   UNL     1      21.463  46.999  47.818  1.00  0.00     0.030 A 
ENDBRANCH  15  17
ENDBRANCH  13  15
ENDBRANCH  11  13
ENDBRANCH  10  11
ENDBRANCH   4  10
BRANCH   1  27
HETATM   27  C   UNL     1      26.738  42.151  51.342  1.00  0.00     0.038 C 
HETATM   28  N   UNL     1      27.899  41.416  51.373  1.00  0.00    -0.277 N 
HETATM   29  C   UNL     1      28.301  40.241  50.639  1.00  0.00     0.179 C 
HETATM   30  N   UNL     1      28.816  41.915  52.220  1.00  0.00    -0.172 NA
HETATM   31  C   UNL     1      28.198  42.884  52.902  1.00  0.00     0.089 C 
HETATM   32  C   UNL     1      26.892  43.054  52.389  1.00  0.00     0.061 C 
BRANCH  31  33
HETATM   33  C   UNL     1      28.862  43.643  53.968  1.00  0.00    -0.003 A 
HETATM   34  C   UNL     1      28.273  44.807  54.487  1.00  0.00     0.053 A 
HETATM   35  C   UNL     1      28.880  45.520  55.530  1.00  0.00     0.102 A 
HETATM   36  C   UNL     1      30.099  45.066  56.070  1.00  0.00     0.101 A 
HETATM   37  C   UNL     1      30.697  43.919  55.544  1.00  0.00     0.040 A 
HETATM   38  C   UNL     1      30.083  43.215  54.503  1.00  0.00     0.017 A 
BRANCH  35  39
HETATM   39  O   UNL     1      28.358  46.657  56.099  1.00  0.00    -0.353 OA
HETATM   40  C   UNL     1      27.683  47.572  55.249  1.00  0.00     0.210 C 
ENDBRANCH  35  39
BRANCH  36  41
HETATM   41  O   UNL     1      30.624  45.812  57.095  1.00  0.00    -0.353 OA
HETATM   42  C   UNL     1      30.835  45.168  58.343  1.00  0.00     0.210 C 
ENDBRANCH  36  41
ENDBRANCH  31  33
ENDBRANCH   1  27
TORSDOF 9
ENDMDL
MODEL 4
REMARK VINA RESULT:      -9.8      3.819     11.016
REMARK  9 active torsions:
REMARK  status: ('A' for Active; 'I' for Inactive)
REMARK    1  A    between atoms: C_4  and  C_5 
REMARK    2  A    between atoms: C_7  and  O_8 
REMARK    3  A    between atoms: C_10  and  O_11 
REMARK    4  A    between atoms: C_16  and  C_17 
REMARK    5  A    between atoms: C_20  and  C_21 
REMARK    6  A    between atoms: C_21  and  N_22 
REMARK    7  A    between atoms: N_22  and  C_23 
REMARK    8  A    between atoms: C_23  and  N_24 
REMARK    9  A    between atoms: N_24  and  C_25 
ROOT
HETATM    1  C   UNL     1      24.655  42.979  50.689  1.00  0.00     0.067 C 
HETATM    2  C   UNL     1      24.536  43.068  49.151  1.00  0.00     0.001 C 
HETATM    3  C   UNL     1      24.811  44.492  48.614  1.00  0.00     0.040 C 
HETATM    4  C   UNL     1      23.819  45.515  49.198  1.00  0.00     0.206 C 
HETATM    5  N   UNL     1      23.014  44.792  50.267  1.00  0.00    -0.065 N 
HETATM    6  H   UNL     1      22.417  45.508  50.715  1.00  0.00     0.280 HD
HETATM    7  C   UNL     1      23.899  44.167  51.325  1.00  0.00     0.246 C 
HETATM    8  C   UNL     1      23.041  42.786  48.825  1.00  0.00     0.033 C 
HETATM    9  C   UNL     1      22.131  43.742  49.618  1.00  0.00     0.236 C 
ENDROOT
BRANCH   4  10
HETATM   10  C   UNL     1      24.509  46.795  49.732  1.00  0.00     0.155 C 
BRANCH  10  11
HETATM   11  N   UNL     1      23.635  47.876  50.193  1.00  0.00    -0.365 N 
HETATM   12  H   UNL     1      23.702  48.079  51.187  1.00  0.00     0.161 HD
BRANCH  11  13
HETATM   13  C   UNL     1      23.199  48.950  49.462  1.00  0.00     0.172 C 
HETATM   14  S   UNL     1      24.034  49.614  48.182  1.00  0.00    -0.041 SA
BRANCH  13  15
HETATM   15  N   UNL     1      21.927  49.372  49.726  1.00  0.00    -0.333 N 
HETATM   16  H   UNL     1      21.801  49.799  50.639  1.00  0.00     0.168 HD
BRANCH  15  17
HETATM   17  C   UNL     1      20.715  49.068  49.043  1.00  0.00     0.045 A 
HETATM   18  C   UNL     1      19.850  50.124  48.634  1.00  0.00     0.001 A 
HETATM   19  C   UNL     1      18.623  49.788  48.004  1.00  0.00    -0.024 A 
HETATM   20  C   UNL     1      20.144  51.502  48.788  1.00  0.00     0.014 A 
HETATM   21  C   UNL     1      17.745  50.798  47.577  1.00  0.00     0.012 A 
HETATM   22  C   UNL     1      18.281  48.445  47.801  1.00  0.00     0.012 A 
HETATM   23  C   UNL     1      18.060  52.143  47.755  1.00  0.00     0.001 A 
HETATM   24  C   UNL     1      19.259  52.496  48.357  1.00  0.00     0.001 A 
HETATM   25  C   UNL     1      19.124  47.423  48.225  1.00  0.00     0.003 A 
HETATM   26  C   UNL     1      20.327  47.733  48.849  1.00  0.00     0.030 A 
ENDBRANCH  15  17
ENDBRANCH  13  15
ENDBRANCH  11  13
ENDBRANCH  10  11
ENDBRANCH   4  10
BRANCH   1  27
HETATM   27  C   UNL     1      25.972  42.751  51.379  1.00  0.00     0.038 C 
HETATM   28  N   UNL     1      27.019  41.903  51.108  1.00  0.00    -0.277 N 
HETATM   29  C   UNL     1      27.151  40.824  50.159  1.00  0.00     0.179 C 
HETATM   30  N   UNL     1      28.111  42.161  51.849  1.00  0.00    -0.172 NA
HETATM   31  C   UNL     1      27.735  43.069  52.756  1.00  0.00     0.089 C 
HETATM   32  C   UNL     1      26.398  43.453  52.500  1.00  0.00     0.061 C 
BRANCH  31  33
HETATM   33  C   UNL     1      28.645  43.574  53.789  1.00  0.00    -0.003 A 
HETATM   34  C   UNL     1      28.412  44.818  54.398  1.00  0.00     0.053 A 
HETATM   35  C   UNL     1      29.254  45.294  55.412  1.00  0.00     0.102 A 
HETATM   36  C   UNL     1      30.352  44.518  55.831  1.00  0.00     0.101 A 
HETATM   37  C   UNL     1      30.597  43.289  55.215  1.00  0.00     0.040 A 
HETATM   38  C   UNL     1      29.751  42.822  54.204  1.00  0.00     0.017 A 
BRANCH  35  39
HETATM   39  O   UNL     1      29.082  46.492  56.063  1.00  0.00    -0.353 OA
HETATM   40  C   UNL     1      27.860  47.186  55.862  1.00  0.00     0.210 C 
ENDBRANCH  35  39
BRANCH  36  41
HETATM   41  O   UNL     1      31.122  45.049  56.836  1.00  0.00    -0.353 OA
HETATM   42  C   UNL     1      31.047  44.443  58.118  1.00  0.00     0.210 C 
ENDBRANCH  36  41
ENDBRANCH  31  33
ENDBRANCH   1  27
TORSDOF 9
ENDMDL
MODEL 5
REMARK VINA RESULT:      -9.7      2.039      3.076
REMARK  9 active torsions:
REMARK  status: ('A' for Active; 'I' for Inactive)
REMARK    1  A    between atoms: C_4  and  C_5 
REMARK    2  A    between atoms: C_7  and  O_8 
REMARK    3  A    between atoms: C_10  and  O_11 
REMARK    4  A    between atoms: C_16  and  C_17 
REMARK    5  A    between atoms: C_20  and  C_21 
REMARK    6  A    between atoms: C_21  and  N_22 
REMARK    7  A    between atoms: N_22  and  C_23 
REMARK    8  A    between atoms: C_23  and  N_24 
REMARK    9  A    between atoms: N_24  and  C_25 
ROOT
HETATM    1  C   UNL     1      22.935  44.840  48.826  1.00  0.00     0.067 C 
HETATM    2  C   UNL     1      22.949  43.850  50.012  1.00  0.00     0.001 C 
HETATM    3  C   UNL     1      24.321  43.795  50.726  1.00  0.00     0.040 C 
HETATM    4  C   UNL     1      25.439  43.354  49.763  1.00  0.00     0.206 C 
HETATM    5  N   UNL     1      24.831  43.304  48.369  1.00  0.00    -0.065 N 
HETATM    6  H   UNL     1      25.609  43.097  47.720  1.00  0.00     0.280 HD
HETATM    7  C   UNL     1      24.205  44.624  47.971  1.00  0.00     0.246 C 
HETATM    8  C   UNL     1      22.753  42.438  49.388  1.00  0.00     0.033 C 
HETATM    9  C   UNL     1      23.810  42.183  48.299  1.00  0.00     0.236 C 
ENDROOT
BRANCH   4  10
HETATM   10  C   UNL     1      26.695  44.257  49.835  1.00  0.00     0.155 C 
BRANCH  10  11
HETATM   11  N   UNL     1      27.693  43.925  50.855  1.00  0.00    -0.365 N 
HETATM   12  H   UNL     1      28.310  44.693  51.108  1.00  0.00     0.161 HD
BRANCH  11  13
HETATM   13  C   UNL     1      27.572  42.993  51.851  1.00  0.00     0.172 C 
HETATM   14  S   UNL     1      28.131  41.427  51.744  1.00  0.00    -0.041 SA
BRANCH  13  15
HETATM   15  N   UNL     1      27.101  43.458  53.047  1.00  0.00    -0.333 N 
HETATM   16  H   UNL     1      26.201  43.078  53.328  1.00  0.00     0.168 HD
BRANCH  15  17
HETATM   17  C   UNL     1      27.537  44.574  53.816  1.00  0.00     0.045 A 
HETATM   18  C   UNL     1      28.697  44.459  54.635  1.00  0.00     0.001 A 
HETATM   19  C   UNL     1      29.077  45.572  55.432  1.00  0.00    -0.024 A 
HETATM   20  C   UNL     1      29.525  43.310  54.691  1.00  0.00     0.014 A 
HETATM   21  C   UNL     1      30.218  45.504  56.247  1.00  0.00     0.012 A 
HETATM   22  C   UNL     1      28.314  46.747  55.407  1.00  0.00     0.012 A 
HETATM   23  C   UNL     1      31.003  44.354  56.287  1.00  0.00     0.001 A 
HETATM   24  C   UNL     1      30.659  43.258  55.507  1.00  0.00     0.001 A 
HETATM   25  C   UNL     1      27.172  46.839  54.620  1.00  0.00     0.003 A 
HETATM   26  C   UNL     1      26.782  45.758  53.837  1.00  0.00     0.030 A 
ENDBRANCH  15  17
ENDBRANCH  13  15
ENDBRANCH  11  13
ENDBRANCH  10  11
ENDBRANCH   4  10
BRANCH   1  27
HETATM   27  C   UNL     1      22.655  46.306  49.009  1.00  0.00     0.038 C 
HETATM   28  N   UNL     1      23.463  47.361  49.362  1.00  0.00    -0.277 N 
HETATM   29  C   UNL     1      24.825  47.402  49.835  1.00  0.00     0.179 C 
HETATM   30  N   UNL     1      22.866  48.556  49.204  1.00  0.00    -0.172 NA
HETATM   31  C   UNL     1      21.586  48.294  48.921  1.00  0.00     0.089 C 
HETATM   32  C   UNL     1      21.414  46.896  48.802  1.00  0.00     0.061 C 
BRANCH  31  33
HETATM   33  C   UNL     1      20.591  49.354  48.726  1.00  0.00    -0.003 A 
HETATM   34  C   UNL     1      19.229  49.037  48.596  1.00  0.00     0.053 A 
HETATM   35  C   UNL     1      18.265  50.043  48.446  1.00  0.00     0.102 A 
HETATM   36  C   UNL     1      18.662  51.394  48.425  1.00  0.00     0.101 A 
HETATM   37  C   UNL     1      20.017  51.712  48.534  1.00  0.00     0.040 A 
HETATM   38  C   UNL     1      20.972  50.701  48.684  1.00  0.00     0.017 A 
BRANCH  35  39
HETATM   39  O   UNL     1      16.916  49.812  48.328  1.00  0.00    -0.353 OA
HETATM   40  C   UNL     1      16.480  48.945  47.292  1.00  0.00     0.210 C 
ENDBRANCH  35  39
BRANCH  36  41
HETATM   41  O   UNL     1      17.658  52.319  48.285  1.00  0.00    -0.353 OA
HETATM   42  C   UNL     1      17.141  52.920  49.463  1.00  0.00     0.210 C 
ENDBRANCH  36  41
ENDBRANCH  31  33
ENDBRANCH   1  27
TORSDOF 9
ENDMDL
MODEL 6
REMARK VINA RESULT:      -9.7      1.743      2.173
REMARK  9 active torsions:
REMARK  status: ('A' for Active; 'I' for Inactive)
REMARK    1  A    between atoms: C_4  and  C_5 
REMARK    2  A    between atoms: C_7  and  O_8 
REMARK    3  A    between atoms: C_10  and  O_11 
REMARK    4  A    between atoms: C_16  and  C_17 
REMARK    5  A    between atoms: C_20  and  C_21 
REMARK    6  A    between atoms: C_21  and  N_22 
REMARK    7  A    between atoms: N_22  and  C_23 
REMARK    8  A    between atoms: C_23  and  N_24 
REMARK    9  A    between atoms: N_24  and  C_25 
ROOT
HETATM    1  C   UNL     1      24.527  44.400  49.243  1.00  0.00     0.067 C 
HETATM    2  C   UNL     1      24.462  43.483  50.485  1.00  0.00     0.001 C 
HETATM    3  C   UNL     1      24.586  44.268  51.812  1.00  0.00     0.040 C 
HETATM    4  C   UNL     1      25.920  45.032  51.892  1.00  0.00     0.206 C 
HETATM    5  N   UNL     1      26.589  44.902  50.531  1.00  0.00    -0.065 N 
HETATM    6  H   UNL     1      27.436  45.493  50.566  1.00  0.00     0.280 HD
HETATM    7  C   UNL     1      25.700  45.393  49.408  1.00  0.00     0.246 C 
HETATM    8  C   UNL     1      25.732  42.587  50.416  1.00  0.00     0.033 C 
HETATM    9  C   UNL     1      26.996  43.458  50.300  1.00  0.00     0.236 C 
ENDROOT
BRANCH   4  10
HETATM   10  C   UNL     1      25.751  46.507  52.335  1.00  0.00     0.155 C 
BRANCH  10  11
HETATM   11  N   UNL     1      26.836  47.088  53.130  1.00  0.00    -0.365 N 
HETATM   12  H   UNL     1      27.255  47.922  52.726  1.00  0.00     0.161 HD
BRANCH  11  13
HETATM   13  C   UNL     1      26.982  47.029  54.491  1.00  0.00     0.172 C 
HETATM   14  S   UNL     1      26.780  48.328  55.513  1.00  0.00    -0.041 SA
BRANCH  13  15
HETATM   15  N   UNL     1      27.147  45.779  55.017  1.00  0.00    -0.333 N 
HETATM   16  H   UNL     1      26.427  45.496  55.676  1.00  0.00     0.168 HD
BRANCH  15  17
HETATM   17  C   UNL     1      28.293  44.934  54.995  1.00  0.00     0.045 A 
HETATM   18  C   UNL     1      29.237  44.995  56.060  1.00  0.00     0.001 A 
HETATM   19  C   UNL     1      30.397  44.180  55.985  1.00  0.00    -0.024 A 
HETATM   20  C   UNL     1      29.085  45.801  57.217  1.00  0.00     0.014 A 
HETATM   21  C   UNL     1      31.349  44.203  57.017  1.00  0.00     0.012 A 
HETATM   22  C   UNL     1      30.598  43.344  54.879  1.00  0.00     0.012 A 
HETATM   23  C   UNL     1      31.174  45.016  58.134  1.00  0.00     0.001 A 
HETATM   24  C   UNL     1      30.042  45.812  58.237  1.00  0.00     0.001 A 
HETATM   25  C   UNL     1      29.680  43.309  53.835  1.00  0.00     0.003 A 
HETATM   26  C   UNL     1      28.540  44.105  53.889  1.00  0.00     0.030 A 
ENDBRANCH  15  17
ENDBRANCH  13  15
ENDBRANCH  11  13
ENDBRANCH  10  11
ENDBRANCH   4  10
BRANCH   1  27
HETATM   27  C   UNL     1      23.310  45.094  48.695  1.00  0.00     0.038 C 
HETATM   28  N   UNL     1      22.304  44.668  47.862  1.00  0.00    -0.277 N 
HETATM   29  C   UNL     1      22.150  43.456  47.096  1.00  0.00     0.179 C 
HETATM   30  N   UNL     1      21.281  45.538  47.785  1.00  0.00    -0.172 NA
HETATM   31  C   UNL     1      21.686  46.640  48.424  1.00  0.00     0.089 C 
HETATM   32  C   UNL     1      22.956  46.404  48.997  1.00  0.00     0.061 C 
BRANCH  31  33
HETATM   33  C   UNL     1      20.856  47.847  48.515  1.00  0.00    -0.003 A 
HETATM   34  C   UNL     1      19.537  47.844  48.033  1.00  0.00     0.053 A 
HETATM   35  C   UNL     1      18.724  48.979  48.147  1.00  0.00     0.102 A 
HETATM   36  C   UNL     1      19.231  50.143  48.756  1.00  0.00     0.101 A 
HETATM   37  C   UNL     1      20.548  50.157  49.220  1.00  0.00     0.040 A 
HETATM   38  C   UNL     1      21.352  49.018  49.101  1.00  0.00     0.017 A 
BRANCH  35  39
HETATM   39  O   UNL     1      17.422  49.047  47.713  1.00  0.00    -0.353 OA
HETATM   40  C   UNL     1      16.490  48.131  48.270  1.00  0.00     0.210 C 
ENDBRANCH  35  39
BRANCH  36  41
HETATM   41  O   UNL     1      18.369  51.208  48.840  1.00  0.00    -0.353 OA
HETATM   42  C   UNL     1      18.804  52.455  48.317  1.00  0.00     0.210 C 
ENDBRANCH  36  41
ENDBRANCH  31  33
ENDBRANCH   1  27
TORSDOF 9
ENDMDL
MODEL 7
REMARK VINA RESULT:      -9.6      3.167      5.125
REMARK  9 active torsions:
REMARK  status: ('A' for Active; 'I' for Inactive)
REMARK    1  A    between atoms: C_4  and  C_5 
REMARK    2  A    between atoms: C_7  and  O_8 
REMARK    3  A    between atoms: C_10  and  O_11 
REMARK    4  A    between atoms: C_16  and  C_17 
REMARK    5  A    between atoms: C_20  and  C_21 
REMARK    6  A    between atoms: C_21  and  N_22 
REMARK    7  A    between atoms: N_22  and  C_23 
REMARK    8  A    between atoms: C_23  and  N_24 
REMARK    9  A    between atoms: N_24  and  C_25 
ROOT
HETATM    1  C   UNL     1      26.269  40.633  48.664  1.00  0.00     0.067 C 
HETATM    2  C   UNL     1      26.096  39.547  49.749  1.00  0.00     0.001 C 
HETATM    3  C   UNL     1      26.606  40.003  51.136  1.00  0.00     0.040 C 
HETATM    4  C   UNL     1      28.104  40.360  51.096  1.00  0.00     0.206 C 
HETATM    5  N   UNL     1      28.531  40.319  49.636  1.00  0.00    -0.065 N 
HETATM    6  H   UNL     1      29.511  40.648  49.611  1.00  0.00     0.280 HD
HETATM    7  C   UNL     1      27.690  41.232  48.769  1.00  0.00     0.246 C 
HETATM    8  C   UNL     1      27.034  38.378  49.330  1.00  0.00     0.033 C 
HETATM    9  C   UNL     1      28.471  38.890  49.127  1.00  0.00     0.236 C 
ENDROOT
BRANCH   4  10
HETATM   10  C   UNL     1      28.425  41.715  51.775  1.00  0.00     0.155 C 
BRANCH  10  11
HETATM   11  N   UNL     1      27.423  42.245  52.703  1.00  0.00    -0.365 N 
HETATM   12  H   UNL     1      27.347  41.735  53.579  1.00  0.00     0.161 HD
BRANCH  11  13
HETATM   13  C   UNL     1      27.010  43.547  52.811  1.00  0.00     0.172 C 
HETATM   14  S   UNL     1      25.415  44.025  52.841  1.00  0.00    -0.041 SA
BRANCH  13  15
HETATM   15  N   UNL     1      27.991  44.463  53.068  1.00  0.00    -0.333 N 
HETATM   16  H   UNL     1      28.714  44.524  52.356  1.00  0.00     0.168 HD
BRANCH  15  17
HETATM   17  C   UNL     1      28.299  45.139  54.283  1.00  0.00     0.045 A 
HETATM   18  C   UNL     1      29.319  44.629  55.136  1.00  0.00     0.001 A 
HETATM   19  C   UNL     1      29.568  45.293  56.367  1.00  0.00    -0.024 A 
HETATM   20  C   UNL     1      30.133  43.509  54.829  1.00  0.00     0.014 A 
HETATM   21  C   UNL     1      30.570  44.829  57.233  1.00  0.00     0.012 A 
HETATM   22  C   UNL     1      28.814  46.419  56.722  1.00  0.00     0.012 A 
HETATM   23  C   UNL     1      31.344  43.718  56.905  1.00  0.00     0.001 A 
HETATM   24  C   UNL     1      31.128  43.060  55.702  1.00  0.00     0.001 A 
HETATM   25  C   UNL     1      27.806  46.895  55.890  1.00  0.00     0.003 A 
HETATM   26  C   UNL     1      27.545  46.253  54.684  1.00  0.00     0.030 A 
ENDBRANCH  15  17
ENDBRANCH  13  15
ENDBRANCH  11  13
ENDBRANCH  10  11
ENDBRANCH   4  10
BRANCH   1  27
HETATM   27  C   UNL     1      25.247  41.714  48.443  1.00  0.00     0.038 C 
HETATM   28  N   UNL     1      23.979  41.690  47.912  1.00  0.00    -0.277 N 
HETATM   29  C   UNL     1      23.250  40.644  47.236  1.00  0.00     0.179 C 
HETATM   30  N   UNL     1      23.311  42.842  48.091  1.00  0.00    -0.172 NA
HETATM   31  C   UNL     1      24.201  43.712  48.581  1.00  0.00     0.089 C 
HETATM   32  C   UNL     1      25.427  43.045  48.804  1.00  0.00     0.061 C 
BRANCH  31  33
HETATM   33  C   UNL     1      23.861  45.110  48.865  1.00  0.00    -0.003 A 
HETATM   34  C   UNL     1      24.654  45.874  49.736  1.00  0.00     0.053 A 
HETATM   35  C   UNL     1      24.361  47.221  49.987  1.00  0.00     0.102 A 
HETATM   36  C   UNL     1      23.254  47.824  49.357  1.00  0.00     0.101 A 
HETATM   37  C   UNL     1      22.452  47.063  48.505  1.00  0.00     0.040 A 
HETATM   38  C   UNL     1      22.754  45.719  48.261  1.00  0.00     0.017 A 
BRANCH  35  39
HETATM   39  O   UNL     1      25.098  48.034  50.814  1.00  0.00    -0.353 OA
HETATM   40  C   UNL     1      26.206  47.460  51.491  1.00  0.00     0.210 C 
ENDBRANCH  35  39
BRANCH  36  41
HETATM   41  O   UNL     1      23.040  49.149  49.646  1.00  0.00    -0.353 OA
HETATM   42  C   UNL     1      23.541  50.115  48.735  1.00  0.00     0.210 C 
ENDBRANCH  36  41
ENDBRANCH  31  33
ENDBRANCH   1  27
TORSDOF 9
ENDMDL
MODEL 8
REMARK VINA RESULT:      -9.4      4.390     10.261
REMARK  9 active torsions:
REMARK  status: ('A' for Active; 'I' for Inactive)
REMARK    1  A    between atoms: C_4  and  C_5 
REMARK    2  A    between atoms: C_7  and  O_8 
REMARK    3  A    between atoms: C_10  and  O_11 
REMARK    4  A    between atoms: C_16  and  C_17 
REMARK    5  A    between atoms: C_20  and  C_21 
REMARK    6  A    between atoms: C_21  and  N_22 
REMARK    7  A    between atoms: N_22  and  C_23 
REMARK    8  A    between atoms: C_23  and  N_24 
REMARK    9  A    between atoms: N_24  and  C_25 
ROOT
HETATM    1  C   UNL     1      21.721  50.052  48.382  1.00  0.00     0.067 C 
HETATM    2  C   UNL     1      20.985  51.016  49.340  1.00  0.00     0.001 C 
HETATM    3  C   UNL     1      19.981  50.286  50.264  1.00  0.00     0.040 C 
HETATM    4  C   UNL     1      18.898  49.554  49.450  1.00  0.00     0.206 C 
HETATM    5  N   UNL     1      19.304  49.646  47.987  1.00  0.00    -0.065 N 
HETATM    6  H   UNL     1      18.622  49.075  47.460  1.00  0.00     0.280 HD
HETATM    7  C   UNL     1      20.692  49.092  47.742  1.00  0.00     0.246 C 
HETATM    8  C   UNL     1      20.118  51.935  48.433  1.00  0.00     0.033 C 
HETATM    9  C   UNL     1      19.213  51.088  47.522  1.00  0.00     0.236 C 
ENDROOT
BRANCH   4  10
HETATM   10  C   UNL     1      18.669  48.094  49.916  1.00  0.00     0.155 C 
BRANCH  10  11
HETATM   11  N   UNL     1      17.357  47.507  49.634  1.00  0.00    -0.365 N 
HETATM   12  H   UNL     1      16.664  47.654  50.363  1.00  0.00     0.161 HD
BRANCH  11  13
HETATM   13  C   UNL     1      16.795  47.302  48.402  1.00  0.00     0.172 C 
HETATM   14  S   UNL     1      15.738  48.359  47.666  1.00  0.00    -0.041 SA
BRANCH  13  15
HETATM   15  N   UNL     1      17.278  46.235  47.698  1.00  0.00    -0.333 N 
HETATM   16  H   UNL     1      16.996  45.326  48.054  1.00  0.00     0.168 HD
BRANCH  15  17
HETATM   17  C   UNL     1      18.316  46.192  46.724  1.00  0.00     0.045 A 
HETATM   18  C   UNL     1      19.622  45.768  47.101  1.00  0.00     0.001 A 
HETATM   19  C   UNL     1      20.650  45.786  46.122  1.00  0.00    -0.024 A 
HETATM   20  C   UNL     1      19.967  45.297  48.393  1.00  0.00     0.014 A 
HETATM   21  C   UNL     1      21.950  45.368  46.449  1.00  0.00     0.012 A 
HETATM   22  C   UNL     1      20.371  46.219  44.819  1.00  0.00     0.012 A 
HETATM   23  C   UNL     1      22.257  44.923  47.733  1.00  0.00     0.001 A 
HETATM   24  C   UNL     1      21.266  44.884  48.704  1.00  0.00     0.001 A 
HETATM   25  C   UNL     1      19.097  46.651  44.468  1.00  0.00     0.003 A 
HETATM   26  C   UNL     1      18.079  46.645  45.416  1.00  0.00     0.030 A 
ENDBRANCH  15  17
ENDBRANCH  13  15
ENDBRANCH  11  13
ENDBRANCH  10  11
ENDBRANCH   4  10
BRANCH   1  27
HETATM   27  C   UNL     1      22.965  49.312  48.789  1.00  0.00     0.038 C 
HETATM   28  N   UNL     1      24.298  49.551  48.553  1.00  0.00    -0.277 N 
HETATM   29  C   UNL     1      24.958  50.508  47.699  1.00  0.00     0.179 C 
HETATM   30  N   UNL     1      25.110  48.762  49.278  1.00  0.00    -0.172 NA
HETATM   31  C   UNL     1      24.318  47.859  49.866  1.00  0.00     0.089 C 
HETATM   32  C   UNL     1      22.969  48.164  49.573  1.00  0.00     0.061 C 
BRANCH  31  33
HETATM   33  C   UNL     1      24.844  46.781  50.711  1.00  0.00    -0.003 A 
HETATM   34  C   UNL     1      25.663  47.075  51.813  1.00  0.00     0.053 A 
HETATM   35  C   UNL     1      26.142  46.057  52.649  1.00  0.00     0.102 A 
HETATM   36  C   UNL     1      25.799  44.717  52.385  1.00  0.00     0.101 A 
HETATM   37  C   UNL     1      25.000  44.419  51.279  1.00  0.00     0.040 A 
HETATM   38  C   UNL     1      24.527  45.442  50.451  1.00  0.00     0.017 A 
BRANCH  35  39
HETATM   39  O   UNL     1      26.933  46.268  53.752  1.00  0.00    -0.353 OA
HETATM   40  C   UNL     1      26.480  47.197  54.725  1.00  0.00     0.210 C 
ENDBRANCH  35  39
BRANCH  36  41
HETATM   41  O   UNL     1      26.298  43.780  53.255  1.00  0.00    -0.353 OA
HETATM   42  C   UNL     1      27.291  42.888  52.770  1.00  0.00     0.210 C 
ENDBRANCH  36  41
ENDBRANCH  31  33
ENDBRANCH   1  27
TORSDOF 9
ENDMDL
MODEL 9
REMARK VINA RESULT:      -9.3      4.167     11.840
REMARK  9 active torsions:
REMARK  status: ('A' for Active; 'I' for Inactive)
REMARK    1  A    between atoms: C_4  and  C_5 
REMARK    2  A    between atoms: C_7  and  O_8 
REMARK    3  A    between atoms: C_10  and  O_11 
REMARK    4  A    between atoms: C_16  and  C_17 
REMARK    5  A    between atoms: C_20  and  C_21 
REMARK    6  A    between atoms: C_21  and  N_22 
REMARK    7  A    between atoms: N_22  and  C_23 
REMARK    8  A    between atoms: C_23  and  N_24 
REMARK    9  A    between atoms: N_24  and  C_25 
ROOT
HETATM    1  C   UNL     1      21.763  49.985  48.338  1.00  0.00     0.067 C 
HETATM    2  C   UNL     1      21.006  50.961  49.266  1.00  0.00     0.001 C 
HETATM    3  C   UNL     1      19.986  50.243  50.181  1.00  0.00     0.040 C 
HETATM    4  C   UNL     1      18.922  49.494  49.358  1.00  0.00     0.206 C 
HETATM    5  N   UNL     1      19.356  49.563  47.902  1.00  0.00    -0.065 N 
HETATM    6  H   UNL     1      18.687  48.981  47.371  1.00  0.00     0.280 HD
HETATM    7  C   UNL     1      20.751  49.010  47.694  1.00  0.00     0.246 C 
HETATM    8  C   UNL     1      20.153  51.863  48.327  1.00  0.00     0.033 C 
HETATM    9  C   UNL     1      19.269  50.997  47.412  1.00  0.00     0.236 C 
ENDROOT
BRANCH   4  10
HETATM   10  C   UNL     1      18.689  48.041  49.843  1.00  0.00     0.155 C 
BRANCH  10  11
HETATM   11  N   UNL     1      17.417  47.415  49.474  1.00  0.00    -0.365 N 
HETATM   12  H   UNL     1      16.618  47.728  50.020  1.00  0.00     0.161 HD
BRANCH  11  13
HETATM   13  C   UNL     1      17.061  46.942  48.238  1.00  0.00     0.172 C 
HETATM   14  S   UNL     1      17.770  45.630  47.497  1.00  0.00    -0.041 SA
BRANCH  13  15
HETATM   15  N   UNL     1      15.949  47.508  47.682  1.00  0.00    -0.333 N 
HETATM   16  H   UNL     1      15.081  47.013  47.867  1.00  0.00     0.168 HD
BRANCH  15  17
HETATM   17  C   UNL     1      15.853  48.513  46.677  1.00  0.00     0.045 A 
HETATM   18  C   UNL     1      15.709  49.879  47.054  1.00  0.00     0.001 A 
HETATM   19  C   UNL     1      15.562  50.852  46.031  1.00  0.00    -0.024 A 
HETATM   20  C   UNL     1      15.730  50.345  48.393  1.00  0.00     0.014 A 
HETATM   21  C   UNL     1      15.425  52.211  46.359  1.00  0.00     0.012 A 
HETATM   22  C   UNL     1      15.554  50.462  44.686  1.00  0.00     0.012 A 
HETATM   23  C   UNL     1      15.438  52.632  47.686  1.00  0.00     0.001 A 
HETATM   24  C   UNL     1      15.593  51.701  48.703  1.00  0.00     0.001 A 
HETATM   25  C   UNL     1      15.675  49.122  44.331  1.00  0.00     0.003 A 
HETATM   26  C   UNL     1      15.814  48.155  45.320  1.00  0.00     0.030 A 
ENDBRANCH  15  17
ENDBRANCH  13  15
ENDBRANCH  11  13
ENDBRANCH  10  11
ENDBRANCH   4  10
BRANCH   1  27
HETATM   27  C   UNL     1      23.001  49.256  48.781  1.00  0.00     0.038 C 
HETATM   28  N   UNL     1      24.338  49.504  48.581  1.00  0.00    -0.277 N 
HETATM   29  C   UNL     1      25.014  50.464  47.742  1.00  0.00     0.179 C 
HETATM   30  N   UNL     1      25.136  48.724  49.330  1.00  0.00    -0.172 NA
HETATM   31  C   UNL     1      24.336  47.817  49.900  1.00  0.00     0.089 C 
HETATM   32  C   UNL     1      22.993  48.111  49.570  1.00  0.00     0.061 C 
BRANCH  31  33
HETATM   33  C   UNL     1      24.848  46.747  50.763  1.00  0.00    -0.003 A 
HETATM   34  C   UNL     1      24.316  45.450  50.682  1.00  0.00     0.053 A 
HETATM   35  C   UNL     1      24.821  44.411  51.475  1.00  0.00     0.102 A 
HETATM   36  C   UNL     1      25.879  44.666  52.369  1.00  0.00     0.101 A 
HETATM   37  C   UNL     1      26.398  45.958  52.467  1.00  0.00     0.040 A 
HETATM   38  C   UNL     1      25.887  46.989  51.670  1.00  0.00     0.017 A 
BRANCH  35  39
HETATM   39  O   UNL     1      24.363  43.116  51.441  1.00  0.00    -0.353 OA
HETATM   40  C   UNL     1      23.719  42.673  50.256  1.00  0.00     0.210 C 
ENDBRANCH  35  39
BRANCH  36  41
HETATM   41  O   UNL     1      26.324  43.595  53.103  1.00  0.00    -0.353 OA
HETATM   42  C   UNL     1      26.509  43.779  54.499  1.00  0.00     0.210 C 
ENDBRANCH  36  41
ENDBRANCH  31  33
ENDBRANCH   1  27
TORSDOF 9
ENDMDL
MODEL 10
REMARK VINA RESULT:      -9.3      5.230      8.382
REMARK  9 active torsions:
REMARK  status: ('A' for Active; 'I' for Inactive)
REMARK    1  A    between atoms: C_4  and  C_5 
REMARK    2  A    between atoms: C_7  and  O_8 
REMARK    3  A    between atoms: C_10  and  O_11 
REMARK    4  A    between atoms: C_16  and  C_17 
REMARK    5  A    between atoms: C_20  and  C_21 
REMARK    6  A    between atoms: C_21  and  N_22 
REMARK    7  A    between atoms: N_22  and  C_23 
REMARK    8  A    between atoms: C_23  and  N_24 
REMARK    9  A    between atoms: N_24  and  C_25 
ROOT
HETATM    1  C   UNL     1      19.365  51.163  49.353  1.00  0.00     0.067 C 
HETATM    2  C   UNL     1      20.304  51.061  48.131  1.00  0.00     0.001 C 
HETATM    3  C   UNL     1      20.301  49.652  47.493  1.00  0.00     0.040 C 
HETATM    4  C   UNL     1      20.759  48.578  48.497  1.00  0.00     0.206 C 
HETATM    5  N   UNL     1      20.879  49.260  49.852  1.00  0.00    -0.065 N 
HETATM    6  H   UNL     1      21.097  48.515  50.534  1.00  0.00     0.280 HD
HETATM    7  C   UNL     1      19.590  49.937  50.268  1.00  0.00     0.246 C 
HETATM    8  C   UNL     1      21.745  51.259  48.685  1.00  0.00     0.033 C 
HETATM    9  C   UNL     1      22.023  50.258  49.821  1.00  0.00     0.236 C 
ENDROOT
BRANCH   4  10
HETATM   10  C   UNL     1      19.828  47.341  48.532  1.00  0.00     0.155 C 
BRANCH  10  11
HETATM   11  N   UNL     1      20.330  46.153  49.227  1.00  0.00    -0.365 N 
HETATM   12  H   UNL     1      19.671  45.736  49.880  1.00  0.00     0.161 HD
BRANCH  11  13
HETATM   13  C   UNL     1      21.253  45.255  48.760  1.00  0.00     0.172 C 
HETATM   14  S   UNL     1      21.589  45.009  47.147  1.00  0.00    -0.041 SA
BRANCH  13  15
HETATM   15  N   UNL     1      22.037  44.660  49.708  1.00  0.00    -0.333 N 
HETATM   16  H   UNL     1      21.602  44.564  50.622  1.00  0.00     0.168 HD
BRANCH  15  17
HETATM   17  C   UNL     1      23.438  44.405  49.691  1.00  0.00     0.045 A 
HETATM   18  C   UNL     1      24.355  45.495  49.706  1.00  0.00     0.001 A 
HETATM   19  C   UNL     1      25.744  45.213  49.634  1.00  0.00    -0.024 A 
HETATM   20  C   UNL     1      23.976  46.857  49.819  1.00  0.00     0.014 A 
HETATM   21  C   UNL     1      26.683  46.257  49.656  1.00  0.00     0.012 A 
HETATM   22  C   UNL     1      26.188  43.887  49.544  1.00  0.00     0.012 A 
HETATM   23  C   UNL     1      26.275  47.585  49.755  1.00  0.00     0.001 A 
HETATM   24  C   UNL     1      24.922  47.885  49.840  1.00  0.00     0.001 A 
HETATM   25  C   UNL     1      25.282  42.832  49.507  1.00  0.00     0.003 A 
HETATM   26  C   UNL     1      23.917  43.091  49.571  1.00  0.00     0.030 A 
ENDBRANCH  15  17
ENDBRANCH  13  15
ENDBRANCH  11  13
ENDBRANCH  10  11
ENDBRANCH   4  10
BRANCH   1  27
HETATM   27  C   UNL     1      17.899  51.466  49.215  1.00  0.00     0.038 C 
HETATM   28  N   UNL     1      16.832  50.694  48.820  1.00  0.00    -0.277 N 
HETATM   29  C   UNL     1      16.773  49.370  48.250  1.00  0.00     0.179 C 
HETATM   30  N   UNL     1      15.645  51.286  49.040  1.00  0.00    -0.172 NA
HETATM   31  C   UNL     1      15.921  52.539  49.413  1.00  0.00     0.089 C 
HETATM   32  C   UNL     1      17.323  52.693  49.522  1.00  0.00     0.061 C 
BRANCH  31  33
HETATM   33  C   UNL     1      14.873  53.526  49.697  1.00  0.00    -0.003 A 
HETATM   34  C   UNL     1      14.549  53.860  51.022  1.00  0.00     0.053 A 
HETATM   35  C   UNL     1      13.576  54.827  51.305  1.00  0.00     0.102 A 
HETATM   36  C   UNL     1      12.909  55.478  50.249  1.00  0.00     0.101 A 
HETATM   37  C   UNL     1      13.215  55.135  48.930  1.00  0.00     0.040 A 
HETATM   38  C   UNL     1      14.189  54.168  48.658  1.00  0.00     0.017 A 
BRANCH  35  39
HETATM   39  O   UNL     1      13.216  55.217  52.573  1.00  0.00    -0.353 OA
HETATM   40  C   UNL     1      14.134  56.013  53.306  1.00  0.00     0.210 C 
ENDBRANCH  35  39
BRANCH  36  41
HETATM   41  O   UNL     1      11.977  56.419  50.608  1.00  0.00    -0.353 OA
HETATM   42  C   UNL     1      12.088  57.714  50.035  1.00  0.00     0.210 C 
ENDBRANCH  36  41
ENDBRANCH  31  33
ENDBRANCH   1  27
TORSDOF 9
ENDMDL
