MODEL 1
REMARK VINA RESULT:      -9.7      0.000      0.000
REMARK  10 active torsions:
REMARK  status: ('A' for Active; 'I' for Inactive)
REMARK       I    between atoms: N_2  and  C_3 
REMARK    1  A    between atoms: N_2  and  C_22 
REMARK    2  A    between atoms: C_3  and  C_4 
REMARK    3  A    between atoms: C_4  and  O_5 
REMARK    4  A    between atoms: O_5  and  C_6 
REMARK    5  A    between atoms: C_6  and  C_7 
REMARK    6  A    between atoms: C_8  and  N_9 
REMARK    7  A    between atoms: N_9  and  C_10 
REMARK    8  A    between atoms: C_10  and  C_11 
REMARK    9  A    between atoms: C_22  and  C_23 
REMARK       I    between atoms: C_23  and  N_24 
REMARK   10  A    between atoms: N_24  and  C_25 
ROOT
HETATM    1  C   UNL     1      25.255  45.287  49.416  1.00  0.00     0.281 C 
ENDROOT
BRANCH   1   2
HETATM    2  C   UNL     1      26.423  44.588  50.118  1.00  0.00     0.244 C 
HETATM    3  N   UNL     1      26.145  43.494  50.931  1.00  0.00    -0.346 N 
HETATM    4  C   UNL     1      24.874  42.784  50.933  1.00  0.00     0.153 C 
HETATM    5  O   UNL     1      27.593  44.950  49.939  1.00  0.00    -0.271 OA
BRANCH   3   6
HETATM    6  C   UNL     1      27.277  42.805  51.564  1.00  0.00     0.228 C 
BRANCH   6   7
HETATM    7  C   UNL     1      27.503  43.274  53.008  1.00  0.00     0.240 C 
HETATM    8  N   UNL     1      28.823  43.613  53.255  1.00  0.00    -0.326 N 
HETATM    9  H   UNL     1      29.466  43.467  52.475  1.00  0.00     0.169 HD
HETATM   10  O   UNL     1      26.575  43.299  53.812  1.00  0.00    -0.271 OA
BRANCH   8  11
HETATM   11  C   UNL     1      29.391  44.065  54.460  1.00  0.00     0.035 A 
HETATM   12  C   UNL     1      28.996  45.232  55.119  1.00  0.00     0.032 A 
HETATM   13  C   UNL     1      29.614  45.612  56.315  1.00  0.00     0.044 A 
HETATM   14  C   UNL     1      30.625  44.823  56.848  1.00  0.00     0.116 A 
HETATM   15  F   UNL     1      31.215  45.188  57.994  1.00  0.00    -0.206 F 
HETATM   16  C   UNL     1      31.033  43.662  56.207  1.00  0.00     0.044 A 
HETATM   17  C   UNL     1      30.419  43.285  55.010  1.00  0.00     0.032 A 
ENDBRANCH   8  11
ENDBRANCH   6   7
ENDBRANCH   3   6
ENDBRANCH   1   2
BRANCH   1  18
HETATM   18  O   UNL     1      24.456  45.962  50.392  1.00  0.00    -0.308 OA
BRANCH  18  19
HETATM   19  C   UNL     1      25.007  47.078  50.927  1.00  0.00     0.295 C 
HETATM   20  O   UNL     1      25.316  47.247  52.096  1.00  0.00    -0.259 OA
BRANCH  19  21
HETATM   21  C   UNL     1      25.187  48.097  49.863  1.00  0.00     0.060 A 
HETATM   22  C   UNL     1      24.068  48.732  49.278  1.00  0.00     0.025 A 
HETATM   23  C   UNL     1      24.331  49.672  48.266  1.00  0.00     0.024 A 
HETATM   24  C   UNL     1      25.639  50.025  47.908  1.00  0.00     0.002 A 
HETATM   25  C   UNL     1      26.725  49.426  48.534  1.00  0.00     0.001 A 
HETATM   26  C   UNL     1      26.501  48.459  49.508  1.00  0.00     0.019 A 
BRANCH  22  27
HETATM   27  N   UNL     1      22.760  48.320  49.591  1.00  0.00    -0.286 NA
HETATM   28  H   UNL     1      22.504  48.633  50.533  1.00  0.00     0.128 HD
BRANCH  27  29
HETATM   29  C   UNL     1      21.675  48.537  48.634  1.00  0.00     0.157 C 
BRANCH  29  30
HETATM   30  C   UNL     1      20.893  49.793  48.835  1.00  0.00     0.065 A 
HETATM   31  O   UNL     1      20.111  49.834  49.955  1.00  0.00    -0.326 OA
HETATM   32  C   UNL     1      19.492  51.042  49.967  1.00  0.00     0.142 A 
HETATM   33  C   UNL     1      19.858  51.780  48.866  1.00  0.00     0.027 A 
HETATM   34  C   UNL     1      20.762  50.974  48.133  1.00  0.00     0.036 A 
ENDBRANCH  29  30
ENDBRANCH  27  29
ENDBRANCH  22  27
ENDBRANCH  19  21
ENDBRANCH  18  19
ENDBRANCH   1  18
TORSDOF 10
ENDMDL
MODEL 2
REMARK VINA RESULT:      -9.2      1.951      3.413
REMARK  10 active torsions:
REMARK  status: ('A' for Active; 'I' for Inactive)
REMARK       I    between atoms: N_2  and  C_3 
REMARK    1  A    between atoms: N_2  and  C_22 
REMARK    2  A    between atoms: C_3  and  C_4 
REMARK    3  A    between atoms: C_4  and  O_5 
REMARK    4  A    between atoms: O_5  and  C_6 
REMARK    5  A    between atoms: C_6  and  C_7 
REMARK    6  A    between atoms: C_8  and  N_9 
REMARK    7  A    between atoms: N_9  and  C_10 
REMARK    8  A    between atoms: C_10  and  C_11 
REMARK    9  A    between atoms: C_22  and  C_23 
REMARK       I    between atoms: C_23  and  N_24 
REMARK   10  A    between atoms: N_24  and  C_25 
ROOT
HETATM    1  C   UNL     1      25.369  42.457  49.713  1.00  0.00     0.281 C 
ENDROOT
BRANCH   1   2
HETATM    2  C   UNL     1      26.727  42.301  50.405  1.00  0.00     0.244 C 
HETATM    3  N   UNL     1      27.104  41.035  50.839  1.00  0.00    -0.346 N 
HETATM    4  C   UNL     1      26.445  39.803  50.427  1.00  0.00     0.153 C 
HETATM    5  O   UNL     1      27.496  43.261  50.539  1.00  0.00    -0.271 OA
BRANCH   3   6
HETATM    6  C   UNL     1      28.426  40.889  51.460  1.00  0.00     0.228 C 
BRANCH   6   7
HETATM    7  C   UNL     1      28.475  41.510  52.863  1.00  0.00     0.240 C 
HETATM    8  N   UNL     1      29.366  42.567  52.943  1.00  0.00    -0.326 N 
HETATM    9  H   UNL     1      29.894  42.762  52.091  1.00  0.00     0.169 HD
HETATM   10  O   UNL     1      27.790  41.055  53.775  1.00  0.00    -0.271 OA
BRANCH   8  11
HETATM   11  C   UNL     1      29.677  43.356  54.067  1.00  0.00     0.035 A 
HETATM   12  C   UNL     1      30.706  43.062  54.966  1.00  0.00     0.032 A 
HETATM   13  C   UNL     1      30.949  43.898  56.059  1.00  0.00     0.044 A 
HETATM   14  C   UNL     1      30.164  45.028  56.250  1.00  0.00     0.116 A 
HETATM   15  F   UNL     1      30.400  45.830  57.297  1.00  0.00    -0.206 F 
HETATM   16  C   UNL     1      29.136  45.337  55.369  1.00  0.00     0.044 A 
HETATM   17  C   UNL     1      28.890  44.498  54.280  1.00  0.00     0.032 A 
ENDBRANCH   8  11
ENDBRANCH   6   7
ENDBRANCH   3   6
ENDBRANCH   1   2
BRANCH   1  18
HETATM   18  O   UNL     1      24.972  43.831  49.763  1.00  0.00    -0.308 OA
BRANCH  18  19
HETATM   19  C   UNL     1      24.094  44.151  50.744  1.00  0.00     0.295 C 
HETATM   20  O   UNL     1      22.942  43.759  50.845  1.00  0.00    -0.259 OA
BRANCH  19  21
HETATM   21  C   UNL     1      24.748  45.071  51.709  1.00  0.00     0.060 A 
HETATM   22  C   UNL     1      25.051  46.402  51.341  1.00  0.00     0.025 A 
HETATM   23  C   UNL     1      25.685  47.197  52.312  1.00  0.00     0.024 A 
HETATM   24  C   UNL     1      25.933  46.724  53.607  1.00  0.00     0.002 A 
HETATM   25  C   UNL     1      25.579  45.428  53.961  1.00  0.00     0.001 A 
HETATM   26  C   UNL     1      24.991  44.599  53.013  1.00  0.00     0.019 A 
BRANCH  22  27
HETATM   27  N   UNL     1      24.864  46.844  50.019  1.00  0.00    -0.286 NA
HETATM   28  H   UNL     1      23.868  46.847  49.781  1.00  0.00     0.128 HD
BRANCH  27  29
HETATM   29  C   UNL     1      25.536  48.057  49.552  1.00  0.00     0.157 C 
BRANCH  29  30
HETATM   30  C   UNL     1      24.630  49.126  49.038  1.00  0.00     0.065 A 
HETATM   31  O   UNL     1      23.488  49.337  49.759  1.00  0.00    -0.326 OA
HETATM   32  C   UNL     1      22.807  50.338  49.147  1.00  0.00     0.142 A 
HETATM   33  C   UNL     1      23.488  50.774  48.035  1.00  0.00     0.027 A 
HETATM   34  C   UNL     1      24.666  49.991  47.962  1.00  0.00     0.036 A 
ENDBRANCH  29  30
ENDBRANCH  27  29
ENDBRANCH  22  27
ENDBRANCH  19  21
ENDBRANCH  18  19
ENDBRANCH   1  18
TORSDOF 10
ENDMDL
MODEL 3
REMARK VINA RESULT:      -9.0      3.659      9.959
REMARK  10 active torsions:
REMARK  status: ('A' for Active; 'I' for Inactive)
REMARK       I    between atoms: N_2  and  C_3 
REMARK    1  A    between atoms: N_2  and  C_22 
REMARK    2  A    between atoms: C_3  and  C_4 
REMARK    3  A    between atoms: C_4  and  O_5 
REMARK    4  A    between atoms: O_5  and  C_6 
REMARK    5  A    between atoms: C_6  and  C_7 
REMARK    6  A    between atoms: C_8  and  N_9 
REMARK    7  A    between atoms: N_9  and  C_10 
REMARK    8  A    between atoms: C_10  and  C_11 
REMARK    9  A    between atoms: C_22  and  C_23 
REMARK       I    between atoms: C_23  and  N_24 
REMARK   10  A    between atoms: N_24  and  C_25 
ROOT
HETATM    1  C   UNL     1      26.075  47.478  50.466  1.00  0.00     0.281 C 
ENDROOT
BRANCH   1   2
HETATM    2  C   UNL     1      24.976  48.106  49.602  1.00  0.00     0.244 C 
HETATM    3  N   UNL     1      25.287  49.241  48.862  1.00  0.00    -0.346 N 
HETATM    4  C   UNL     1      26.645  49.706  48.615  1.00  0.00     0.153 C 
HETATM    5  O   UNL     1      23.851  47.598  49.521  1.00  0.00    -0.271 OA
BRANCH   3   6
HETATM    6  C   UNL     1      24.239  49.808  48.003  1.00  0.00     0.228 C 
BRANCH   6   7
HETATM    7  C   UNL     1      23.119  50.467  48.819  1.00  0.00     0.240 C 
HETATM    8  N   UNL     1      21.858  50.074  48.402  1.00  0.00    -0.326 N 
HETATM    9  H   UNL     1      21.839  49.446  47.596  1.00  0.00     0.169 HD
HETATM   10  O   UNL     1      23.381  51.265  49.715  1.00  0.00    -0.271 OA
BRANCH   8  11
HETATM   11  C   UNL     1      20.610  50.484  48.908  1.00  0.00     0.035 A 
HETATM   12  C   UNL     1      19.834  49.720  49.784  1.00  0.00     0.032 A 
HETATM   13  C   UNL     1      18.603  50.201  50.239  1.00  0.00     0.044 A 
HETATM   14  C   UNL     1      18.152  51.446  49.819  1.00  0.00     0.116 A 
HETATM   15  F   UNL     1      16.973  51.906  50.258  1.00  0.00    -0.206 F 
HETATM   16  C   UNL     1      18.907  52.219  48.948  1.00  0.00     0.044 A 
HETATM   17  C   UNL     1      20.135  51.736  48.489  1.00  0.00     0.032 A 
ENDBRANCH   8  11
ENDBRANCH   6   7
ENDBRANCH   3   6
ENDBRANCH   1   2
BRANCH   1  18
HETATM   18  O   UNL     1      25.653  47.475  51.833  1.00  0.00    -0.308 OA
BRANCH  18  19
HETATM   19  C   UNL     1      25.583  46.257  52.421  1.00  0.00     0.295 C 
HETATM   20  O   UNL     1      24.785  45.369  52.162  1.00  0.00    -0.259 OA
BRANCH  19  21
HETATM   21  C   UNL     1      26.643  46.147  53.454  1.00  0.00     0.060 A 
HETATM   22  C   UNL     1      27.374  44.947  53.610  1.00  0.00     0.025 A 
HETATM   23  C   UNL     1      28.348  44.927  54.625  1.00  0.00     0.024 A 
HETATM   24  C   UNL     1      28.639  46.063  55.391  1.00  0.00     0.002 A 
HETATM   25  C   UNL     1      27.943  47.248  55.184  1.00  0.00     0.001 A 
HETATM   26  C   UNL     1      26.942  47.290  54.220  1.00  0.00     0.019 A 
BRANCH  22  27
HETATM   27  N   UNL     1      27.026  43.792  52.887  1.00  0.00    -0.286 NA
HETATM   28  H   UNL     1      26.201  43.970  52.307  1.00  0.00     0.128 HD
BRANCH  27  29
HETATM   29  C   UNL     1      28.053  43.049  52.156  1.00  0.00     0.157 C 
BRANCH  29  30
HETATM   30  C   UNL     1      27.552  41.887  51.364  1.00  0.00     0.065 A 
HETATM   31  O   UNL     1      26.219  41.903  51.060  1.00  0.00    -0.326 OA
HETATM   32  C   UNL     1      25.959  40.783  50.341  1.00  0.00     0.142 A 
HETATM   33  C   UNL     1      27.102  40.036  50.182  1.00  0.00     0.027 A 
HETATM   34  C   UNL     1      28.133  40.747  50.844  1.00  0.00     0.036 A 
ENDBRANCH  29  30
ENDBRANCH  27  29
ENDBRANCH  22  27
ENDBRANCH  19  21
ENDBRANCH  18  19
ENDBRANCH   1  18
TORSDOF 10
ENDMDL
MODEL 4
REMARK VINA RESULT:      -8.9      1.986      4.330
REMARK  10 active torsions:
REMARK  status: ('A' for Active; 'I' for Inactive)
REMARK       I    between atoms: N_2  and  C_3 
REMARK    1  A    between atoms: N_2  and  C_22 
REMARK    2  A    between atoms: C_3  and  C_4 
REMARK    3  A    between atoms: C_4  and  O_5 
REMARK    4  A    between atoms: O_5  and  C_6 
REMARK    5  A    between atoms: C_6  and  C_7 
REMARK    6  A    between atoms: C_8  and  N_9 
REMARK    7  A    between atoms: N_9  and  C_10 
REMARK    8  A    between atoms: C_10  and  C_11 
REMARK    9  A    between atoms: C_22  and  C_23 
REMARK       I    between atoms: C_23  and  N_24 
REMARK   10  A    between atoms: N_24  and  C_25 
ROOT
HETATM    1  C   UNL     1      22.483  45.585  48.821  1.00  0.00     0.281 C 
ENDROOT
BRANCH   1   2
HETATM    2  C   UNL     1      23.687  44.655  48.639  1.00  0.00     0.244 C 
HETATM    3  N   UNL     1      24.580  44.516  49.696  1.00  0.00    -0.346 N 
HETATM    4  C   UNL     1      24.303  44.954  51.057  1.00  0.00     0.153 C 
HETATM    5  O   UNL     1      23.846  44.003  47.600  1.00  0.00    -0.271 OA
BRANCH   3   6
HETATM    6  C   UNL     1      25.704  43.588  49.527  1.00  0.00     0.228 C 
BRANCH   6   7
HETATM    7  C   UNL     1      26.922  43.998  50.367  1.00  0.00     0.240 C 
HETATM    8  N   UNL     1      27.043  43.248  51.525  1.00  0.00    -0.326 N 
HETATM    9  H   UNL     1      26.298  42.568  51.686  1.00  0.00     0.169 HD
HETATM   10  O   UNL     1      27.655  44.914  50.005  1.00  0.00    -0.271 OA
BRANCH   8  11
HETATM   11  C   UNL     1      28.023  43.356  52.529  1.00  0.00     0.035 A 
HETATM   12  C   UNL     1      27.882  44.144  53.675  1.00  0.00     0.032 A 
HETATM   13  C   UNL     1      28.905  44.197  54.626  1.00  0.00     0.044 A 
HETATM   14  C   UNL     1      30.066  43.460  54.431  1.00  0.00     0.116 A 
HETATM   15  F   UNL     1      31.044  43.510  55.344  1.00  0.00    -0.206 F 
HETATM   16  C   UNL     1      30.226  42.673  53.298  1.00  0.00     0.044 A 
HETATM   17  C   UNL     1      29.206  42.624  52.345  1.00  0.00     0.032 A 
ENDBRANCH   8  11
ENDBRANCH   6   7
ENDBRANCH   3   6
ENDBRANCH   1   2
BRANCH   1  18
HETATM   18  O   UNL     1      22.744  46.826  48.158  1.00  0.00    -0.308 OA
BRANCH  18  19
HETATM   19  C   UNL     1      21.668  47.423  47.592  1.00  0.00     0.295 C 
HETATM   20  O   UNL     1      21.036  47.021  46.627  1.00  0.00    -0.259 OA
BRANCH  19  21
HETATM   21  C   UNL     1      21.354  48.673  48.330  1.00  0.00     0.060 A 
HETATM   22  C   UNL     1      22.163  49.822  48.176  1.00  0.00     0.025 A 
HETATM   23  C   UNL     1      21.801  50.955  48.926  1.00  0.00     0.024 A 
HETATM   24  C   UNL     1      20.650  50.976  49.724  1.00  0.00     0.002 A 
HETATM   25  C   UNL     1      19.841  49.851  49.819  1.00  0.00     0.001 A 
HETATM   26  C   UNL     1      20.193  48.698  49.127  1.00  0.00     0.019 A 
BRANCH  22  27
HETATM   27  N   UNL     1      23.354  49.769  47.430  1.00  0.00    -0.286 NA
HETATM   28  H   UNL     1      23.162  49.936  46.438  1.00  0.00     0.128 HD
BRANCH  27  29
HETATM   29  C   UNL     1      24.535  50.504  47.885  1.00  0.00     0.157 C 
BRANCH  29  30
HETATM   30  C   UNL     1      25.581  49.674  48.553  1.00  0.00     0.065 A 
HETATM   31  O   UNL     1      25.121  48.699  49.393  1.00  0.00    -0.326 OA
HETATM   32  C   UNL     1      26.206  48.056  49.892  1.00  0.00     0.142 A 
HETATM   33  C   UNL     1      27.363  48.606  49.392  1.00  0.00     0.027 A 
HETATM   34  C   UNL     1      26.961  49.652  48.528  1.00  0.00     0.036 A 
ENDBRANCH  29  30
ENDBRANCH  27  29
ENDBRANCH  22  27
ENDBRANCH  19  21
ENDBRANCH  18  19
ENDBRANCH   1  18
TORSDOF 10
ENDMDL
MODEL 5
REMARK VINA RESULT:      -8.9      1.628      2.826
REMARK  10 active torsions:
REMARK  status: ('A' for Active; 'I' for Inactive)
REMARK       I    between atoms: N_2  and  C_3 
REMARK    1  A    between atoms: N_2  and  C_22 
REMARK    2  A    between atoms: C_3  and  C_4 
REMARK    3  A    between atoms: C_4  and  O_5 
REMARK    4  A    between atoms: O_5  and  C_6 
REMARK    5  A    between atoms: C_6  and  C_7 
REMARK    6  A    between atoms: C_8  and  N_9 
REMARK    7  A    between atoms: N_9  and  C_10 
REMARK    8  A    between atoms: C_10  and  C_11 
REMARK    9  A    between atoms: C_22  and  C_23 
REMARK       I    between atoms: C_23  and  N_24 
REMARK   10  A    between atoms: N_24  and  C_25 
ROOT
HETATM    1  C   UNL     1      26.035  47.536  50.184  1.00  0.00     0.281 C 
ENDROOT
BRANCH   1   2
HETATM    2  C   UNL     1      26.178  46.066  50.592  1.00  0.00     0.244 C 
HETATM    3  N   UNL     1      26.211  45.758  51.948  1.00  0.00    -0.346 N 
HETATM    4  C   UNL     1      25.828  46.685  53.003  1.00  0.00     0.153 C 
HETATM    5  O   UNL     1      26.218  45.163  49.747  1.00  0.00    -0.271 OA
BRANCH   3   6
HETATM    6  C   UNL     1      26.304  44.343  52.327  1.00  0.00     0.228 C 
BRANCH   6   7
HETATM    7  C   UNL     1      26.972  44.155  53.696  1.00  0.00     0.240 C 
HETATM    8  N   UNL     1      28.336  44.393  53.657  1.00  0.00    -0.326 N 
HETATM    9  H   UNL     1      28.716  44.613  52.735  1.00  0.00     0.169 HD
HETATM   10  O   UNL     1      26.314  43.807  54.673  1.00  0.00    -0.271 OA
BRANCH   8  11
HETATM   11  C   UNL     1      29.262  44.303  54.713  1.00  0.00     0.035 A 
HETATM   12  C   UNL     1      30.131  43.224  54.899  1.00  0.00     0.032 A 
HETATM   13  C   UNL     1      31.022  43.213  55.976  1.00  0.00     0.044 A 
HETATM   14  C   UNL     1      31.044  44.282  56.863  1.00  0.00     0.116 A 
HETATM   15  F   UNL     1      31.900  44.270  57.893  1.00  0.00    -0.206 F 
HETATM   16  C   UNL     1      30.188  45.362  56.696  1.00  0.00     0.044 A 
HETATM   17  C   UNL     1      29.294  45.371  55.624  1.00  0.00     0.032 A 
ENDBRANCH   8  11
ENDBRANCH   6   7
ENDBRANCH   3   6
ENDBRANCH   1   2
BRANCH   1  18
HETATM   18  O   UNL     1      24.668  47.933  50.331  1.00  0.00    -0.308 OA
BRANCH  18  19
HETATM   19  C   UNL     1      24.096  48.476  49.229  1.00  0.00     0.295 C 
HETATM   20  O   UNL     1      24.549  49.380  48.545  1.00  0.00    -0.259 OA
BRANCH  19  21
HETATM   21  C   UNL     1      22.803  47.798  48.961  1.00  0.00     0.060 A 
HETATM   22  C   UNL     1      21.585  48.509  49.054  1.00  0.00     0.025 A 
HETATM   23  C   UNL     1      20.407  47.783  48.800  1.00  0.00     0.024 A 
HETATM   24  C   UNL     1      20.440  46.442  48.395  1.00  0.00     0.002 A 
HETATM   25  C   UNL     1      21.652  45.778  48.260  1.00  0.00     0.001 A 
HETATM   26  C   UNL     1      22.834  46.452  48.547  1.00  0.00     0.019 A 
BRANCH  22  27
HETATM   27  N   UNL     1      21.558  49.832  49.530  1.00  0.00    -0.286 NA
HETATM   28  H   UNL     1      22.424  50.047  50.034  1.00  0.00     0.128 HD
BRANCH  27  29
HETATM   29  C   UNL     1      21.165  50.924  48.638  1.00  0.00     0.157 C 
BRANCH  29  30
HETATM   30  C   UNL     1      19.806  51.489  48.888  1.00  0.00     0.065 A 
HETATM   31  O   UNL     1      19.056  50.842  49.830  1.00  0.00    -0.326 OA
HETATM   32  C   UNL     1      17.872  51.499  49.920  1.00  0.00     0.142 A 
HETATM   33  C   UNL     1      17.842  52.558  49.044  1.00  0.00     0.027 A 
HETATM   34  C   UNL     1      19.090  52.553  48.375  1.00  0.00     0.036 A 
ENDBRANCH  29  30
ENDBRANCH  27  29
ENDBRANCH  22  27
ENDBRANCH  19  21
ENDBRANCH  18  19
ENDBRANCH   1  18
TORSDOF 10
ENDMDL
MODEL 6
REMARK VINA RESULT:      -8.6      2.517      3.875
REMARK  10 active torsions:
REMARK  status: ('A' for Active; 'I' for Inactive)
REMARK       I    between atoms: N_2  and  C_3 
REMARK    1  A    between atoms: N_2  and  C_22 
REMARK    2  A    between atoms: C_3  and  C_4 
REMARK    3  A    between atoms: C_4  and  O_5 
REMARK    4  A    between atoms: O_5  and  C_6 
REMARK    5  A    between atoms: C_6  and  C_7 
REMARK    6  A    between atoms: C_8  and  N_9 
REMARK    7  A    between atoms: N_9  and  C_10 
REMARK    8  A    between atoms: C_10  and  C_11 
REMARK    9  A    between atoms: C_22  and  C_23 
REMARK       I    between atoms: C_23  and  N_24 
REMARK   10  A    between atoms: N_24  and  C_25 
ROOT
HETATM    1  C   UNL     1      25.803  48.046  49.563  1.00  0.00     0.281 C 
ENDROOT
BRANCH   1   2
HETATM    2  C   UNL     1      25.778  47.157  50.810  1.00  0.00     0.244 C 
HETATM    3  N   UNL     1      25.447  45.815  50.657  1.00  0.00    -0.346 N 
HETATM    4  C   UNL     1      25.409  45.127  49.374  1.00  0.00     0.153 C 
HETATM    5  O   UNL     1      26.089  47.600  51.923  1.00  0.00    -0.271 OA
BRANCH   3   6
HETATM    6  C   UNL     1      25.470  44.963  51.852  1.00  0.00     0.228 C 
BRANCH   6   7
HETATM    7  C   UNL     1      26.902  44.633  52.297  1.00  0.00     0.240 C 
HETATM    8  N   UNL     1      27.105  44.870  53.646  1.00  0.00    -0.326 N 
HETATM    9  H   UNL     1      26.308  45.267  54.147  1.00  0.00     0.169 HD
HETATM   10  O   UNL     1      27.733  44.228  51.489  1.00  0.00    -0.271 OA
BRANCH   8  11
HETATM   11  C   UNL     1      28.287  44.695  54.389  1.00  0.00     0.035 A 
HETATM   12  C   UNL     1      28.812  45.654  55.260  1.00  0.00     0.032 A 
HETATM   13  C   UNL     1      29.994  45.401  55.961  1.00  0.00     0.044 A 
HETATM   14  C   UNL     1      30.650  44.188  55.792  1.00  0.00     0.116 A 
HETATM   15  F   UNL     1      31.781  43.946  56.465  1.00  0.00    -0.206 F 
HETATM   16  C   UNL     1      30.146  43.223  54.930  1.00  0.00     0.044 A 
HETATM   17  C   UNL     1      28.967  43.478  54.225  1.00  0.00     0.032 A 
ENDBRANCH   8  11
ENDBRANCH   6   7
ENDBRANCH   3   6
ENDBRANCH   1   2
BRANCH   1  18
HETATM   18  O   UNL     1      24.698  48.954  49.611  1.00  0.00    -0.308 OA
BRANCH  18  19
HETATM   19  C   UNL     1      24.453  49.639  48.468  1.00  0.00     0.295 C 
HETATM   20  O   UNL     1      25.284  50.031  47.664  1.00  0.00    -0.259 OA
BRANCH  19  21
HETATM   21  C   UNL     1      22.991  49.854  48.326  1.00  0.00     0.060 A 
HETATM   22  C   UNL     1      22.133  48.774  48.016  1.00  0.00     0.025 A 
HETATM   23  C   UNL     1      20.765  49.072  47.884  1.00  0.00     0.024 A 
HETATM   24  C   UNL     1      20.262  50.357  48.127  1.00  0.00     0.002 A 
HETATM   25  C   UNL     1      21.119  51.391  48.483  1.00  0.00     0.001 A 
HETATM   26  C   UNL     1      22.484  51.143  48.578  1.00  0.00     0.019 A 
BRANCH  22  27
HETATM   27  N   UNL     1      22.654  47.506  47.703  1.00  0.00    -0.286 NA
HETATM   28  H   UNL     1      23.459  47.294  48.301  1.00  0.00     0.128 HD
BRANCH  27  29
HETATM   29  C   UNL     1      21.757  46.357  47.574  1.00  0.00     0.157 C 
BRANCH  29  30
HETATM   30  C   UNL     1      21.289  46.071  46.186  1.00  0.00     0.065 A 
HETATM   31  O   UNL     1      22.266  45.763  45.280  1.00  0.00    -0.326 OA
HETATM   32  C   UNL     1      21.652  45.531  44.093  1.00  0.00     0.142 A 
HETATM   33  C   UNL     1      20.292  45.691  44.215  1.00  0.00     0.027 A 
HETATM   34  C   UNL     1      20.056  46.041  45.566  1.00  0.00     0.036 A 
ENDBRANCH  29  30
ENDBRANCH  27  29
ENDBRANCH  22  27
ENDBRANCH  19  21
ENDBRANCH  18  19
ENDBRANCH   1  18
TORSDOF 10
ENDMDL
MODEL 7
REMARK VINA RESULT:      -8.3      1.634      2.361
REMARK  10 active torsions:
REMARK  status: ('A' for Active; 'I' for Inactive)
REMARK       I    between atoms: N_2  and  C_3 
REMARK    1  A    between atoms: N_2  and  C_22 
REMARK    2  A    between atoms: C_3  and  C_4 
REMARK    3  A    between atoms: C_4  and  O_5 
REMARK    4  A    between atoms: O_5  and  C_6 
REMARK    5  A    between atoms: C_6  and  C_7 
REMARK    6  A    between atoms: C_8  and  N_9 
REMARK    7  A    between atoms: N_9  and  C_10 
REMARK    8  A    between atoms: C_10  and  C_11 
REMARK    9  A    between atoms: C_22  and  C_23 
REMARK       I    between atoms: C_23  and  N_24 
REMARK   10  A    between atoms: N_24  and  C_25 
ROOT
HETATM    1  C   UNL     1      23.800  45.146  49.289  1.00  0.00     0.281 C 
ENDROOT
BRANCH   1   2
HETATM    2  C   UNL     1      25.243  44.856  49.711  1.00  0.00     0.244 C 
HETATM    3  N   UNL     1      25.494  43.710  50.459  1.00  0.00    -0.346 N 
HETATM    4  C   UNL     1      24.544  42.619  50.621  1.00  0.00     0.153 C 
HETATM    5  O   UNL     1      26.177  45.589  49.362  1.00  0.00    -0.271 OA
BRANCH   3   6
HETATM    6  C   UNL     1      26.887  43.419  50.820  1.00  0.00     0.228 C 
BRANCH   6   7
HETATM    7  C   UNL     1      27.171  43.701  52.302  1.00  0.00     0.240 C 
HETATM    8  N   UNL     1      28.525  43.807  52.571  1.00  0.00    -0.326 N 
HETATM    9  H   UNL     1      29.145  43.642  51.775  1.00  0.00     0.169 HD
HETATM   10  O   UNL     1      26.252  43.789  53.111  1.00  0.00    -0.271 OA
BRANCH   8  11
HETATM   11  C   UNL     1      29.147  44.046  53.811  1.00  0.00     0.035 A 
HETATM   12  C   UNL     1      28.855  45.138  54.633  1.00  0.00     0.032 A 
HETATM   13  C   UNL     1      29.520  45.302  55.852  1.00  0.00     0.044 A 
HETATM   14  C   UNL     1      30.475  44.373  56.246  1.00  0.00     0.116 A 
HETATM   15  F   UNL     1      31.110  44.531  57.414  1.00  0.00    -0.206 F 
HETATM   16  C   UNL     1      30.780  43.283  55.442  1.00  0.00     0.044 A 
HETATM   17  C   UNL     1      30.119  43.122  54.223  1.00  0.00     0.032 A 
ENDBRANCH   8  11
ENDBRANCH   6   7
ENDBRANCH   3   6
ENDBRANCH   1   2
BRANCH   1  18
HETATM   18  O   UNL     1      23.519  46.534  49.497  1.00  0.00    -0.308 OA
BRANCH  18  19
HETATM   19  C   UNL     1      22.464  47.027  48.805  1.00  0.00     0.295 C 
HETATM   20  O   UNL     1      21.562  46.380  48.296  1.00  0.00    -0.259 OA
BRANCH  19  21
HETATM   21  C   UNL     1      22.559  48.507  48.752  1.00  0.00     0.060 A 
HETATM   22  C   UNL     1      21.521  49.314  49.271  1.00  0.00     0.025 A 
HETATM   23  C   UNL     1      21.687  50.706  49.163  1.00  0.00     0.024 A 
HETATM   24  C   UNL     1      22.859  51.271  48.642  1.00  0.00     0.002 A 
HETATM   25  C   UNL     1      23.889  50.458  48.187  1.00  0.00     0.001 A 
HETATM   26  C   UNL     1      23.739  49.077  48.236  1.00  0.00     0.019 A 
BRANCH  22  27
HETATM   27  N   UNL     1      20.320  48.739  49.724  1.00  0.00    -0.286 NA
HETATM   28  H   UNL     1      20.501  47.827  50.155  1.00  0.00     0.128 HD
BRANCH  27  29
HETATM   29  C   UNL     1      19.380  49.535  50.515  1.00  0.00     0.157 C 
BRANCH  29  30
HETATM   30  C   UNL     1      18.224  50.093  49.753  1.00  0.00     0.065 A 
HETATM   31  O   UNL     1      17.733  49.303  48.751  1.00  0.00    -0.326 OA
HETATM   32  C   UNL     1      16.695  49.970  48.187  1.00  0.00     0.142 A 
HETATM   33  C   UNL     1      16.511  51.184  48.805  1.00  0.00     0.027 A 
HETATM   34  C   UNL     1      17.499  51.266  49.816  1.00  0.00     0.036 A 
ENDBRANCH  29  30
ENDBRANCH  27  29
ENDBRANCH  22  27
ENDBRANCH  19  21
ENDBRANCH  18  19
ENDBRANCH   1  18
TORSDOF 10
ENDMDL
MODEL 8
REMARK VINA RESULT:      -8.2      3.540     10.333
REMARK  10 active torsions:
REMARK  status: ('A' for Active; 'I' for Inactive)
REMARK       I    between atoms: N_2  and  C_3 
REMARK    1  A    between atoms: N_2  and  C_22 
REMARK    2  A    between atoms: C_3  and  C_4 
REMARK    3  A    between atoms: C_4  and  O_5 
REMARK    4  A    between atoms: O_5  and  C_6 
REMARK    5  A    between atoms: C_6  and  C_7 
REMARK    6  A    between atoms: C_8  and  N_9 
REMARK    7  A    between atoms: N_9  and  C_10 
REMARK    8  A    between atoms: C_10  and  C_11 
REMARK    9  A    between atoms: C_22  and  C_23 
REMARK       I    between atoms: C_23  and  N_24 
REMARK   10  A    between atoms: N_24  and  C_25 
ROOT
HETATM    1  C   UNL     1      24.373  45.376  50.922  1.00  0.00     0.281 C 
ENDROOT
BRANCH   1   2
HETATM    2  C   UNL     1      24.537  46.844  50.516  1.00  0.00     0.244 C 
HETATM    3  N   UNL     1      23.965  47.265  49.320  1.00  0.00    -0.346 N 
HETATM    4  C   UNL     1      22.978  46.496  48.574  1.00  0.00     0.153 C 
HETATM    5  O   UNL     1      25.121  47.654  51.246  1.00  0.00    -0.271 OA
BRANCH   3   6
HETATM    6  C   UNL     1      24.090  48.684  48.963  1.00  0.00     0.228 C 
BRANCH   6   7
HETATM    7  C   UNL     1      22.736  49.309  48.600  1.00  0.00     0.240 C 
HETATM    8  N   UNL     1      21.864  49.346  49.675  1.00  0.00    -0.326 N 
HETATM    9  H   UNL     1      22.212  48.920  50.537  1.00  0.00     0.169 HD
HETATM   10  O   UNL     1      22.508  49.694  47.456  1.00  0.00    -0.271 OA
BRANCH   8  11
HETATM   11  C   UNL     1      20.544  49.832  49.706  1.00  0.00     0.035 A 
HETATM   12  C   UNL     1      19.411  49.015  49.714  1.00  0.00     0.032 A 
HETATM   13  C   UNL     1      18.132  49.580  49.744  1.00  0.00     0.044 A 
HETATM   14  C   UNL     1      17.990  50.961  49.768  1.00  0.00     0.116 A 
HETATM   15  F   UNL     1      16.765  51.501  49.798  1.00  0.00    -0.206 F 
HETATM   16  C   UNL     1      19.103  51.791  49.758  1.00  0.00     0.044 A 
HETATM   17  C   UNL     1      20.380  51.226  49.723  1.00  0.00     0.032 A 
ENDBRANCH   8  11
ENDBRANCH   6   7
ENDBRANCH   3   6
ENDBRANCH   1   2
BRANCH   1  18
HETATM   18  O   UNL     1      25.658  44.828  51.231  1.00  0.00    -0.308 OA
BRANCH  18  19
HETATM   19  C   UNL     1      25.664  43.842  52.161  1.00  0.00     0.295 C 
HETATM   20  O   UNL     1      25.218  43.910  53.295  1.00  0.00    -0.259 OA
BRANCH  19  21
HETATM   21  C   UNL     1      26.309  42.633  51.591  1.00  0.00     0.060 A 
HETATM   22  C   UNL     1      27.600  42.239  52.012  1.00  0.00     0.025 A 
HETATM   23  C   UNL     1      28.141  41.091  51.407  1.00  0.00     0.024 A 
HETATM   24  C   UNL     1      27.407  40.325  50.491  1.00  0.00     0.002 A 
HETATM   25  C   UNL     1      26.120  40.702  50.131  1.00  0.00     0.001 A 
HETATM   26  C   UNL     1      25.571  41.857  50.676  1.00  0.00     0.019 A 
BRANCH  22  27
HETATM   27  N   UNL     1      28.355  43.053  52.875  1.00  0.00    -0.286 NA
HETATM   28  H   UNL     1      27.763  43.781  53.288  1.00  0.00     0.128 HD
BRANCH  27  29
HETATM   29  C   UNL     1      29.237  42.443  53.872  1.00  0.00     0.157 C 
BRANCH  29  30
HETATM   30  C   UNL     1      29.782  43.383  54.896  1.00  0.00     0.065 A 
HETATM   31  O   UNL     1      29.094  44.553  55.057  1.00  0.00    -0.326 OA
HETATM   32  C   UNL     1      29.730  45.262  56.023  1.00  0.00     0.142 A 
HETATM   33  C   UNL     1      30.825  44.570  56.484  1.00  0.00     0.027 A 
HETATM   34  C   UNL     1      30.861  43.356  55.757  1.00  0.00     0.036 A 
ENDBRANCH  29  30
ENDBRANCH  27  29
ENDBRANCH  22  27
ENDBRANCH  19  21
ENDBRANCH  18  19
ENDBRANCH   1  18
TORSDOF 10
ENDMDL
MODEL 9
REMARK VINA RESULT:      -8.1      1.854      2.839
REMARK  10 active torsions:
REMARK  status: ('A' for Active; 'I' for Inactive)
REMARK       I    between atoms: N_2  and  C_3 
REMARK    1  A    between atoms: N_2  and  C_22 
REMARK    2  A    between atoms: C_3  and  C_4 
REMARK    3  A    between atoms: C_4  and  O_5 
REMARK    4  A    between atoms: O_5  and  C_6 
REMARK    5  A    between atoms: C_6  and  C_7 
REMARK    6  A    between atoms: C_8  and  N_9 
REMARK    7  A    between atoms: N_9  and  C_10 
REMARK    8  A    between atoms: C_10  and  C_11 
REMARK    9  A    between atoms: C_22  and  C_23 
REMARK       I    between atoms: C_23  and  N_24 
REMARK   10  A    between atoms: N_24  and  C_25 
ROOT
HETATM    1  C   UNL     1      24.278  45.617  50.061  1.00  0.00     0.281 C 
ENDROOT
BRANCH   1   2
HETATM    2  C   UNL     1      25.581  44.836  49.865  1.00  0.00     0.244 C 
HETATM    3  N   UNL     1      25.587  43.478  50.165  1.00  0.00    -0.346 N 
HETATM    4  C   UNL     1      24.384  42.684  50.369  1.00  0.00     0.153 C 
HETATM    5  O   UNL     1      26.595  45.378  49.409  1.00  0.00    -0.271 OA
BRANCH   3   6
HETATM    6  C   UNL     1      26.829  42.730  49.931  1.00  0.00     0.228 C 
BRANCH   6   7
HETATM    7  C   UNL     1      27.588  42.449  51.235  1.00  0.00     0.240 C 
HETATM    8  N   UNL     1      28.042  43.607  51.844  1.00  0.00    -0.326 N 
HETATM    9  H   UNL     1      27.857  44.472  51.333  1.00  0.00     0.169 HD
HETATM   10  O   UNL     1      27.757  41.298  51.627  1.00  0.00    -0.271 OA
BRANCH   8  11
HETATM   11  C   UNL     1      28.781  43.728  53.035  1.00  0.00     0.035 A 
HETATM   12  C   UNL     1      28.447  44.599  54.076  1.00  0.00     0.032 A 
HETATM   13  C   UNL     1      29.237  44.658  55.228  1.00  0.00     0.044 A 
HETATM   14  C   UNL     1      30.358  43.846  55.338  1.00  0.00     0.116 A 
HETATM   15  F   UNL     1      31.112  43.903  56.442  1.00  0.00    -0.206 F 
HETATM   16  C   UNL     1      30.708  42.976  54.314  1.00  0.00     0.044 A 
HETATM   17  C   UNL     1      29.922  42.920  53.161  1.00  0.00     0.032 A 
ENDBRANCH   8  11
ENDBRANCH   6   7
ENDBRANCH   3   6
ENDBRANCH   1   2
BRANCH   1  18
HETATM   18  O   UNL     1      24.066  46.469  48.931  1.00  0.00    -0.308 OA
BRANCH  18  19
HETATM   19  C   UNL     1      23.333  47.583  49.168  1.00  0.00     0.295 C 
HETATM   20  O   UNL     1      23.640  48.515  49.896  1.00  0.00    -0.259 OA
BRANCH  19  21
HETATM   21  C   UNL     1      22.066  47.512  48.397  1.00  0.00     0.060 A 
HETATM   22  C   UNL     1      21.011  48.414  48.663  1.00  0.00     0.025 A 
HETATM   23  C   UNL     1      19.842  48.263  47.896  1.00  0.00     0.024 A 
HETATM   24  C   UNL     1      19.753  47.320  46.863  1.00  0.00     0.002 A 
HETATM   25  C   UNL     1      20.823  46.480  46.586  1.00  0.00     0.001 A 
HETATM   26  C   UNL     1      21.978  46.571  47.354  1.00  0.00     0.019 A 
BRANCH  22  27
HETATM   27  N   UNL     1      21.082  49.307  49.747  1.00  0.00    -0.286 NA
HETATM   28  H   UNL     1      21.835  49.033  50.385  1.00  0.00     0.128 HD
BRANCH  27  29
HETATM   29  C   UNL     1      21.071  50.751  49.509  1.00  0.00     0.157 C 
BRANCH  29  30
HETATM   30  C   UNL     1      19.715  51.357  49.353  1.00  0.00     0.065 A 
HETATM   31  O   UNL     1      18.738  50.847  50.161  1.00  0.00    -0.326 OA
HETATM   32  C   UNL     1      17.595  51.522  49.881  1.00  0.00     0.142 A 
HETATM   33  C   UNL     1      17.816  52.457  48.898  1.00  0.00     0.027 A 
HETATM   34  C   UNL     1      19.186  52.351  48.555  1.00  0.00     0.036 A 
ENDBRANCH  29  30
ENDBRANCH  27  29
ENDBRANCH  22  27
ENDBRANCH  19  21
ENDBRANCH  18  19
ENDBRANCH   1  18
TORSDOF 10
ENDMDL
MODEL 10
REMARK VINA RESULT:      -8.0     12.525     14.486
REMARK  10 active torsions:
REMARK  status: ('A' for Active; 'I' for Inactive)
REMARK       I    between atoms: N_2  and  C_3 
REMARK    1  A    between atoms: N_2  and  C_22 
REMARK    2  A    between atoms: C_3  and  C_4 
REMARK    3  A    between atoms: C_4  and  O_5 
REMARK    4  A    between atoms: O_5  and  C_6 
REMARK    5  A    between atoms: C_6  and  C_7 
REMARK    6  A    between atoms: C_8  and  N_9 
REMARK    7  A    between atoms: N_9  and  C_10 
REMARK    8  A    between atoms: C_10  and  C_11 
REMARK    9  A    between atoms: C_22  and  C_23 
REMARK       I    between atoms: C_23  and  N_24 
REMARK   10  A    between atoms: N_24  and  C_25 
ROOT
HETATM    1  C   UNL     1      34.606  51.548  39.074  1.00  0.00     0.281 C 
ENDROOT
BRANCH   1   2
HETATM    2  C   UNL     1      35.295  52.666  39.863  1.00  0.00     0.244 C 
HETATM    3  N   UNL     1      36.444  52.355  40.581  1.00  0.00    -0.346 N 
HETATM    4  C   UNL     1      37.206  51.126  40.406  1.00  0.00     0.153 C 
HETATM    5  O   UNL     1      34.875  53.829  39.832  1.00  0.00    -0.271 OA
BRANCH   3   6
HETATM    6  C   UNL     1      37.121  53.444  41.297  1.00  0.00     0.228 C 
BRANCH   6   7
HETATM    7  C   UNL     1      37.020  53.282  42.820  1.00  0.00     0.240 C 
HETATM    8  N   UNL     1      38.184  53.657  43.471  1.00  0.00    -0.326 N 
HETATM    9  H   UNL     1      38.954  53.941  42.862  1.00  0.00     0.169 HD
HETATM   10  O   UNL     1      35.997  52.843  43.339  1.00  0.00    -0.271 OA
BRANCH   8  11
HETATM   11  C   UNL     1      38.453  53.628  44.852  1.00  0.00     0.035 A 
HETATM   12  C   UNL     1      39.222  52.642  45.477  1.00  0.00     0.032 A 
HETATM   13  C   UNL     1      39.441  52.687  46.857  1.00  0.00     0.044 A 
HETATM   14  C   UNL     1      38.893  53.719  47.609  1.00  0.00     0.116 A 
HETATM   15  F   UNL     1      39.106  53.761  48.930  1.00  0.00    -0.206 F 
HETATM   16  C   UNL     1      38.125  54.706  47.006  1.00  0.00     0.044 A 
HETATM   17  C   UNL     1      37.902  54.659  45.629  1.00  0.00     0.032 A 
ENDBRANCH   8  11
ENDBRANCH   6   7
ENDBRANCH   3   6
ENDBRANCH   1   2
BRANCH   1  18
HETATM   18  O   UNL     1      33.285  51.968  38.719  1.00  0.00    -0.308 OA
BRANCH  18  19
HETATM   19  C   UNL     1      32.298  51.078  38.983  1.00  0.00     0.295 C 
HETATM   20  O   UNL     1      31.580  50.524  38.165  1.00  0.00    -0.259 OA
BRANCH  19  21
HETATM   21  C   UNL     1      32.208  50.864  40.449  1.00  0.00     0.060 A 
HETATM   22  C   UNL     1      31.950  51.948  41.320  1.00  0.00     0.025 A 
HETATM   23  C   UNL     1      31.898  51.656  42.695  1.00  0.00     0.024 A 
HETATM   24  C   UNL     1      32.015  50.346  43.176  1.00  0.00     0.002 A 
HETATM   25  C   UNL     1      32.216  49.289  42.297  1.00  0.00     0.001 A 
HETATM   26  C   UNL     1      32.318  49.547  40.934  1.00  0.00     0.019 A 
BRANCH  22  27
HETATM   27  N   UNL     1      31.906  53.267  40.835  1.00  0.00    -0.286 NA
HETATM   28  H   UNL     1      32.511  53.365  40.014  1.00  0.00     0.128 HD
BRANCH  27  29
HETATM   29  C   UNL     1      30.617  53.934  40.641  1.00  0.00     0.157 C 
BRANCH  29  30
HETATM   30  C   UNL     1      29.441  53.021  40.537  1.00  0.00     0.065 A 
HETATM   31  O   UNL     1      29.144  52.571  39.281  1.00  0.00    -0.326 OA
HETATM   32  C   UNL     1      28.063  51.759  39.391  1.00  0.00     0.142 A 
HETATM   33  C   UNL     1      27.650  51.683  40.700  1.00  0.00     0.027 A 
HETATM   34  C   UNL     1      28.538  52.499  41.442  1.00  0.00     0.036 A 
ENDBRANCH  29  30
ENDBRANCH  27  29
ENDBRANCH  22  27
ENDBRANCH  19  21
ENDBRANCH  18  19
ENDBRANCH   1  18
TORSDOF 10
ENDMDL
