MODEL 1
REMARK VINA RESULT:      -9.9      0.000      0.000
REMARK  8 active torsions:
REMARK  status: ('A' for Active; 'I' for Inactive)
REMARK    1  A    between atoms: C_4  and  C_5 
REMARK    2  A    between atoms: C_5  and  N_6 
REMARK       I    between atoms: N_6  and  C_7 
REMARK       I    between atoms: C_7  and  N_8 
REMARK       I    between atoms: N_8  and  C_9 
REMARK    3  A    between atoms: C_9  and  C_10 
REMARK    4  A    between atoms: C_10  and  S_11 
REMARK    5  A    between atoms: S_11  and  C_12 
REMARK    6  A    between atoms: N_13  and  C_14 
REMARK    7  A    between atoms: C_21  and  C_22 
REMARK    8  A    between atoms: C_22  and  N_23 
ROOT
HETATM    1  C   UNL     1      21.910  46.543  48.328  1.00  0.00     0.196 A 
HETATM    2  N   UNL     1      22.399  47.741  48.816  1.00  0.00    -0.274 N 
HETATM    3  C   UNL     1      21.256  48.448  49.168  1.00  0.00     0.161 A 
HETATM    4  N   UNL     1      20.184  47.733  48.886  1.00  0.00    -0.132 NA
HETATM    5  N   UNL     1      20.597  46.537  48.369  1.00  0.00    -0.122 NA
ENDROOT
BRANCH   1   6
HETATM    6  S   UNL     1      22.893  45.166  47.956  1.00  0.00    -0.080 SA
BRANCH   6   7
HETATM    7  C   UNL     1      23.007  44.361  49.585  1.00  0.00     0.185 C 
BRANCH   7   8
HETATM    8  C   UNL     1      23.993  43.196  49.585  1.00  0.00     0.235 C 
HETATM    9  N   UNL     1      24.804  43.025  50.688  1.00  0.00    -0.279 N 
HETATM   10  C   UNL     1      24.905  43.804  51.819  1.00  0.00     0.323 C 
HETATM   11  H   UNL     1      25.469  42.275  50.585  1.00  0.00     0.173 HD
HETATM   12  N   UNL     1      25.922  43.387  52.640  1.00  0.00    -0.339 N 
HETATM   13  O   UNL     1      24.196  44.769  52.067  1.00  0.00    -0.247 OA
HETATM   14  H   UNL     1      26.179  42.411  52.629  1.00  0.00     0.164 HD
HETATM   15  O   UNL     1      24.105  42.389  48.656  1.00  0.00    -0.272 OA
BRANCH  12  16
HETATM   16  C   UNL     1      26.191  44.096  53.874  1.00  0.00     0.162 C 
BRANCH  16  17
HETATM   17  C   UNL     1      27.636  43.950  54.265  1.00  0.00    -0.040 A 
HETATM   18  C   UNL     1      28.366  42.816  53.876  1.00  0.00     0.009 A 
HETATM   19  C   UNL     1      29.700  42.667  54.257  1.00  0.00     0.001 A 
HETATM   20  C   UNL     1      30.318  43.647  55.033  1.00  0.00     0.000 A 
HETATM   21  C   UNL     1      29.601  44.776  55.429  1.00  0.00     0.001 A 
HETATM   22  C   UNL     1      28.267  44.926  55.049  1.00  0.00     0.009 A 
ENDBRANCH  16  17
ENDBRANCH  12  16
ENDBRANCH   7   8
ENDBRANCH   6   7
ENDBRANCH   1   6
BRANCH   2  23
HETATM   23  C   UNL     1      23.742  48.190  48.900  1.00  0.00     0.043 A 
HETATM   24  C   UNL     1      24.648  47.522  49.734  1.00  0.00     0.032 A 
HETATM   25  C   UNL     1      25.976  47.953  49.809  1.00  0.00     0.026 A 
HETATM   26  C   UNL     1      26.394  49.050  49.061  1.00  0.00     0.034 A 
HETATM   27 CL   UNL     1      28.025  49.580  49.154  1.00  0.00    -0.084 Cl
HETATM   28  C   UNL     1      25.492  49.726  48.239  1.00  0.00     0.026 A 
HETATM   29  C   UNL     1      24.164  49.298  48.155  1.00  0.00     0.032 A 
ENDBRANCH   2  23
BRANCH   3  30
HETATM   30  C   UNL     1      21.201  49.861  49.624  1.00  0.00     0.315 C 
BRANCH  30  31
HETATM   31  N   UNL     1      19.895  50.538  49.213  1.00  0.00    -0.064 N 
HETATM   32  H   UNL     1      19.503  49.915  48.486  1.00  0.00     0.280 HD
HETATM   33  C   UNL     1      18.885  50.565  50.338  1.00  0.00     0.235 C 
HETATM   34  C   UNL     1      17.566  51.126  49.826  1.00  0.00     0.028 C 
HETATM   35  C   UNL     1      17.749  52.504  49.201  1.00  0.00     0.003 C 
HETATM   36  C   UNL     1      18.807  52.470  48.105  1.00  0.00     0.028 C 
HETATM   37  C   UNL     1      20.125  51.895  48.606  1.00  0.00     0.235 C 
ENDBRANCH  30  31
ENDBRANCH   3  30
TORSDOF 8
ENDMDL
MODEL 2
REMARK VINA RESULT:      -9.9      2.759      4.019
REMARK  8 active torsions:
REMARK  status: ('A' for Active; 'I' for Inactive)
REMARK    1  A    between atoms: C_4  and  C_5 
REMARK    2  A    between atoms: C_5  and  N_6 
REMARK       I    between atoms: N_6  and  C_7 
REMARK       I    between atoms: C_7  and  N_8 
REMARK       I    between atoms: N_8  and  C_9 
REMARK    3  A    between atoms: C_9  and  C_10 
REMARK    4  A    between atoms: C_10  and  S_11 
REMARK    5  A    between atoms: S_11  and  C_12 
REMARK    6  A    between atoms: N_13  and  C_14 
REMARK    7  A    between atoms: C_21  and  C_22 
REMARK    8  A    between atoms: C_22  and  N_23 
ROOT
HETATM    1  C   UNL     1      23.654  47.424  49.555  1.00  0.00     0.196 A 
HETATM    2  N   UNL     1      22.594  47.633  48.692  1.00  0.00    -0.274 N 
HETATM    3  C   UNL     1      22.509  49.016  48.599  1.00  0.00     0.161 A 
HETATM    4  N   UNL     1      23.429  49.573  49.364  1.00  0.00    -0.132 NA
HETATM    5  N   UNL     1      24.150  48.573  49.954  1.00  0.00    -0.122 NA
ENDROOT
BRANCH   1   6
HETATM    6  S   UNL     1      24.374  45.878  49.861  1.00  0.00    -0.080 SA
BRANCH   6   7
HETATM    7  C   UNL     1      24.999  46.106  51.554  1.00  0.00     0.185 C 
BRANCH   7   8
HETATM    8  C   UNL     1      25.149  44.781  52.298  1.00  0.00     0.235 C 
HETATM    9  N   UNL     1      26.041  44.718  53.348  1.00  0.00    -0.279 N 
HETATM   10  C   UNL     1      26.894  45.690  53.822  1.00  0.00     0.323 C 
HETATM   11  H   UNL     1      26.129  43.797  53.745  1.00  0.00     0.173 HD
HETATM   12  N   UNL     1      27.727  45.209  54.800  1.00  0.00    -0.339 N 
HETATM   13  O   UNL     1      26.933  46.842  53.415  1.00  0.00    -0.247 OA
HETATM   14  H   UNL     1      27.403  44.445  55.375  1.00  0.00     0.164 HD
HETATM   15  O   UNL     1      24.512  43.760  52.019  1.00  0.00    -0.272 OA
BRANCH  12  16
HETATM   16  C   UNL     1      28.706  46.086  55.410  1.00  0.00     0.162 C 
BRANCH  16  17
HETATM   17  C   UNL     1      29.735  45.287  56.163  1.00  0.00    -0.040 A 
HETATM   18  C   UNL     1      30.323  44.156  55.578  1.00  0.00     0.009 A 
HETATM   19  C   UNL     1      31.260  43.400  56.284  1.00  0.00     0.001 A 
HETATM   20  C   UNL     1      31.615  43.763  57.581  1.00  0.00     0.000 A 
HETATM   21  C   UNL     1      31.033  44.883  58.175  1.00  0.00     0.001 A 
HETATM   22  C   UNL     1      30.096  45.640  57.471  1.00  0.00     0.009 A 
ENDBRANCH  16  17
ENDBRANCH  12  16
ENDBRANCH   7   8
ENDBRANCH   6   7
ENDBRANCH   1   6
BRANCH   2  23
HETATM   23  C   UNL     1      21.742  46.681  48.076  1.00  0.00     0.043 A 
HETATM   24  C   UNL     1      20.623  46.197  48.766  1.00  0.00     0.032 A 
HETATM   25  C   UNL     1      19.774  45.269  48.156  1.00  0.00     0.026 A 
HETATM   26  C   UNL     1      20.046  44.820  46.867  1.00  0.00     0.034 A 
HETATM   27 CL   UNL     1      19.004  43.679  46.118  1.00  0.00    -0.084 Cl
HETATM   28  C   UNL     1      21.166  45.289  46.180  1.00  0.00     0.026 A 
HETATM   29  C   UNL     1      22.018  46.220  46.782  1.00  0.00     0.032 A 
ENDBRANCH   2  23
BRANCH   3  30
HETATM   30  C   UNL     1      21.449  49.789  47.900  1.00  0.00     0.315 C 
BRANCH  30  31
HETATM   31  N   UNL     1      20.317  50.179  48.847  1.00  0.00    -0.064 N 
HETATM   32  H   UNL     1      20.697  49.994  49.790  1.00  0.00     0.280 HD
HETATM   33  C   UNL     1      20.014  51.660  48.797  1.00  0.00     0.235 C 
HETATM   34  C   UNL     1      18.976  52.005  49.855  1.00  0.00     0.028 C 
HETATM   35  C   UNL     1      17.714  51.167  49.695  1.00  0.00     0.003 C 
HETATM   36  C   UNL     1      18.042  49.679  49.695  1.00  0.00     0.028 C 
HETATM   37  C   UNL     1      19.092  49.329  48.649  1.00  0.00     0.235 C 
ENDBRANCH  30  31
ENDBRANCH   3  30
TORSDOF 8
ENDMDL
MODEL 3
REMARK VINA RESULT:      -9.7      1.595      9.079
REMARK  8 active torsions:
REMARK  status: ('A' for Active; 'I' for Inactive)
REMARK    1  A    between atoms: C_4  and  C_5 
REMARK    2  A    between atoms: C_5  and  N_6 
REMARK       I    between atoms: N_6  and  C_7 
REMARK       I    between atoms: C_7  and  N_8 
REMARK       I    between atoms: N_8  and  C_9 
REMARK    3  A    between atoms: C_9  and  C_10 
REMARK    4  A    between atoms: C_10  and  S_11 
REMARK    5  A    between atoms: S_11  and  C_12 
REMARK    6  A    between atoms: N_13  and  C_14 
REMARK    7  A    between atoms: C_21  and  C_22 
REMARK    8  A    between atoms: C_22  and  N_23 
ROOT
HETATM    1  C   UNL     1      24.224  43.843  49.824  1.00  0.00     0.196 A 
HETATM    2  N   UNL     1      25.050  44.672  50.559  1.00  0.00    -0.274 N 
HETATM    3  C   UNL     1      25.028  44.119  51.833  1.00  0.00     0.161 A 
HETATM    4  N   UNL     1      24.233  43.066  51.850  1.00  0.00    -0.132 NA
HETATM    5  N   UNL     1      23.739  42.890  50.588  1.00  0.00    -0.122 NA
ENDROOT
BRANCH   1   6
HETATM    6  S   UNL     1      24.057  43.907  48.101  1.00  0.00    -0.080 SA
BRANCH   6   7
HETATM    7  C   UNL     1      23.047  45.407  47.898  1.00  0.00     0.185 C 
BRANCH   7   8
HETATM    8  C   UNL     1      21.710  45.306  48.626  1.00  0.00     0.235 C 
HETATM    9  N   UNL     1      21.103  46.472  49.045  1.00  0.00    -0.279 N 
HETATM   10  C   UNL     1      21.558  47.769  48.952  1.00  0.00     0.323 C 
HETATM   11  H   UNL     1      20.259  46.318  49.572  1.00  0.00     0.173 HD
HETATM   12  N   UNL     1      20.733  48.650  49.604  1.00  0.00    -0.339 N 
HETATM   13  O   UNL     1      22.584  48.109  48.379  1.00  0.00    -0.247 OA
HETATM   14  H   UNL     1      19.752  48.424  49.681  1.00  0.00     0.164 HD
HETATM   15  O   UNL     1      21.131  44.239  48.858  1.00  0.00    -0.272 OA
BRANCH  12  16
HETATM   16  C   UNL     1      21.058  50.061  49.626  1.00  0.00     0.162 C 
BRANCH  16  17
HETATM   17  C   UNL     1      19.827  50.892  49.384  1.00  0.00    -0.040 A 
HETATM   18  C   UNL     1      19.852  51.944  48.456  1.00  0.00     0.009 A 
HETATM   19  C   UNL     1      18.718  52.731  48.247  1.00  0.00     0.001 A 
HETATM   20  C   UNL     1      17.551  52.478  48.965  1.00  0.00     0.000 A 
HETATM   21  C   UNL     1      17.516  51.438  49.893  1.00  0.00     0.001 A 
HETATM   22  C   UNL     1      18.649  50.650  50.104  1.00  0.00     0.009 A 
ENDBRANCH  16  17
ENDBRANCH  12  16
ENDBRANCH   7   8
ENDBRANCH   6   7
ENDBRANCH   1   6
BRANCH   2  23
HETATM   23  C   UNL     1      25.731  45.847  50.148  1.00  0.00     0.043 A 
HETATM   24  C   UNL     1      25.086  47.088  50.224  1.00  0.00     0.032 A 
HETATM   25  C   UNL     1      25.758  48.249  49.833  1.00  0.00     0.026 A 
HETATM   26  C   UNL     1      27.065  48.170  49.361  1.00  0.00     0.034 A 
HETATM   27 CL   UNL     1      27.891  49.597  48.880  1.00  0.00    -0.084 Cl
HETATM   28  C   UNL     1      27.708  46.935  49.272  1.00  0.00     0.026 A 
HETATM   29  C   UNL     1      27.043  45.770  49.665  1.00  0.00     0.032 A 
ENDBRANCH   2  23
BRANCH   3  30
HETATM   30  C   UNL     1      25.645  44.698  53.055  1.00  0.00     0.315 C 
BRANCH  30  31
HETATM   31  N   UNL     1      27.135  44.377  53.143  1.00  0.00    -0.064 N 
HETATM   32  H   UNL     1      27.596  45.173  52.672  1.00  0.00     0.280 HD
HETATM   33  C   UNL     1      27.638  44.380  54.569  1.00  0.00     0.235 C 
HETATM   34  C   UNL     1      29.148  44.189  54.578  1.00  0.00     0.028 C 
HETATM   35  C   UNL     1      29.555  42.919  53.841  1.00  0.00     0.003 C 
HETATM   36  C   UNL     1      28.997  42.908  52.423  1.00  0.00     0.028 C 
HETATM   37  C   UNL     1      27.488  43.114  52.405  1.00  0.00     0.235 C 
ENDBRANCH  30  31
ENDBRANCH   3  30
TORSDOF 8
ENDMDL
MODEL 4
REMARK VINA RESULT:      -9.6      2.843     10.481
REMARK  8 active torsions:
REMARK  status: ('A' for Active; 'I' for Inactive)
REMARK    1  A    between atoms: C_4  and  C_5 
REMARK    2  A    between atoms: C_5  and  N_6 
REMARK       I    between atoms: N_6  and  C_7 
REMARK       I    between atoms: C_7  and  N_8 
REMARK       I    between atoms: N_8  and  C_9 
REMARK    3  A    between atoms: C_9  and  C_10 
REMARK    4  A    between atoms: C_10  and  S_11 
REMARK    5  A    between atoms: S_11  and  C_12 
REMARK    6  A    between atoms: N_13  and  C_14 
REMARK    7  A    between atoms: C_21  and  C_22 
REMARK    8  A    between atoms: C_22  and  N_23 
ROOT
HETATM    1  C   UNL     1      26.114  46.483  51.410  1.00  0.00     0.196 A 
HETATM    2  N   UNL     1      26.314  45.300  52.098  1.00  0.00    -0.274 N 
HETATM    3  C   UNL     1      26.452  45.704  53.420  1.00  0.00     0.161 A 
HETATM    4  N   UNL     1      26.364  47.018  53.498  1.00  0.00    -0.132 NA
HETATM    5  N   UNL     1      26.143  47.502  52.239  1.00  0.00    -0.122 NA
ENDROOT
BRANCH   1   6
HETATM    6  S   UNL     1      25.644  46.578  49.746  1.00  0.00    -0.080 SA
BRANCH   6   7
HETATM    7  C   UNL     1      24.256  47.751  49.834  1.00  0.00     0.185 C 
BRANCH   7   8
HETATM    8  C   UNL     1      23.047  47.276  49.031  1.00  0.00     0.235 C 
HETATM    9  N   UNL     1      22.101  48.209  48.660  1.00  0.00    -0.279 N 
HETATM   10  C   UNL     1      22.045  49.553  48.957  1.00  0.00     0.323 C 
HETATM   11  H   UNL     1      21.305  47.809  48.190  1.00  0.00     0.173 HD
HETATM   12  N   UNL     1      20.876  50.126  48.522  1.00  0.00    -0.339 N 
HETATM   13  O   UNL     1      22.913  50.172  49.555  1.00  0.00    -0.247 OA
HETATM   14  H   UNL     1      20.417  49.729  47.715  1.00  0.00     0.164 HD
HETATM   15  O   UNL     1      22.868  46.104  48.686  1.00  0.00    -0.272 OA
BRANCH  12  16
HETATM   16  C   UNL     1      20.632  51.534  48.758  1.00  0.00     0.162 C 
BRANCH  16  17
HETATM   17  C   UNL     1      19.157  51.829  48.714  1.00  0.00    -0.040 A 
HETATM   18  C   UNL     1      18.466  51.811  47.493  1.00  0.00     0.009 A 
HETATM   19  C   UNL     1      17.103  52.108  47.446  1.00  0.00     0.001 A 
HETATM   20  C   UNL     1      16.418  52.430  48.616  1.00  0.00     0.000 A 
HETATM   21  C   UNL     1      17.096  52.456  49.835  1.00  0.00     0.001 A 
HETATM   22  C   UNL     1      18.459  52.160  49.884  1.00  0.00     0.009 A 
ENDBRANCH  16  17
ENDBRANCH  12  16
ENDBRANCH   7   8
ENDBRANCH   6   7
ENDBRANCH   1   6
BRANCH   2  23
HETATM   23  C   UNL     1      26.413  43.979  51.592  1.00  0.00     0.043 A 
HETATM   24  C   UNL     1      25.249  43.260  51.289  1.00  0.00     0.032 A 
HETATM   25  C   UNL     1      25.343  41.963  50.777  1.00  0.00     0.026 A 
HETATM   26  C   UNL     1      26.593  41.383  50.578  1.00  0.00     0.034 A 
HETATM   27 CL   UNL     1      26.708  39.789  49.950  1.00  0.00    -0.084 Cl
HETATM   28  C   UNL     1      27.754  42.090  50.890  1.00  0.00     0.026 A 
HETATM   29  C   UNL     1      27.669  43.389  51.398  1.00  0.00     0.032 A 
ENDBRANCH   2  23
BRANCH   3  30
HETATM   30  C   UNL     1      26.821  44.839  54.571  1.00  0.00     0.315 C 
BRANCH  30  31
HETATM   31  N   UNL     1      28.334  44.763  54.759  1.00  0.00    -0.064 N 
HETATM   32  H   UNL     1      28.719  45.276  53.947  1.00  0.00     0.280 HD
HETATM   33  C   UNL     1      28.796  45.512  55.989  1.00  0.00     0.235 C 
HETATM   34  C   UNL     1      30.317  45.513  56.045  1.00  0.00     0.028 C 
HETATM   35  C   UNL     1      30.880  44.097  56.004  1.00  0.00     0.003 C 
HETATM   36  C   UNL     1      30.364  43.340  54.786  1.00  0.00     0.028 C 
HETATM   37  C   UNL     1      28.843  43.348  54.715  1.00  0.00     0.235 C 
ENDBRANCH  30  31
ENDBRANCH   3  30
TORSDOF 8
ENDMDL
MODEL 5
REMARK VINA RESULT:      -9.6      3.569     10.275
REMARK  8 active torsions:
REMARK  status: ('A' for Active; 'I' for Inactive)
REMARK    1  A    between atoms: C_4  and  C_5 
REMARK    2  A    between atoms: C_5  and  N_6 
REMARK       I    between atoms: N_6  and  C_7 
REMARK       I    between atoms: C_7  and  N_8 
REMARK       I    between atoms: N_8  and  C_9 
REMARK    3  A    between atoms: C_9  and  C_10 
REMARK    4  A    between atoms: C_10  and  S_11 
REMARK    5  A    between atoms: S_11  and  C_12 
REMARK    6  A    between atoms: N_13  and  C_14 
REMARK    7  A    between atoms: C_21  and  C_22 
REMARK    8  A    between atoms: C_22  and  N_23 
ROOT
HETATM    1  C   UNL     1      26.587  43.674  49.999  1.00  0.00     0.196 A 
HETATM    2  N   UNL     1      27.031  42.717  50.893  1.00  0.00    -0.274 N 
HETATM    3  C   UNL     1      26.469  41.537  50.423  1.00  0.00     0.161 A 
HETATM    4  N   UNL     1      25.735  41.786  49.355  1.00  0.00    -0.132 NA
HETATM    5  N   UNL     1      25.819  43.123  49.086  1.00  0.00    -0.122 NA
ENDROOT
BRANCH   1   6
HETATM    6  S   UNL     1      27.165  45.307  49.949  1.00  0.00    -0.080 SA
BRANCH   6   7
HETATM    7  C   UNL     1      26.234  46.055  51.322  1.00  0.00     0.185 C 
BRANCH   7   8
HETATM    8  C   UNL     1      24.750  45.703  51.273  1.00  0.00     0.235 C 
HETATM    9  N   UNL     1      23.892  46.571  50.630  1.00  0.00    -0.279 N 
HETATM   10  C   UNL     1      24.168  47.787  50.043  1.00  0.00     0.323 C 
HETATM   11  H   UNL     1      22.924  46.302  50.695  1.00  0.00     0.173 HD
HETATM   12  N   UNL     1      23.028  48.423  49.621  1.00  0.00    -0.339 N 
HETATM   13  O   UNL     1      25.286  48.266  49.923  1.00  0.00    -0.247 OA
HETATM   14  H   UNL     1      22.233  47.860  49.355  1.00  0.00     0.164 HD
HETATM   15  O   UNL     1      24.268  44.680  51.770  1.00  0.00    -0.272 OA
BRANCH  12  16
HETATM   16  C   UNL     1      23.118  49.724  48.990  1.00  0.00     0.162 C 
BRANCH  16  17
HETATM   17  C   UNL     1      21.762  50.372  48.917  1.00  0.00    -0.040 A 
HETATM   18  C   UNL     1      21.103  50.499  47.685  1.00  0.00     0.009 A 
HETATM   19  C   UNL     1      19.856  51.121  47.610  1.00  0.00     0.001 A 
HETATM   20  C   UNL     1      19.257  51.625  48.764  1.00  0.00     0.000 A 
HETATM   21  C   UNL     1      19.905  51.509  49.993  1.00  0.00     0.001 A 
HETATM   22  C   UNL     1      21.153  50.887  50.069  1.00  0.00     0.009 A 
ENDBRANCH  16  17
ENDBRANCH  12  16
ENDBRANCH   7   8
ENDBRANCH   6   7
ENDBRANCH   1   6
BRANCH   2  23
HETATM   23  C   UNL     1      27.829  42.881  52.054  1.00  0.00     0.043 A 
HETATM   24  C   UNL     1      29.218  42.714  51.974  1.00  0.00     0.032 A 
HETATM   25  C   UNL     1      30.009  42.888  53.113  1.00  0.00     0.026 A 
HETATM   26  C   UNL     1      29.415  43.219  54.328  1.00  0.00     0.034 A 
HETATM   27 CL   UNL     1      30.386  43.433  55.728  1.00  0.00    -0.084 Cl
HETATM   28  C   UNL     1      28.031  43.375  54.415  1.00  0.00     0.026 A 
HETATM   29  C   UNL     1      27.234  43.206  53.280  1.00  0.00     0.032 A 
ENDBRANCH   2  23
BRANCH   3  30
HETATM   30  C   UNL     1      26.516  40.211  51.093  1.00  0.00     0.315 C 
BRANCH  30  31
HETATM   31  N   UNL     1      27.389  39.221  50.326  1.00  0.00    -0.064 N 
HETATM   32  H   UNL     1      27.770  38.597  51.057  1.00  0.00     0.280 HD
HETATM   33  C   UNL     1      26.579  38.342  49.399  1.00  0.00     0.235 C 
HETATM   34  C   UNL     1      27.484  37.293  48.770  1.00  0.00     0.028 C 
HETATM   35  C   UNL     1      28.665  37.932  48.050  1.00  0.00     0.003 C 
HETATM   36  C   UNL     1      29.440  38.854  48.984  1.00  0.00     0.028 C 
HETATM   37  C   UNL     1      28.537  39.897  49.629  1.00  0.00     0.235 C 
ENDBRANCH  30  31
ENDBRANCH   3  30
TORSDOF 8
ENDMDL
MODEL 6
REMARK VINA RESULT:      -9.3      5.142      8.835
REMARK  8 active torsions:
REMARK  status: ('A' for Active; 'I' for Inactive)
REMARK    1  A    between atoms: C_4  and  C_5 
REMARK    2  A    between atoms: C_5  and  N_6 
REMARK       I    between atoms: N_6  and  C_7 
REMARK       I    between atoms: C_7  and  N_8 
REMARK       I    between atoms: N_8  and  C_9 
REMARK    3  A    between atoms: C_9  and  C_10 
REMARK    4  A    between atoms: C_10  and  S_11 
REMARK    5  A    between atoms: S_11  and  C_12 
REMARK    6  A    between atoms: N_13  and  C_14 
REMARK    7  A    between atoms: C_21  and  C_22 
REMARK    8  A    between atoms: C_22  and  N_23 
ROOT
HETATM    1  C   UNL     1      26.427  43.407  49.941  1.00  0.00     0.196 A 
HETATM    2  N   UNL     1      26.884  42.401  50.774  1.00  0.00    -0.274 N 
HETATM    3  C   UNL     1      26.315  41.249  50.246  1.00  0.00     0.161 A 
HETATM    4  N   UNL     1      25.566  41.557  49.204  1.00  0.00    -0.132 NA
HETATM    5  N   UNL     1      25.646  42.907  49.010  1.00  0.00    -0.122 NA
ENDROOT
BRANCH   1   6
HETATM    6  S   UNL     1      27.003  45.040  49.975  1.00  0.00    -0.080 SA
BRANCH   6   7
HETATM    7  C   UNL     1      25.490  45.941  50.433  1.00  0.00     0.185 C 
BRANCH   7   8
HETATM    8  C   UNL     1      24.751  45.278  51.592  1.00  0.00     0.235 C 
HETATM    9  N   UNL     1      25.006  45.726  52.872  1.00  0.00    -0.279 N 
HETATM   10  C   UNL     1      25.900  46.686  53.293  1.00  0.00     0.323 C 
HETATM   11  H   UNL     1      24.530  45.198  53.585  1.00  0.00     0.173 HD
HETATM   12  N   UNL     1      25.965  46.761  54.662  1.00  0.00    -0.339 N 
HETATM   13  O   UNL     1      26.579  47.380  52.551  1.00  0.00    -0.247 OA
HETATM   14  H   UNL     1      25.146  46.511  55.197  1.00  0.00     0.164 HD
HETATM   15  O   UNL     1      23.930  44.366  51.453  1.00  0.00    -0.272 OA
BRANCH  12  16
HETATM   16  C   UNL     1      26.864  47.706  55.291  1.00  0.00     0.162 C 
BRANCH  16  17
HETATM   17  C   UNL     1      27.981  46.985  55.996  1.00  0.00    -0.040 A 
HETATM   18  C   UNL     1      27.920  46.764  57.380  1.00  0.00     0.009 A 
HETATM   19  C   UNL     1      28.966  46.117  58.040  1.00  0.00     0.001 A 
HETATM   20  C   UNL     1      30.084  45.689  57.326  1.00  0.00     0.000 A 
HETATM   21  C   UNL     1      30.157  45.908  55.950  1.00  0.00     0.001 A 
HETATM   22  C   UNL     1      29.112  46.555  55.288  1.00  0.00     0.009 A 
ENDBRANCH  16  17
ENDBRANCH  12  16
ENDBRANCH   7   8
ENDBRANCH   6   7
ENDBRANCH   1   6
BRANCH   2  23
HETATM   23  C   UNL     1      27.697  42.500  51.931  1.00  0.00     0.043 A 
HETATM   24  C   UNL     1      29.060  42.184  51.853  1.00  0.00     0.032 A 
HETATM   25  C   UNL     1      29.868  42.294  52.988  1.00  0.00     0.026 A 
HETATM   26  C   UNL     1      29.316  42.709  54.197  1.00  0.00     0.034 A 
HETATM   27 CL   UNL     1      30.309  42.843  55.592  1.00  0.00    -0.084 Cl
HETATM   28  C   UNL     1      27.958  43.013  54.283  1.00  0.00     0.026 A 
HETATM   29  C   UNL     1      27.144  42.910  53.151  1.00  0.00     0.032 A 
ENDBRANCH   2  23
BRANCH   3  30
HETATM   30  C   UNL     1      26.371  39.888  50.840  1.00  0.00     0.315 C 
BRANCH  30  31
HETATM   31  N   UNL     1      27.304  38.967  50.056  1.00  0.00    -0.064 N 
HETATM   32  H   UNL     1      27.599  38.256  50.745  1.00  0.00     0.280 HD
HETATM   33  C   UNL     1      26.580  38.218  48.959  1.00  0.00     0.235 C 
HETATM   34  C   UNL     1      27.529  37.223  48.308  1.00  0.00     0.028 C 
HETATM   35  C   UNL     1      28.786  37.908  47.786  1.00  0.00     0.003 C 
HETATM   36  C   UNL     1      29.475  38.700  48.891  1.00  0.00     0.028 C 
HETATM   37  C   UNL     1      28.526  39.687  49.557  1.00  0.00     0.235 C 
ENDBRANCH  30  31
ENDBRANCH   3  30
TORSDOF 8
ENDMDL
MODEL 7
REMARK VINA RESULT:      -9.2      2.897      4.210
REMARK  8 active torsions:
REMARK  status: ('A' for Active; 'I' for Inactive)
REMARK    1  A    between atoms: C_4  and  C_5 
REMARK    2  A    between atoms: C_5  and  N_6 
REMARK       I    between atoms: N_6  and  C_7 
REMARK       I    between atoms: C_7  and  N_8 
REMARK       I    between atoms: N_8  and  C_9 
REMARK    3  A    between atoms: C_9  and  C_10 
REMARK    4  A    between atoms: C_10  and  S_11 
REMARK    5  A    between atoms: S_11  and  C_12 
REMARK    6  A    between atoms: N_13  and  C_14 
REMARK    7  A    between atoms: C_21  and  C_22 
REMARK    8  A    between atoms: C_22  and  N_23 
ROOT
HETATM    1  C   UNL     1      23.199  45.832  48.662  1.00  0.00     0.196 A 
HETATM    2  N   UNL     1      22.204  46.278  47.811  1.00  0.00    -0.274 N 
HETATM    3  C   UNL     1      22.148  47.645  48.054  1.00  0.00     0.161 A 
HETATM    4  N   UNL     1      23.022  47.969  48.989  1.00  0.00    -0.132 NA
HETATM    5  N   UNL     1      23.685  46.833  49.360  1.00  0.00    -0.122 NA
ENDROOT
BRANCH   1   6
HETATM    6  S   UNL     1      23.871  44.235  48.625  1.00  0.00    -0.080 SA
BRANCH   6   7
HETATM    7  C   UNL     1      25.084  44.329  49.979  1.00  0.00     0.185 C 
BRANCH   7   8
HETATM    8  C   UNL     1      24.753  43.369  51.118  1.00  0.00     0.235 C 
HETATM    9  N   UNL     1      25.766  43.001  51.979  1.00  0.00    -0.279 N 
HETATM   10  C   UNL     1      27.101  43.337  51.941  1.00  0.00     0.323 C 
HETATM   11  H   UNL     1      25.483  42.318  52.663  1.00  0.00     0.173 HD
HETATM   12  N   UNL     1      27.826  42.667  52.894  1.00  0.00    -0.339 N 
HETATM   13  O   UNL     1      27.601  44.121  51.147  1.00  0.00    -0.247 OA
HETATM   14  H   UNL     1      27.360  42.389  53.746  1.00  0.00     0.164 HD
HETATM   15  O   UNL     1      23.626  42.905  51.321  1.00  0.00    -0.272 OA
BRANCH  12  16
HETATM   16  C   UNL     1      29.255  42.882  52.998  1.00  0.00     0.162 C 
BRANCH  16  17
HETATM   17  C   UNL     1      29.584  43.653  54.247  1.00  0.00    -0.040 A 
HETATM   18  C   UNL     1      28.849  44.798  54.589  1.00  0.00     0.009 A 
HETATM   19  C   UNL     1      29.168  45.529  55.735  1.00  0.00     0.001 A 
HETATM   20  C   UNL     1      30.226  45.125  56.547  1.00  0.00     0.000 A 
HETATM   21  C   UNL     1      30.966  43.991  56.215  1.00  0.00     0.001 A 
HETATM   22  C   UNL     1      30.649  43.259  55.070  1.00  0.00     0.009 A 
ENDBRANCH  16  17
ENDBRANCH  12  16
ENDBRANCH   7   8
ENDBRANCH   6   7
ENDBRANCH   1   6
BRANCH   2  23
HETATM   23  C   UNL     1      21.382  45.532  46.929  1.00  0.00     0.043 A 
HETATM   24  C   UNL     1      20.220  44.917  47.412  1.00  0.00     0.032 A 
HETATM   25  C   UNL     1      19.400  44.192  46.541  1.00  0.00     0.026 A 
HETATM   26  C   UNL     1      19.744  44.076  45.197  1.00  0.00     0.034 A 
HETATM   27 CL   UNL     1      18.738  43.185  44.128  1.00  0.00    -0.084 Cl
HETATM   28  C   UNL     1      20.907  44.676  44.714  1.00  0.00     0.026 A 
HETATM   29  C   UNL     1      21.729  45.406  45.577  1.00  0.00     0.032 A 
ENDBRANCH   2  23
BRANCH   3  30
HETATM   30  C   UNL     1      21.151  48.597  47.501  1.00  0.00     0.315 C 
BRANCH  30  31
HETATM   31  N   UNL     1      20.601  49.529  48.577  1.00  0.00    -0.064 N 
HETATM   32  H   UNL     1      21.420  49.751  49.167  1.00  0.00     0.280 HD
HETATM   33  C   UNL     1      20.124  50.846  48.006  1.00  0.00     0.235 C 
HETATM   34  C   UNL     1      19.716  51.777  49.138  1.00  0.00     0.028 C 
HETATM   35  C   UNL     1      18.662  51.139  50.035  1.00  0.00     0.003 C 
HETATM   36  C   UNL     1      19.137  49.790  50.561  1.00  0.00     0.028 C 
HETATM   37  C   UNL     1      19.562  48.858  49.433  1.00  0.00     0.235 C 
ENDBRANCH  30  31
ENDBRANCH   3  30
TORSDOF 8
ENDMDL
MODEL 8
REMARK VINA RESULT:      -8.9      2.797      3.997
REMARK  8 active torsions:
REMARK  status: ('A' for Active; 'I' for Inactive)
REMARK    1  A    between atoms: C_4  and  C_5 
REMARK    2  A    between atoms: C_5  and  N_6 
REMARK       I    between atoms: N_6  and  C_7 
REMARK       I    between atoms: C_7  and  N_8 
REMARK       I    between atoms: N_8  and  C_9 
REMARK    3  A    between atoms: C_9  and  C_10 
REMARK    4  A    between atoms: C_10  and  S_11 
REMARK    5  A    between atoms: S_11  and  C_12 
REMARK    6  A    between atoms: N_13  and  C_14 
REMARK    7  A    between atoms: C_21  and  C_22 
REMARK    8  A    between atoms: C_22  and  N_23 
ROOT
HETATM    1  C   UNL     1      22.157  49.251  49.261  1.00  0.00     0.196 A 
HETATM    2  N   UNL     1      20.850  48.894  48.983  1.00  0.00    -0.274 N 
HETATM    3  C   UNL     1      20.099  49.915  49.552  1.00  0.00     0.161 A 
HETATM    4  N   UNL     1      20.899  50.786  50.137  1.00  0.00    -0.132 NA
HETATM    5  N   UNL     1      22.188  50.373  49.945  1.00  0.00    -0.122 NA
ENDROOT
BRANCH   1   6
HETATM    6  S   UNL     1      23.547  48.466  48.589  1.00  0.00    -0.080 SA
BRANCH   6   7
HETATM    7  C   UNL     1      24.370  47.853  50.092  1.00  0.00     0.185 C 
BRANCH   7   8
HETATM    8  C   UNL     1      24.479  46.331  50.111  1.00  0.00     0.235 C 
HETATM    9  N   UNL     1      25.113  45.733  51.180  1.00  0.00    -0.279 N 
HETATM   10  C   UNL     1      25.737  46.321  52.258  1.00  0.00     0.323 C 
HETATM   11  H   UNL     1      25.199  44.734  51.089  1.00  0.00     0.173 HD
HETATM   12  N   UNL     1      26.372  45.398  53.050  1.00  0.00    -0.339 N 
HETATM   13  O   UNL     1      25.753  47.522  52.485  1.00  0.00    -0.247 OA
HETATM   14  H   UNL     1      26.003  44.458  53.083  1.00  0.00     0.164 HD
HETATM   15  O   UNL     1      24.025  45.597  49.226  1.00  0.00    -0.272 OA
BRANCH  12  16
HETATM   16  C   UNL     1      27.097  45.832  54.226  1.00  0.00     0.162 C 
BRANCH  16  17
HETATM   17  C   UNL     1      28.275  44.933  54.484  1.00  0.00    -0.040 A 
HETATM   18  C   UNL     1      29.206  45.252  55.484  1.00  0.00     0.009 A 
HETATM   19  C   UNL     1      30.312  44.431  55.710  1.00  0.00     0.001 A 
HETATM   20  C   UNL     1      30.502  43.288  54.936  1.00  0.00     0.000 A 
HETATM   21  C   UNL     1      29.586  42.963  53.936  1.00  0.00     0.001 A 
HETATM   22  C   UNL     1      28.479  43.783  53.709  1.00  0.00     0.009 A 
ENDBRANCH  16  17
ENDBRANCH  12  16
ENDBRANCH   7   8
ENDBRANCH   6   7
ENDBRANCH   1   6
BRANCH   2  23
HETATM   23  C   UNL     1      20.361  47.739  48.323  1.00  0.00     0.043 A 
HETATM   24  C   UNL     1      20.129  46.565  49.052  1.00  0.00     0.032 A 
HETATM   25  C   UNL     1      19.634  45.429  48.407  1.00  0.00     0.026 A 
HETATM   26  C   UNL     1      19.379  45.461  47.039  1.00  0.00     0.034 A 
HETATM   27 CL   UNL     1      18.771  44.064  46.246  1.00  0.00    -0.084 Cl
HETATM   28  C   UNL     1      19.619  46.623  46.306  1.00  0.00     0.026 A 
HETATM   29  C   UNL     1      20.111  47.765  46.945  1.00  0.00     0.032 A 
ENDBRANCH   2  23
BRANCH   3  30
HETATM   30  C   UNL     1      18.618  49.962  49.662  1.00  0.00     0.315 C 
BRANCH  30  31
HETATM   31  N   UNL     1      17.961  50.283  48.322  1.00  0.00    -0.064 N 
HETATM   32  H   UNL     1      17.974  49.384  47.809  1.00  0.00     0.280 HD
HETATM   33  C   UNL     1      16.504  50.662  48.474  1.00  0.00     0.235 C 
HETATM   34  C   UNL     1      15.876  50.835  47.099  1.00  0.00     0.028 C 
HETATM   35  C   UNL     1      16.638  51.854  46.260  1.00  0.00     0.003 C 
HETATM   36  C   UNL     1      18.113  51.485  46.160  1.00  0.00     0.028 C 
HETATM   37  C   UNL     1      18.745  51.295  47.532  1.00  0.00     0.235 C 
ENDBRANCH  30  31
ENDBRANCH   3  30
TORSDOF 8
ENDMDL
MODEL 9
REMARK VINA RESULT:      -8.7      1.655      2.028
REMARK  8 active torsions:
REMARK  status: ('A' for Active; 'I' for Inactive)
REMARK    1  A    between atoms: C_4  and  C_5 
REMARK    2  A    between atoms: C_5  and  N_6 
REMARK       I    between atoms: N_6  and  C_7 
REMARK       I    between atoms: C_7  and  N_8 
REMARK       I    between atoms: N_8  and  C_9 
REMARK    3  A    between atoms: C_9  and  C_10 
REMARK    4  A    between atoms: C_10  and  S_11 
REMARK    5  A    between atoms: S_11  and  C_12 
REMARK    6  A    between atoms: N_13  and  C_14 
REMARK    7  A    between atoms: C_21  and  C_22 
REMARK    8  A    between atoms: C_22  and  N_23 
ROOT
HETATM    1  C   UNL     1      20.681  46.468  47.753  1.00  0.00     0.196 A 
HETATM    2  N   UNL     1      21.086  47.562  48.496  1.00  0.00    -0.274 N 
HETATM    3  C   UNL     1      19.955  47.904  49.226  1.00  0.00     0.161 A 
HETATM    4  N   UNL     1      18.961  47.092  48.918  1.00  0.00    -0.132 NA
HETATM    5  N   UNL     1      19.422  46.188  48.002  1.00  0.00    -0.122 NA
ENDROOT
BRANCH   1   6
HETATM    6  S   UNL     1      21.750  45.468  46.825  1.00  0.00    -0.080 SA
BRANCH   6   7
HETATM    7  C   UNL     1      22.462  44.410  48.123  1.00  0.00     0.185 C 
BRANCH   7   8
HETATM    8  C   UNL     1      23.456  43.397  47.562  1.00  0.00     0.235 C 
HETATM    9  N   UNL     1      24.697  43.299  48.156  1.00  0.00    -0.279 N 
HETATM   10  C   UNL     1      25.223  44.039  49.192  1.00  0.00     0.323 C 
HETATM   11  H   UNL     1      25.316  42.656  47.690  1.00  0.00     0.173 HD
HETATM   12  N   UNL     1      26.543  43.738  49.419  1.00  0.00    -0.339 N 
HETATM   13  O   UNL     1      24.609  44.883  49.828  1.00  0.00    -0.247 OA
HETATM   14  H   UNL     1      26.869  42.810  49.195  1.00  0.00     0.164 HD
HETATM   15  O   UNL     1      23.214  42.651  46.607  1.00  0.00    -0.272 OA
BRANCH  12  16
HETATM   16  C   UNL     1      27.271  44.429  50.463  1.00  0.00     0.162 C 
BRANCH  16  17
HETATM   17  C   UNL     1      27.693  43.466  51.539  1.00  0.00    -0.040 A 
HETATM   18  C   UNL     1      27.813  42.096  51.259  1.00  0.00     0.009 A 
HETATM   19  C   UNL     1      28.181  41.197  52.261  1.00  0.00     0.001 A 
HETATM   20  C   UNL     1      28.429  41.657  53.553  1.00  0.00     0.000 A 
HETATM   21  C   UNL     1      28.308  43.015  53.845  1.00  0.00     0.001 A 
HETATM   22  C   UNL     1      27.940  43.915  52.844  1.00  0.00     0.009 A 
ENDBRANCH  16  17
ENDBRANCH  12  16
ENDBRANCH   7   8
ENDBRANCH   6   7
ENDBRANCH   1   6
BRANCH   2  23
HETATM   23  C   UNL     1      22.337  48.230  48.493  1.00  0.00     0.043 A 
HETATM   24  C   UNL     1      23.391  47.738  49.274  1.00  0.00     0.032 A 
HETATM   25  C   UNL     1      24.629  48.386  49.264  1.00  0.00     0.026 A 
HETATM   26  C   UNL     1      24.811  49.525  48.484  1.00  0.00     0.034 A 
HETATM   27 CL   UNL     1      26.333  50.322  48.472  1.00  0.00    -0.084 Cl
HETATM   28  C   UNL     1      23.762  50.026  47.715  1.00  0.00     0.026 A 
HETATM   29  C   UNL     1      22.521  49.381  47.717  1.00  0.00     0.032 A 
ENDBRANCH   2  23
BRANCH   3  30
HETATM   30  C   UNL     1      19.796  49.100  50.094  1.00  0.00     0.315 C 
BRANCH  30  31
HETATM   31  N   UNL     1      19.054  50.225  49.375  1.00  0.00    -0.064 N 
HETATM   32  H   UNL     1      18.878  49.851  48.428  1.00  0.00     0.280 HD
HETATM   33  C   UNL     1      17.695  50.494  49.983  1.00  0.00     0.235 C 
HETATM   34  C   UNL     1      16.956  51.526  49.143  1.00  0.00     0.028 C 
HETATM   35  C   UNL     1      17.767  52.807  48.989  1.00  0.00     0.003 C 
HETATM   36  C   UNL     1      19.151  52.512  48.424  1.00  0.00     0.028 C 
HETATM   37  C   UNL     1      19.891  51.469  49.251  1.00  0.00     0.235 C 
ENDBRANCH  30  31
ENDBRANCH   3  30
TORSDOF 8
ENDMDL
MODEL 10
REMARK VINA RESULT:      -8.7      3.299      5.414
REMARK  8 active torsions:
REMARK  status: ('A' for Active; 'I' for Inactive)
REMARK    1  A    between atoms: C_4  and  C_5 
REMARK    2  A    between atoms: C_5  and  N_6 
REMARK       I    between atoms: N_6  and  C_7 
REMARK       I    between atoms: C_7  and  N_8 
REMARK       I    between atoms: N_8  and  C_9 
REMARK    3  A    between atoms: C_9  and  C_10 
REMARK    4  A    between atoms: C_10  and  S_11 
REMARK    5  A    between atoms: S_11  and  C_12 
REMARK    6  A    between atoms: N_13  and  C_14 
REMARK    7  A    between atoms: C_21  and  C_22 
REMARK    8  A    between atoms: C_22  and  N_23 
ROOT
HETATM    1  C   UNL     1      16.783  48.548  48.154  1.00  0.00     0.196 A 
HETATM    2  N   UNL     1      17.370  49.796  48.060  1.00  0.00    -0.274 N 
HETATM    3  C   UNL     1      16.350  50.608  47.581  1.00  0.00     0.161 A 
HETATM    4  N   UNL     1      15.260  49.889  47.388  1.00  0.00    -0.132 NA
HETATM    5  N   UNL     1      15.532  48.602  47.756  1.00  0.00    -0.122 NA
ENDROOT
BRANCH   1   6
HETATM    6  S   UNL     1      17.517  47.178  48.920  1.00  0.00    -0.080 SA
BRANCH   6   7
HETATM    7  C   UNL     1      18.653  46.609  47.617  1.00  0.00     0.185 C 
BRANCH   7   8
HETATM    8  C   UNL     1      19.225  45.226  47.914  1.00  0.00     0.235 C 
HETATM    9  N   UNL     1      20.508  45.142  48.416  1.00  0.00    -0.279 N 
HETATM   10  C   UNL     1      21.413  46.152  48.654  1.00  0.00     0.323 C 
HETATM   11  H   UNL     1      20.835  44.196  48.526  1.00  0.00     0.173 HD
HETATM   12  N   UNL     1      22.639  45.664  49.031  1.00  0.00    -0.339 N 
HETATM   13  O   UNL     1      21.176  47.345  48.529  1.00  0.00    -0.247 OA
HETATM   14  H   UNL     1      22.676  44.778  49.512  1.00  0.00     0.164 HD
HETATM   15  O   UNL     1      18.605  44.172  47.738  1.00  0.00    -0.272 OA
BRANCH  12  16
HETATM   16  C   UNL     1      23.726  46.580  49.311  1.00  0.00     0.162 C 
BRANCH  16  17
HETATM   17  C   UNL     1      24.458  46.166  50.558  1.00  0.00    -0.040 A 
HETATM   18  C   UNL     1      25.241  47.094  51.263  1.00  0.00     0.009 A 
HETATM   19  C   UNL     1      25.940  46.706  52.406  1.00  0.00     0.001 A 
HETATM   20  C   UNL     1      25.869  45.389  52.855  1.00  0.00     0.000 A 
HETATM   21  C   UNL     1      25.098  44.457  52.161  1.00  0.00     0.001 A 
HETATM   22  C   UNL     1      24.398  44.843  51.017  1.00  0.00     0.009 A 
ENDBRANCH  16  17
ENDBRANCH  12  16
ENDBRANCH   7   8
ENDBRANCH   6   7
ENDBRANCH   1   6
BRANCH   2  23
HETATM   23  C   UNL     1      18.710  50.175  48.330  1.00  0.00     0.043 A 
HETATM   24  C   UNL     1      19.083  50.532  49.633  1.00  0.00     0.032 A 
HETATM   25  C   UNL     1      20.405  50.894  49.905  1.00  0.00     0.026 A 
HETATM   26  C   UNL     1      21.348  50.907  48.881  1.00  0.00     0.034 A 
HETATM   27 CL   UNL     1      22.973  51.352  49.216  1.00  0.00    -0.084 Cl
HETATM   28  C   UNL     1      20.979  50.564  47.580  1.00  0.00     0.026 A 
HETATM   29  C   UNL     1      19.659  50.198  47.300  1.00  0.00     0.032 A 
ENDBRANCH   2  23
BRANCH   3  30
HETATM   30  C   UNL     1      16.476  52.030  47.169  1.00  0.00     0.315 C 
BRANCH  30  31
HETATM   31  N   UNL     1      15.845  52.973  48.190  1.00  0.00    -0.064 N 
HETATM   32  H   UNL     1      16.486  53.783  48.221  1.00  0.00     0.280 HD
HETATM   33  C   UNL     1      14.509  53.509  47.725  1.00  0.00     0.235 C 
HETATM   34  C   UNL     1      13.999  54.542  48.719  1.00  0.00     0.028 C 
HETATM   35  C   UNL     1      13.914  53.968  50.128  1.00  0.00     0.003 C 
HETATM   36  C   UNL     1      15.254  53.386  50.562  1.00  0.00     0.028 C 
HETATM   37  C   UNL     1      15.778  52.363  49.563  1.00  0.00     0.235 C 
ENDBRANCH  30  31
ENDBRANCH   3  30
TORSDOF 8
ENDMDL
