MODEL 1
REMARK VINA RESULT:      -8.9      0.000      0.000
REMARK  3 active torsions:
REMARK  status: ('A' for Active; 'I' for Inactive)
REMARK    1  A    between atoms: C_9  and  C_10 
REMARK    2  A    between atoms: C_10  and  N_11 
REMARK    3  A    between atoms: C_15  and  N_16 
REMARK       I    between atoms: N_16  and  C_17 
REMARK       I    between atoms: C_17  and  N_18 
ROOT
HETATM    1  N   UNL     1      25.534  45.340  51.626  1.00  0.00    -0.067 N 
HETATM    2  H   UNL     1      26.402  45.035  51.173  1.00  0.00     0.280 HD
HETATM    3  C   UNL     1      24.363  44.975  50.743  1.00  0.00     0.237 C 
HETATM    4  C   UNL     1      24.511  45.642  49.383  1.00  0.00     0.053 C 
HETATM    5  C   UNL     1      24.598  47.166  49.507  1.00  0.00     0.089 C 
HETATM    6  C   UNL     1      25.730  47.538  50.470  1.00  0.00     0.053 C 
HETATM    7  C   UNL     1      25.630  46.842  51.819  1.00  0.00     0.237 C 
ENDROOT
BRANCH   1   8
HETATM    8  C   UNL     1      25.467  44.650  52.976  1.00  0.00     0.271 C 
BRANCH   8   9
HETATM    9  C   UNL     1      26.776  44.482  53.691  1.00  0.00    -0.029 C 
HETATM   10  C   UNL     1      27.518  43.204  53.351  1.00  0.00     0.211 C 
HETATM   11  O   UNL     1      28.920  43.201  53.642  1.00  0.00    -0.346 OA
HETATM   12  C   UNL     1      29.309  43.931  54.729  1.00  0.00     0.079 A 
HETATM   13  C   UNL     1      28.546  44.983  55.243  1.00  0.00    -0.001 A 
HETATM   14  C   UNL     1      30.549  43.613  55.284  1.00  0.00     0.039 A 
HETATM   15  C   UNL     1      29.028  45.710  56.336  1.00  0.00     0.038 A 
HETATM   16  C   UNL     1      27.277  45.329  54.608  1.00  0.00     0.021 C 
HETATM   17  C   UNL     1      30.262  45.377  56.901  1.00  0.00     0.035 A 
HETATM   18  C   UNL     1      31.025  44.334  56.379  1.00  0.00     0.026 A 
HETATM   19 CL   UNL     1      30.847  46.273  58.248  1.00  0.00    -0.084 Cl
ENDBRANCH   8   9
ENDBRANCH   1   8
BRANCH   5  20
HETATM   20  N   UNL     1      23.267  47.718  49.770  1.00  0.00    -0.339 N 
HETATM   21  C   UNL     1      22.318  48.067  48.860  1.00  0.00     0.314 C 
HETATM   22  N   UNL     1      21.154  48.450  49.436  1.00  0.00    -0.352 N 
HETATM   23  O   UNL     1      22.479  48.133  47.652  1.00  0.00    -0.248 OA
HETATM   24  H   UNL     1      20.830  47.975  50.267  1.00  0.00     0.160 HD
HETATM   25  H   UNL     1      20.416  48.656  48.772  1.00  0.00     0.160 HD
HETATM   26  H   UNL     1      22.915  47.609  50.713  1.00  0.00     0.164 HD
ENDBRANCH   5  20
TORSDOF 3
ENDMDL
MODEL 2
REMARK VINA RESULT:      -8.2      2.703      3.188
REMARK  3 active torsions:
REMARK  status: ('A' for Active; 'I' for Inactive)
REMARK    1  A    between atoms: C_9  and  C_10 
REMARK    2  A    between atoms: C_10  and  N_11 
REMARK    3  A    between atoms: C_15  and  N_16 
REMARK       I    between atoms: N_16  and  C_17 
REMARK       I    between atoms: C_17  and  N_18 
ROOT
HETATM    1  N   UNL     1      26.334  45.179  52.117  1.00  0.00    -0.067 N 
HETATM    2  H   UNL     1      27.097  44.534  52.350  1.00  0.00     0.280 HD
HETATM    3  C   UNL     1      25.014  44.462  52.284  1.00  0.00     0.237 C 
HETATM    4  C   UNL     1      24.969  43.241  51.375  1.00  0.00     0.053 C 
HETATM    5  C   UNL     1      25.157  43.624  49.904  1.00  0.00     0.089 C 
HETATM    6  C   UNL     1      26.453  44.426  49.745  1.00  0.00     0.053 C 
HETATM    7  C   UNL     1      26.542  45.623  50.682  1.00  0.00     0.237 C 
ENDROOT
BRANCH   1   8
HETATM    8  C   UNL     1      26.456  46.371  53.048  1.00  0.00     0.271 C 
BRANCH   8   9
HETATM    9  C   UNL     1      27.370  46.191  54.226  1.00  0.00    -0.029 C 
HETATM   10  C   UNL     1      27.297  47.304  55.253  1.00  0.00     0.211 C 
HETATM   11  O   UNL     1      27.787  46.980  56.558  1.00  0.00    -0.346 OA
HETATM   12  C   UNL     1      28.825  46.093  56.607  1.00  0.00     0.079 A 
HETATM   13  C   UNL     1      29.092  45.190  55.575  1.00  0.00    -0.001 A 
HETATM   14  C   UNL     1      29.589  46.088  57.775  1.00  0.00     0.039 A 
HETATM   15  C   UNL     1      30.150  44.284  55.713  1.00  0.00     0.038 A 
HETATM   16  C   UNL     1      28.243  45.181  54.387  1.00  0.00     0.021 C 
HETATM   17  C   UNL     1      30.924  44.295  56.876  1.00  0.00     0.035 A 
HETATM   18  C   UNL     1      30.647  45.190  57.908  1.00  0.00     0.026 A 
HETATM   19 CL   UNL     1      32.226  43.181  57.038  1.00  0.00    -0.084 Cl
ENDBRANCH   8   9
ENDBRANCH   1   8
BRANCH   5  20
HETATM   20  N   UNL     1      23.921  44.210  49.383  1.00  0.00    -0.339 N 
HETATM   21  C   UNL     1      22.733  43.584  49.162  1.00  0.00     0.314 C 
HETATM   22  N   UNL     1      21.756  44.436  48.772  1.00  0.00    -0.352 N 
HETATM   23  O   UNL     1      22.543  42.380  49.208  1.00  0.00    -0.248 OA
HETATM   24  H   UNL     1      21.710  45.361  49.176  1.00  0.00     0.160 HD
HETATM   25  H   UNL     1      20.849  43.996  48.661  1.00  0.00     0.160 HD
HETATM   26  H   UNL     1      23.856  45.220  49.414  1.00  0.00     0.164 HD
ENDBRANCH   5  20
TORSDOF 3
ENDMDL
MODEL 3
REMARK VINA RESULT:      -8.0      3.543      5.142
REMARK  3 active torsions:
REMARK  status: ('A' for Active; 'I' for Inactive)
REMARK    1  A    between atoms: C_9  and  C_10 
REMARK    2  A    between atoms: C_10  and  N_11 
REMARK    3  A    between atoms: C_15  and  N_16 
REMARK       I    between atoms: N_16  and  C_17 
REMARK       I    between atoms: C_17  and  N_18 
ROOT
HETATM    1  N   UNL     1      22.032  46.429  47.992  1.00  0.00    -0.067 N 
HETATM    2  H   UNL     1      21.983  46.684  46.999  1.00  0.00     0.280 HD
HETATM    3  C   UNL     1      20.730  45.775  48.396  1.00  0.00     0.237 C 
HETATM    4  C   UNL     1      19.572  46.733  48.154  1.00  0.00     0.053 C 
HETATM    5  C   UNL     1      19.747  48.041  48.932  1.00  0.00     0.089 C 
HETATM    6  C   UNL     1      21.105  48.663  48.589  1.00  0.00     0.053 C 
HETATM    7  C   UNL     1      22.273  47.705  48.774  1.00  0.00     0.237 C 
ENDROOT
BRANCH   1   8
HETATM    8  C   UNL     1      23.214  45.492  48.155  1.00  0.00     0.271 C 
BRANCH   8   9
HETATM    9  C   UNL     1      23.762  45.366  49.547  1.00  0.00    -0.029 C 
HETATM   10  C   UNL     1      23.312  44.122  50.289  1.00  0.00     0.211 C 
HETATM   11  O   UNL     1      24.123  43.733  51.402  1.00  0.00    -0.346 OA
HETATM   12  C   UNL     1      24.714  44.749  52.098  1.00  0.00     0.079 A 
HETATM   13  C   UNL     1      24.946  46.009  51.541  1.00  0.00    -0.001 A 
HETATM   14  C   UNL     1      25.135  44.455  53.396  1.00  0.00     0.039 A 
HETATM   15  C   UNL     1      25.592  46.988  52.304  1.00  0.00     0.038 A 
HETATM   16  C   UNL     1      24.544  46.271  50.162  1.00  0.00     0.021 C 
HETATM   17  C   UNL     1      25.995  46.697  53.609  1.00  0.00     0.035 A 
HETATM   18  C   UNL     1      25.772  45.435  54.158  1.00  0.00     0.026 A 
HETATM   19 CL   UNL     1      26.785  47.907  54.542  1.00  0.00    -0.084 Cl
ENDBRANCH   8   9
ENDBRANCH   1   8
BRANCH   5  20
HETATM   20  N   UNL     1      19.433  47.822  50.345  1.00  0.00    -0.339 N 
HETATM   21  C   UNL     1      18.771  48.660  51.188  1.00  0.00     0.314 C 
HETATM   22  N   UNL     1      18.554  48.114  52.407  1.00  0.00    -0.352 N 
HETATM   23  O   UNL     1      18.469  49.819  50.949  1.00  0.00    -0.248 OA
HETATM   24  H   UNL     1      18.329  47.132  52.481  1.00  0.00     0.160 HD
HETATM   25  H   UNL     1      18.009  48.702  53.029  1.00  0.00     0.160 HD
HETATM   26  H   UNL     1      19.492  46.867  50.675  1.00  0.00     0.164 HD
ENDBRANCH   5  20
TORSDOF 3
ENDMDL
MODEL 4
REMARK VINA RESULT:      -8.0      1.216      1.473
REMARK  3 active torsions:
REMARK  status: ('A' for Active; 'I' for Inactive)
REMARK    1  A    between atoms: C_9  and  C_10 
REMARK    2  A    between atoms: C_10  and  N_11 
REMARK    3  A    between atoms: C_15  and  N_16 
REMARK       I    between atoms: N_16  and  C_17 
REMARK       I    between atoms: C_17  and  N_18 
ROOT
HETATM    1  N   UNL     1      24.854  45.231  50.769  1.00  0.00    -0.067 N 
HETATM    2  H   UNL     1      25.649  44.990  50.169  1.00  0.00     0.280 HD
HETATM    3  C   UNL     1      23.574  45.066  49.981  1.00  0.00     0.237 C 
HETATM    4  C   UNL     1      23.600  45.967  48.755  1.00  0.00     0.053 C 
HETATM    5  C   UNL     1      23.774  47.439  49.139  1.00  0.00     0.089 C 
HETATM    6  C   UNL     1      25.024  47.598  50.011  1.00  0.00     0.053 C 
HETATM    7  C   UNL     1      25.043  46.668  51.215  1.00  0.00     0.237 C 
ENDROOT
BRANCH   1   8
HETATM    8  C   UNL     1      24.906  44.306  51.972  1.00  0.00     0.271 C 
BRANCH   8   9
HETATM    9  C   UNL     1      26.278  43.977  52.485  1.00  0.00    -0.029 C 
HETATM   10  C   UNL     1      26.947  42.810  51.783  1.00  0.00     0.211 C 
HETATM   11  O   UNL     1      28.370  42.739  51.912  1.00  0.00    -0.346 OA
HETATM   12  C   UNL     1      28.889  43.197  53.090  1.00  0.00     0.079 A 
HETATM   13  C   UNL     1      28.212  44.103  53.910  1.00  0.00    -0.001 A 
HETATM   14  C   UNL     1      30.172  42.757  53.420  1.00  0.00     0.039 A 
HETATM   15  C   UNL     1      28.825  44.557  55.083  1.00  0.00     0.038 A 
HETATM   16  C   UNL     1      26.893  44.587  53.512  1.00  0.00     0.021 C 
HETATM   17  C   UNL     1      30.101  44.100  55.420  1.00  0.00     0.035 A 
HETATM   18  C   UNL     1      30.778  43.205  54.594  1.00  0.00     0.026 A 
HETATM   19 CL   UNL     1      30.847  44.660  56.866  1.00  0.00    -0.084 Cl
ENDBRANCH   8   9
ENDBRANCH   1   8
BRANCH   5  20
HETATM   20  N   UNL     1      22.509  47.969  49.654  1.00  0.00    -0.339 N 
HETATM   21  C   UNL     1      21.417  48.352  48.939  1.00  0.00     0.314 C 
HETATM   22  N   UNL     1      20.371  48.700  49.725  1.00  0.00    -0.352 N 
HETATM   23  O   UNL     1      21.366  48.474  47.725  1.00  0.00    -0.248 OA
HETATM   24  H   UNL     1      20.195  48.186  50.577  1.00  0.00     0.160 HD
HETATM   25  H   UNL     1      19.529  48.931  49.209  1.00  0.00     0.160 HD
HETATM   26  H   UNL     1      22.326  47.815  50.637  1.00  0.00     0.164 HD
ENDBRANCH   5  20
TORSDOF 3
ENDMDL
MODEL 5
REMARK VINA RESULT:      -8.0      2.566      3.322
REMARK  3 active torsions:
REMARK  status: ('A' for Active; 'I' for Inactive)
REMARK    1  A    between atoms: C_9  and  C_10 
REMARK    2  A    between atoms: C_10  and  N_11 
REMARK    3  A    between atoms: C_15  and  N_16 
REMARK       I    between atoms: N_16  and  C_17 
REMARK       I    between atoms: C_17  and  N_18 
ROOT
HETATM    1  N   UNL     1      25.852  43.643  51.046  1.00  0.00    -0.067 N 
HETATM    2  H   UNL     1      25.541  44.309  51.762  1.00  0.00     0.280 HD
HETATM    3  C   UNL     1      26.288  44.409  49.818  1.00  0.00     0.237 C 
HETATM    4  C   UNL     1      25.131  45.247  49.292  1.00  0.00     0.053 C 
HETATM    5  C   UNL     1      23.916  44.382  48.946  1.00  0.00     0.089 C 
HETATM    6  C   UNL     1      23.524  43.539  50.164  1.00  0.00     0.053 C 
HETATM    7  C   UNL     1      24.679  42.732  50.739  1.00  0.00     0.237 C 
ENDROOT
BRANCH   1   8
HETATM    8  C   UNL     1      26.988  42.837  51.648  1.00  0.00     0.271 C 
BRANCH   8   9
HETATM    9  C   UNL     1      27.695  43.471  52.811  1.00  0.00    -0.029 C 
HETATM   10  C   UNL     1      27.287  44.905  53.089  1.00  0.00     0.211 C 
HETATM   11  O   UNL     1      27.578  45.392  54.402  1.00  0.00    -0.346 OA
HETATM   12  C   UNL     1      28.704  44.893  54.992  1.00  0.00     0.079 A 
HETATM   13  C   UNL     1      29.273  43.673  54.616  1.00  0.00    -0.001 A 
HETATM   14  C   UNL     1      29.242  45.636  56.043  1.00  0.00     0.039 A 
HETATM   15  C   UNL     1      30.406  43.207  55.293  1.00  0.00     0.038 A 
HETATM   16  C   UNL     1      28.657  42.889  53.549  1.00  0.00     0.021 C 
HETATM   17  C   UNL     1      30.953  43.964  56.332  1.00  0.00     0.035 A 
HETATM   18  C   UNL     1      30.375  45.174  56.712  1.00  0.00     0.026 A 
HETATM   19 CL   UNL     1      32.347  43.386  57.158  1.00  0.00    -0.084 Cl
ENDBRANCH   8   9
ENDBRANCH   1   8
BRANCH   5  20
HETATM   20  N   UNL     1      24.150  43.686  47.679  1.00  0.00    -0.339 N 
HETATM   21  C   UNL     1      23.270  43.504  46.657  1.00  0.00     0.314 C 
HETATM   22  N   UNL     1      23.833  42.905  45.581  1.00  0.00    -0.352 N 
HETATM   23  O   UNL     1      22.076  43.753  46.692  1.00  0.00    -0.248 OA
HETATM   24  H   UNL     1      24.783  43.134  45.324  1.00  0.00     0.160 HD
HETATM   25  H   UNL     1      23.208  42.817  44.787  1.00  0.00     0.160 HD
HETATM   26  H   UNL     1      25.117  43.531  47.424  1.00  0.00     0.164 HD
ENDBRANCH   5  20
TORSDOF 3
ENDMDL
MODEL 6
REMARK VINA RESULT:      -8.0      5.137      7.111
REMARK  3 active torsions:
REMARK  status: ('A' for Active; 'I' for Inactive)
REMARK    1  A    between atoms: C_9  and  C_10 
REMARK    2  A    between atoms: C_10  and  N_11 
REMARK    3  A    between atoms: C_15  and  N_16 
REMARK       I    between atoms: N_16  and  C_17 
REMARK       I    between atoms: C_17  and  N_18 
ROOT
HETATM    1  N   UNL     1      28.556  40.521  50.766  1.00  0.00    -0.067 N 
HETATM    2  H   UNL     1      29.420  41.070  50.837  1.00  0.00     0.280 HD
HETATM    3  C   UNL     1      28.841  39.098  51.190  1.00  0.00     0.237 C 
HETATM    4  C   UNL     1      29.921  38.499  50.300  1.00  0.00     0.053 C 
HETATM    5  C   UNL     1      29.512  38.517  48.824  1.00  0.00     0.089 C 
HETATM    6  C   UNL     1      29.139  39.946  48.414  1.00  0.00     0.053 C 
HETATM    7  C   UNL     1      28.099  40.584  49.322  1.00  0.00     0.237 C 
ENDROOT
BRANCH   1   8
HETATM    8  C   UNL     1      27.529  41.187  51.663  1.00  0.00     0.271 C 
BRANCH   8   9
HETATM    9  C   UNL     1      28.067  42.193  52.639  1.00  0.00    -0.029 C 
HETATM   10  C   UNL     1      27.586  43.613  52.406  1.00  0.00     0.211 C 
HETATM   11  O   UNL     1      27.698  44.500  53.524  1.00  0.00    -0.346 OA
HETATM   12  C   UNL     1      28.755  44.282  54.360  1.00  0.00     0.079 A 
HETATM   13  C   UNL     1      29.402  43.046  54.450  1.00  0.00    -0.001 A 
HETATM   14  C   UNL     1      29.137  45.347  55.177  1.00  0.00     0.039 A 
HETATM   15  C   UNL     1      30.455  42.887  55.358  1.00  0.00     0.038 A 
HETATM   16  C   UNL     1      28.947  41.933  53.622  1.00  0.00     0.021 C 
HETATM   17  C   UNL     1      30.846  43.962  56.161  1.00  0.00     0.035 A 
HETATM   18  C   UNL     1      30.191  45.189  56.076  1.00  0.00     0.026 A 
HETATM   19 CL   UNL     1      32.143  43.760  57.273  1.00  0.00    -0.084 Cl
ENDBRANCH   8   9
ENDBRANCH   1   8
BRANCH   5  20
HETATM   20  N   UNL     1      28.537  37.455  48.567  1.00  0.00    -0.339 N 
HETATM   21  C   UNL     1      28.094  37.008  47.361  1.00  0.00     0.314 C 
HETATM   22  N   UNL     1      27.268  35.942  47.468  1.00  0.00    -0.352 N 
HETATM   23  O   UNL     1      28.316  37.532  46.281  1.00  0.00    -0.248 OA
HETATM   24  H   UNL     1      27.449  35.239  48.171  1.00  0.00     0.160 HD
HETATM   25  H   UNL     1      26.976  35.557  46.575  1.00  0.00     0.160 HD
HETATM   26  H   UNL     1      28.348  36.825  49.336  1.00  0.00     0.164 HD
ENDBRANCH   5  20
TORSDOF 3
ENDMDL
MODEL 7
REMARK VINA RESULT:      -7.9      1.984      2.420
REMARK  3 active torsions:
REMARK  status: ('A' for Active; 'I' for Inactive)
REMARK    1  A    between atoms: C_9  and  C_10 
REMARK    2  A    between atoms: C_10  and  N_11 
REMARK    3  A    between atoms: C_15  and  N_16 
REMARK       I    between atoms: N_16  and  C_17 
REMARK       I    between atoms: C_17  and  N_18 
ROOT
HETATM    1  N   UNL     1      26.720  44.306  51.291  1.00  0.00    -0.067 N 
HETATM    2  H   UNL     1      26.861  45.005  52.029  1.00  0.00     0.280 HD
HETATM    3  C   UNL     1      26.907  44.968  49.945  1.00  0.00     0.237 C 
HETATM    4  C   UNL     1      25.914  46.110  49.786  1.00  0.00     0.053 C 
HETATM    5  C   UNL     1      24.468  45.624  49.917  1.00  0.00     0.089 C 
HETATM    6  C   UNL     1      24.296  44.877  51.244  1.00  0.00     0.053 C 
HETATM    7  C   UNL     1      25.313  43.764  51.447  1.00  0.00     0.237 C 
ENDROOT
BRANCH   1   8
HETATM    8  C   UNL     1      27.730  43.198  51.527  1.00  0.00     0.271 C 
BRANCH   8   9
HETATM    9  C   UNL     1      28.584  43.340  52.753  1.00  0.00    -0.029 C 
HETATM   10  C   UNL     1      29.527  42.179  53.000  1.00  0.00     0.211 C 
HETATM   11  O   UNL     1      30.637  42.450  53.861  1.00  0.00    -0.346 OA
HETATM   12  C   UNL     1      30.415  43.352  54.862  1.00  0.00     0.079 A 
HETATM   13  C   UNL     1      29.397  44.309  54.800  1.00  0.00    -0.001 A 
HETATM   14  C   UNL     1      31.295  43.317  55.944  1.00  0.00     0.039 A 
HETATM   15  C   UNL     1      29.254  45.226  55.847  1.00  0.00     0.038 A 
HETATM   16  C   UNL     1      28.524  44.358  53.631  1.00  0.00     0.021 C 
HETATM   17  C   UNL     1      30.126  45.176  56.938  1.00  0.00     0.035 A 
HETATM   18  C   UNL     1      31.147  44.228  56.990  1.00  0.00     0.026 A 
HETATM   19 CL   UNL     1      29.942  46.305  58.222  1.00  0.00    -0.084 Cl
ENDBRANCH   8   9
ENDBRANCH   1   8
BRANCH   5  20
HETATM   20  N   UNL     1      24.063  44.937  48.688  1.00  0.00    -0.339 N 
HETATM   21  C   UNL     1      22.798  44.670  48.264  1.00  0.00     0.314 C 
HETATM   22  N   UNL     1      22.766  44.111  47.031  1.00  0.00    -0.352 N 
HETATM   23  O   UNL     1      21.780  44.815  48.922  1.00  0.00    -0.248 OA
HETATM   24  H   UNL     1      23.422  44.418  46.327  1.00  0.00     0.160 HD
HETATM   25  H   UNL     1      21.828  43.960  46.674  1.00  0.00     0.160 HD
HETATM   26  H   UNL     1      24.766  44.864  47.964  1.00  0.00     0.164 HD
ENDBRANCH   5  20
TORSDOF 3
ENDMDL
MODEL 8
REMARK VINA RESULT:      -7.7      6.560      9.893
REMARK  3 active torsions:
REMARK  status: ('A' for Active; 'I' for Inactive)
REMARK    1  A    between atoms: C_9  and  C_10 
REMARK    2  A    between atoms: C_10  and  N_11 
REMARK    3  A    between atoms: C_15  and  N_16 
REMARK       I    between atoms: N_16  and  C_17 
REMARK       I    between atoms: C_17  and  N_18 
ROOT
HETATM    1  N   UNL     1      18.646  50.942  48.366  1.00  0.00    -0.067 N 
HETATM    2  H   UNL     1      18.840  50.362  49.189  1.00  0.00     0.280 HD
HETATM    3  C   UNL     1      18.562  52.391  48.793  1.00  0.00     0.237 C 
HETATM    4  C   UNL     1      17.461  52.561  49.830  1.00  0.00     0.053 C 
HETATM    5  C   UNL     1      16.101  52.111  49.291  1.00  0.00     0.089 C 
HETATM    6  C   UNL     1      16.204  50.671  48.778  1.00  0.00     0.053 C 
HETATM    7  C   UNL     1      17.332  50.465  47.777  1.00  0.00     0.237 C 
ENDROOT
BRANCH   1   8
HETATM    8  C   UNL     1      19.772  50.705  47.376  1.00  0.00     0.271 C 
BRANCH   8   9
HETATM    9  C   UNL     1      20.994  50.028  47.925  1.00  0.00    -0.029 C 
HETATM   10  C   UNL     1      20.704  48.917  48.915  1.00  0.00     0.211 C 
HETATM   11  O   UNL     1      21.761  47.974  49.120  1.00  0.00    -0.346 OA
HETATM   12  C   UNL     1      23.032  48.465  49.021  1.00  0.00     0.079 A 
HETATM   13  C   UNL     1      23.335  49.631  48.311  1.00  0.00    -0.001 A 
HETATM   14  C   UNL     1      24.042  47.714  49.622  1.00  0.00     0.039 A 
HETATM   15  C   UNL     1      24.667  50.052  48.221  1.00  0.00     0.038 A 
HETATM   16  C   UNL     1      22.265  50.368  47.646  1.00  0.00     0.021 C 
HETATM   17  C   UNL     1      25.673  49.306  48.840  1.00  0.00     0.035 A 
HETATM   18  C   UNL     1      25.368  48.139  49.537  1.00  0.00     0.026 A 
HETATM   19 CL   UNL     1      27.308  49.832  48.728  1.00  0.00    -0.084 Cl
ENDBRANCH   8   9
ENDBRANCH   1   8
BRANCH   5  20
HETATM   20  N   UNL     1      15.569  53.126  48.379  1.00  0.00    -0.339 N 
HETATM   21  C   UNL     1      14.491  53.934  48.572  1.00  0.00     0.314 C 
HETATM   22  N   UNL     1      14.327  54.836  47.577  1.00  0.00    -0.352 N 
HETATM   23  O   UNL     1      13.680  53.834  49.479  1.00  0.00    -0.248 OA
HETATM   24  H   UNL     1      15.138  55.261  47.150  1.00  0.00     0.160 HD
HETATM   25  H   UNL     1      13.564  55.486  47.735  1.00  0.00     0.160 HD
HETATM   26  H   UNL     1      16.189  53.434  47.641  1.00  0.00     0.164 HD
ENDBRANCH   5  20
TORSDOF 3
ENDMDL
MODEL 9
REMARK VINA RESULT:      -7.6      4.061      8.729
REMARK  3 active torsions:
REMARK  status: ('A' for Active; 'I' for Inactive)
REMARK    1  A    between atoms: C_9  and  C_10 
REMARK    2  A    between atoms: C_10  and  N_11 
REMARK    3  A    between atoms: C_15  and  N_16 
REMARK       I    between atoms: N_16  and  C_17 
REMARK       I    between atoms: C_17  and  N_18 
ROOT
HETATM    1  N   UNL     1      26.013  45.720  51.983  1.00  0.00    -0.067 N 
HETATM    2  H   UNL     1      25.006  45.560  52.096  1.00  0.00     0.280 HD
HETATM    3  C   UNL     1      26.762  44.501  52.473  1.00  0.00     0.237 C 
HETATM    4  C   UNL     1      26.429  44.241  53.935  1.00  0.00     0.053 C 
HETATM    5  C   UNL     1      26.782  45.441  54.818  1.00  0.00     0.089 C 
HETATM    6  C   UNL     1      26.092  46.697  54.273  1.00  0.00     0.053 C 
HETATM    7  C   UNL     1      26.369  46.948  52.798  1.00  0.00     0.237 C 
ENDROOT
BRANCH   1   8
HETATM    8  C   UNL     1      26.262  45.987  50.510  1.00  0.00     0.271 C 
BRANCH   8   9
HETATM    9  C   UNL     1      25.494  47.131  49.915  1.00  0.00    -0.029 C 
HETATM   10  C   UNL     1      26.341  48.336  49.554  1.00  0.00     0.211 C 
HETATM   11  O   UNL     1      25.765  49.242  48.608  1.00  0.00    -0.346 OA
HETATM   12  C   UNL     1      24.406  49.371  48.650  1.00  0.00     0.079 A 
HETATM   13  C   UNL     1      23.573  48.388  49.191  1.00  0.00    -0.001 A 
HETATM   14  C   UNL     1      23.868  50.521  48.071  1.00  0.00     0.039 A 
HETATM   15  C   UNL     1      22.187  48.573  49.165  1.00  0.00     0.038 A 
HETATM   16  C   UNL     1      24.161  47.169  49.742  1.00  0.00     0.021 C 
HETATM   17  C   UNL     1      21.652  49.734  48.601  1.00  0.00     0.035 A 
HETATM   18  C   UNL     1      22.486  50.707  48.052  1.00  0.00     0.026 A 
HETATM   19 CL   UNL     1      19.947  49.956  48.574  1.00  0.00    -0.084 Cl
ENDBRANCH   8   9
ENDBRANCH   1   8
BRANCH   5  20
HETATM   20  N   UNL     1      28.230  45.493  55.028  1.00  0.00    -0.339 N 
HETATM   21  C   UNL     1      28.892  45.865  56.157  1.00  0.00     0.314 C 
HETATM   22  N   UNL     1      30.232  45.702  56.056  1.00  0.00    -0.352 N 
HETATM   23  O   UNL     1      28.388  46.380  57.142  1.00  0.00    -0.248 OA
HETATM   24  H   UNL     1      30.602  44.904  55.559  1.00  0.00     0.160 HD
HETATM   25  H   UNL     1      30.737  45.917  56.910  1.00  0.00     0.160 HD
HETATM   26  H   UNL     1      28.798  44.978  54.366  1.00  0.00     0.164 HD
ENDBRANCH   5  20
TORSDOF 3
ENDMDL
MODEL 10
REMARK VINA RESULT:      -7.6      4.375      5.477
REMARK  3 active torsions:
REMARK  status: ('A' for Active; 'I' for Inactive)
REMARK    1  A    between atoms: C_9  and  C_10 
REMARK    2  A    between atoms: C_10  and  N_11 
REMARK    3  A    between atoms: C_15  and  N_16 
REMARK       I    between atoms: N_16  and  C_17 
REMARK       I    between atoms: C_17  and  N_18 
ROOT
HETATM    1  N   UNL     1      27.512  41.497  50.331  1.00  0.00    -0.067 N 
HETATM    2  H   UNL     1      27.637  42.505  50.186  1.00  0.00     0.280 HD
HETATM    3  C   UNL     1      27.885  40.767  49.061  1.00  0.00     0.237 C 
HETATM    4  C   UNL     1      27.009  41.247  47.912  1.00  0.00     0.053 C 
HETATM    5  C   UNL     1      25.522  41.030  48.205  1.00  0.00     0.089 C 
HETATM    6  C   UNL     1      25.160  41.696  49.537  1.00  0.00     0.053 C 
HETATM    7  C   UNL     1      26.056  41.270  50.690  1.00  0.00     0.237 C 
ENDROOT
BRANCH   1   8
HETATM    8  C   UNL     1      28.399  41.101  51.497  1.00  0.00     0.271 C 
BRANCH   8   9
HETATM    9  C   UNL     1      28.671  42.177  52.508  1.00  0.00    -0.029 C 
HETATM   10  C   UNL     1      28.096  43.534  52.151  1.00  0.00     0.211 C 
HETATM   11  O   UNL     1      27.939  44.450  53.238  1.00  0.00    -0.346 OA
HETATM   12  C   UNL     1      28.865  44.360  54.238  1.00  0.00     0.079 A 
HETATM   13  C   UNL     1      29.608  43.199  54.474  1.00  0.00    -0.001 A 
HETATM   14  C   UNL     1      29.004  45.475  55.065  1.00  0.00     0.039 A 
HETATM   15  C   UNL     1      30.511  43.169  55.542  1.00  0.00     0.038 A 
HETATM   16  C   UNL     1      29.403  42.028  53.626  1.00  0.00     0.021 C 
HETATM   17  C   UNL     1      30.661  44.294  56.357  1.00  0.00     0.035 A 
HETATM   18  C   UNL     1      29.910  45.445  56.125  1.00  0.00     0.026 A 
HETATM   19 CL   UNL     1      31.776  44.250  57.666  1.00  0.00    -0.084 Cl
ENDBRANCH   8   9
ENDBRANCH   1   8
BRANCH   5  20
HETATM   20  N   UNL     1      25.185  39.615  48.034  1.00  0.00    -0.339 N 
HETATM   21  C   UNL     1      24.939  38.955  46.870  1.00  0.00     0.314 C 
HETATM   22  N   UNL     1      24.758  37.625  47.049  1.00  0.00    -0.352 N 
HETATM   23  O   UNL     1      24.795  39.472  45.774  1.00  0.00    -0.248 OA
HETATM   24  H   UNL     1      25.313  37.135  47.737  1.00  0.00     0.160 HD
HETATM   25  H   UNL     1      24.633  37.108  46.186  1.00  0.00     0.160 HD
HETATM   26  H   UNL     1      25.388  39.008  48.818  1.00  0.00     0.164 HD
ENDBRANCH   5  20
TORSDOF 3
ENDMDL
