MODEL 1
REMARK VINA RESULT:      -8.2      0.000      0.000
REMARK  9 active torsions:
REMARK  status: ('A' for Active; 'I' for Inactive)
REMARK    1  A    between atoms: C_4  and  C_5 
REMARK    2  A    between atoms: C_7  and  N_8 
REMARK       I    between atoms: N_8  and  C_9 
REMARK    3  A    between atoms: C_9  and  C_10 
REMARK    4  A    between atoms: C_10  and  O_11 
REMARK    5  A    between atoms: C_18  and  C_19 
REMARK    6  A    between atoms: C_19  and  N_20 
REMARK       I    between atoms: N_20  and  C_21 
REMARK    7  A    between atoms: C_21  and  C_22 
REMARK    8  A    between atoms: C_24  and  C_25 
REMARK    9  A    between atoms: C_25  and  O_26 
ROOT
HETATM    1  C   UNL     1      27.216  48.590  49.520  1.00  0.00     0.079 C 
HETATM    2  C   UNL     1      25.814  48.137  49.536  1.00  0.00     0.078 A 
HETATM    3  O   UNL     1      24.859  49.041  49.168  1.00  0.00    -0.294 OA
HETATM    4  C   UNL     1      23.677  48.359  49.288  1.00  0.00     0.180 A 
HETATM    5  N   UNL     1      23.817  47.103  49.672  1.00  0.00    -0.224 NA
HETATM    6  C   UNL     1      25.177  46.960  49.869  1.00  0.00     0.084 A 
ENDROOT
BRANCH   4   7
HETATM    7  C   UNL     1      22.453  49.107  49.013  1.00  0.00     0.019 A 
HETATM    8  C   UNL     1      21.236  48.457  48.739  1.00  0.00     0.045 A 
HETATM    9  C   UNL     1      20.088  49.186  48.412  1.00  0.00     0.035 A 
HETATM   10  C   UNL     1      20.155  50.584  48.386  1.00  0.00     0.029 A 
HETATM   11  C   UNL     1      21.351  51.244  48.668  1.00  0.00     0.003 A 
HETATM   12  C   UNL     1      22.495  50.508  48.972  1.00  0.00     0.016 A 
BRANCH   9  13
HETATM   13  N   UNL     1      18.855  48.599  48.075  1.00  0.00    -0.325 N 
HETATM   14  C   UNL     1      17.896  48.071  48.922  1.00  0.00     0.245 C 
HETATM   15  O   UNL     1      17.905  48.078  50.148  1.00  0.00    -0.271 OA
HETATM   16  H   UNL     1      18.646  48.491  47.085  1.00  0.00     0.169 HD
BRANCH  14  17
HETATM   17  C   UNL     1      16.719  47.473  48.140  1.00  0.00     0.270 C 
BRANCH  17  18
HETATM   18  O   UNL     1      15.499  48.193  48.322  1.00  0.00    -0.387 OA
HETATM   19  C   UNL     1      15.134  48.922  47.152  1.00  0.00     0.202 C 
ENDBRANCH  17  18
ENDBRANCH  14  17
ENDBRANCH   9  13
ENDBRANCH   4   7
BRANCH   6  20
HETATM   20  C   UNL     1      25.752  45.701  50.405  1.00  0.00     0.185 C 
BRANCH  20  21
HETATM   21  N   UNL     1      26.514  45.982  51.596  1.00  0.00    -0.351 N 
HETATM   22  C   UNL     1      26.574  45.110  52.659  1.00  0.00     0.258 C 
HETATM   23  O   UNL     1      25.940  44.056  52.656  1.00  0.00    -0.267 OA
HETATM   24  H   UNL     1      26.963  46.884  51.677  1.00  0.00     0.163 HD
BRANCH  22  25
HETATM   25  C   UNL     1      27.440  45.504  53.762  1.00  0.00     0.073 A 
HETATM   26  S   UNL     1      28.667  44.483  54.385  1.00  0.00    -0.087 SA
HETATM   27  C   UNL     1      29.095  45.602  55.607  1.00  0.00     0.007 A 
HETATM   28  C   UNL     1      28.335  46.751  55.523  1.00  0.00     0.018 A 
HETATM   29  C   UNL     1      27.387  46.696  54.463  1.00  0.00     0.026 A 
BRANCH  27  30
HETATM   30  C   UNL     1      30.171  45.277  56.594  1.00  0.00     0.213 C 
BRANCH  30  31
HETATM   31  O   UNL     1      30.732  44.031  56.189  1.00  0.00    -0.391 OA
HETATM   32  C   UNL     1      31.725  43.582  57.099  1.00  0.00     0.201 C 
ENDBRANCH  30  31
ENDBRANCH  27  30
ENDBRANCH  22  25
ENDBRANCH  20  21
ENDBRANCH   6  20
TORSDOF 9
ENDMDL
MODEL 2
REMARK VINA RESULT:      -7.9      3.280     10.643
REMARK  9 active torsions:
REMARK  status: ('A' for Active; 'I' for Inactive)
REMARK    1  A    between atoms: C_4  and  C_5 
REMARK    2  A    between atoms: C_7  and  N_8 
REMARK       I    between atoms: N_8  and  C_9 
REMARK    3  A    between atoms: C_9  and  C_10 
REMARK    4  A    between atoms: C_10  and  O_11 
REMARK    5  A    between atoms: C_18  and  C_19 
REMARK    6  A    between atoms: C_19  and  N_20 
REMARK       I    between atoms: N_20  and  C_21 
REMARK    7  A    between atoms: C_21  and  C_22 
REMARK    8  A    between atoms: C_24  and  C_25 
REMARK    9  A    between atoms: C_25  and  O_26 
ROOT
HETATM    1  C   UNL     1      22.463  46.467  48.317  1.00  0.00     0.079 C 
HETATM    2  C   UNL     1      23.521  47.008  49.188  1.00  0.00     0.078 A 
HETATM    3  O   UNL     1      23.965  46.212  50.205  1.00  0.00    -0.294 OA
HETATM    4  C   UNL     1      24.916  46.964  50.840  1.00  0.00     0.180 A 
HETATM    5  N   UNL     1      25.122  48.148  50.290  1.00  0.00    -0.224 NA
HETATM    6  C   UNL     1      24.209  48.202  49.254  1.00  0.00     0.084 A 
ENDROOT
BRANCH   4   7
HETATM    7  C   UNL     1      25.534  46.381  52.027  1.00  0.00     0.019 A 
HETATM    8  C   UNL     1      25.993  45.052  52.044  1.00  0.00     0.045 A 
HETATM    9  C   UNL     1      26.523  44.487  53.208  1.00  0.00     0.035 A 
HETATM   10  C   UNL     1      26.617  45.273  54.363  1.00  0.00     0.029 A 
HETATM   11  C   UNL     1      26.179  46.597  54.360  1.00  0.00     0.003 A 
HETATM   12  C   UNL     1      25.632  47.144  53.200  1.00  0.00     0.016 A 
BRANCH   9  13
HETATM   13  N   UNL     1      26.949  43.150  53.310  1.00  0.00    -0.325 N 
HETATM   14  C   UNL     1      28.230  42.645  53.165  1.00  0.00     0.245 C 
HETATM   15  O   UNL     1      29.263  43.282  52.990  1.00  0.00    -0.271 OA
HETATM   16  H   UNL     1      26.233  42.443  53.453  1.00  0.00     0.169 HD
BRANCH  14  17
HETATM   17  C   UNL     1      28.252  41.116  53.295  1.00  0.00     0.270 C 
BRANCH  17  18
HETATM   18  O   UNL     1      28.915  40.470  52.208  1.00  0.00    -0.387 OA
HETATM   19  C   UNL     1      28.191  40.608  50.987  1.00  0.00     0.202 C 
ENDBRANCH  17  18
ENDBRANCH  14  17
ENDBRANCH   9  13
ENDBRANCH   4   7
BRANCH   6  20
HETATM   20  C   UNL     1      24.045  49.425  48.432  1.00  0.00     0.185 C 
BRANCH  20  21
HETATM   21  N   UNL     1      22.665  49.840  48.444  1.00  0.00    -0.351 N 
HETATM   22  C   UNL     1      22.151  50.676  49.409  1.00  0.00     0.258 C 
HETATM   23  O   UNL     1      22.847  51.082  50.338  1.00  0.00    -0.267 OA
HETATM   24  H   UNL     1      22.038  49.444  47.756  1.00  0.00     0.163 HD
BRANCH  22  25
HETATM   25  C   UNL     1      20.755  51.059  49.247  1.00  0.00     0.073 A 
HETATM   26  S   UNL     1      19.490  50.351  50.161  1.00  0.00    -0.087 SA
HETATM   27  C   UNL     1      18.282  51.243  49.339  1.00  0.00     0.007 A 
HETATM   28  C   UNL     1      18.837  52.092  48.402  1.00  0.00     0.018 A 
HETATM   29  C   UNL     1      20.256  51.988  48.352  1.00  0.00     0.026 A 
BRANCH  27  30
HETATM   30  C   UNL     1      16.836  51.051  49.668  1.00  0.00     0.213 C 
BRANCH  30  31
HETATM   31  O   UNL     1      16.189  50.680  48.453  1.00  0.00    -0.391 OA
HETATM   32  C   UNL     1      16.326  49.292  48.189  1.00  0.00     0.201 C 
ENDBRANCH  30  31
ENDBRANCH  27  30
ENDBRANCH  22  25
ENDBRANCH  20  21
ENDBRANCH   6  20
TORSDOF 9
ENDMDL
MODEL 3
REMARK VINA RESULT:      -7.9      1.778      2.408
REMARK  9 active torsions:
REMARK  status: ('A' for Active; 'I' for Inactive)
REMARK    1  A    between atoms: C_4  and  C_5 
REMARK    2  A    between atoms: C_7  and  N_8 
REMARK       I    between atoms: N_8  and  C_9 
REMARK    3  A    between atoms: C_9  and  C_10 
REMARK    4  A    between atoms: C_10  and  O_11 
REMARK    5  A    between atoms: C_18  and  C_19 
REMARK    6  A    between atoms: C_19  and  N_20 
REMARK       I    between atoms: N_20  and  C_21 
REMARK    7  A    between atoms: C_21  and  C_22 
REMARK    8  A    between atoms: C_24  and  C_25 
REMARK    9  A    between atoms: C_25  and  O_26 
ROOT
HETATM    1  C   UNL     1      25.905  46.530  52.979  1.00  0.00     0.079 C 
HETATM    2  C   UNL     1      25.587  46.680  51.549  1.00  0.00     0.078 A 
HETATM    3  O   UNL     1      24.783  47.725  51.192  1.00  0.00    -0.294 OA
HETATM    4  C   UNL     1      24.651  47.609  49.834  1.00  0.00     0.180 A 
HETATM    5  N   UNL     1      25.326  46.600  49.313  1.00  0.00    -0.224 NA
HETATM    6  C   UNL     1      25.899  45.977  50.405  1.00  0.00     0.084 A 
ENDROOT
BRANCH   4   7
HETATM    7  C   UNL     1      23.779  48.574  49.171  1.00  0.00     0.019 A 
HETATM    8  C   UNL     1      22.378  48.457  49.216  1.00  0.00     0.045 A 
HETATM    9  C   UNL     1      21.558  49.352  48.521  1.00  0.00     0.035 A 
HETATM   10  C   UNL     1      22.149  50.391  47.793  1.00  0.00     0.029 A 
HETATM   11  C   UNL     1      23.536  50.529  47.749  1.00  0.00     0.003 A 
HETATM   12  C   UNL     1      24.346  49.619  48.427  1.00  0.00     0.016 A 
BRANCH   9  13
HETATM   13  N   UNL     1      20.155  49.261  48.479  1.00  0.00    -0.325 N 
HETATM   14  C   UNL     1      19.235  49.773  49.378  1.00  0.00     0.245 C 
HETATM   15  O   UNL     1      19.466  50.474  50.357  1.00  0.00    -0.271 OA
HETATM   16  H   UNL     1      19.746  48.706  47.731  1.00  0.00     0.169 HD
BRANCH  14  17
HETATM   17  C   UNL     1      17.798  49.397  48.992  1.00  0.00     0.270 C 
BRANCH  17  18
HETATM   18  O   UNL     1      17.712  48.161  48.280  1.00  0.00    -0.387 OA
HETATM   19  C   UNL     1      16.743  47.286  48.853  1.00  0.00     0.202 C 
ENDBRANCH  17  18
ENDBRANCH  14  17
ENDBRANCH   9  13
ENDBRANCH   4   7
BRANCH   6  20
HETATM   20  C   UNL     1      26.674  44.720  50.259  1.00  0.00     0.185 C 
BRANCH  20  21
HETATM   21  N   UNL     1      27.597  44.586  51.357  1.00  0.00    -0.351 N 
HETATM   22  C   UNL     1      27.662  43.454  52.136  1.00  0.00     0.258 C 
HETATM   23  O   UNL     1      26.897  42.508  51.953  1.00  0.00    -0.267 OA
HETATM   24  H   UNL     1      28.170  45.383  51.603  1.00  0.00     0.163 HD
BRANCH  22  25
HETATM   25  C   UNL     1      28.693  43.443  53.165  1.00  0.00     0.073 A 
HETATM   26  S   UNL     1      28.685  44.524  54.495  1.00  0.00    -0.087 SA
HETATM   27  C   UNL     1      30.171  43.926  55.099  1.00  0.00     0.007 A 
HETATM   28  C   UNL     1      30.651  42.895  54.316  1.00  0.00     0.018 A 
HETATM   29  C   UNL     1      29.802  42.616  53.208  1.00  0.00     0.026 A 
BRANCH  27  30
HETATM   30  C   UNL     1      30.787  44.516  56.327  1.00  0.00     0.213 C 
BRANCH  30  31
HETATM   31  O   UNL     1      29.994  45.649  56.675  1.00  0.00    -0.391 OA
HETATM   32  C   UNL     1      30.114  45.969  58.053  1.00  0.00     0.201 C 
ENDBRANCH  30  31
ENDBRANCH  27  30
ENDBRANCH  22  25
ENDBRANCH  20  21
ENDBRANCH   6  20
TORSDOF 9
ENDMDL
MODEL 4
REMARK VINA RESULT:      -7.8      3.319     10.112
REMARK  9 active torsions:
REMARK  status: ('A' for Active; 'I' for Inactive)
REMARK    1  A    between atoms: C_4  and  C_5 
REMARK    2  A    between atoms: C_7  and  N_8 
REMARK       I    between atoms: N_8  and  C_9 
REMARK    3  A    between atoms: C_9  and  C_10 
REMARK    4  A    between atoms: C_10  and  O_11 
REMARK    5  A    between atoms: C_18  and  C_19 
REMARK    6  A    between atoms: C_19  and  N_20 
REMARK       I    between atoms: N_20  and  C_21 
REMARK    7  A    between atoms: C_21  and  C_22 
REMARK    8  A    between atoms: C_24  and  C_25 
REMARK    9  A    between atoms: C_25  and  O_26 
ROOT
HETATM    1  C   UNL     1      27.523  49.280  49.037  1.00  0.00     0.079 C 
HETATM    2  C   UNL     1      26.262  48.558  49.283  1.00  0.00     0.078 A 
HETATM    3  O   UNL     1      26.354  47.276  49.743  1.00  0.00    -0.294 OA
HETATM    4  C   UNL     1      25.054  46.861  49.866  1.00  0.00     0.180 A 
HETATM    5  N   UNL     1      24.164  47.784  49.548  1.00  0.00    -0.224 NA
HETATM    6  C   UNL     1      24.925  48.862  49.139  1.00  0.00     0.084 A 
ENDROOT
BRANCH   4   7
HETATM    7  C   UNL     1      24.839  45.481  50.289  1.00  0.00     0.019 A 
HETATM    8  C   UNL     1      25.756  44.812  51.121  1.00  0.00     0.045 A 
HETATM    9  C   UNL     1      25.570  43.469  51.465  1.00  0.00     0.035 A 
HETATM   10  C   UNL     1      24.438  42.797  50.991  1.00  0.00     0.029 A 
HETATM   11  C   UNL     1      23.513  43.449  50.175  1.00  0.00     0.003 A 
HETATM   12  C   UNL     1      23.718  44.782  49.820  1.00  0.00     0.016 A 
BRANCH   9  13
HETATM   13  N   UNL     1      26.473  42.726  52.247  1.00  0.00    -0.325 N 
HETATM   14  C   UNL     1      27.449  41.841  51.822  1.00  0.00     0.245 C 
HETATM   15  O   UNL     1      27.766  41.587  50.665  1.00  0.00    -0.271 OA
HETATM   16  H   UNL     1      26.378  42.792  53.257  1.00  0.00     0.169 HD
BRANCH  14  17
HETATM   17  C   UNL     1      28.180  41.195  53.006  1.00  0.00     0.270 C 
BRANCH  17  18
HETATM   18  O   UNL     1      28.920  42.131  53.790  1.00  0.00    -0.387 OA
HETATM   19  C   UNL     1      29.883  42.833  53.008  1.00  0.00     0.202 C 
ENDBRANCH  17  18
ENDBRANCH  14  17
ENDBRANCH   9  13
ENDBRANCH   4   7
BRANCH   6  20
HETATM   20  C   UNL     1      24.295  50.092  48.599  1.00  0.00     0.185 C 
BRANCH  20  21
HETATM   21  N   UNL     1      22.860  49.975  48.666  1.00  0.00    -0.351 N 
HETATM   22  C   UNL     1      22.116  50.555  49.668  1.00  0.00     0.258 C 
HETATM   23  O   UNL     1      22.653  51.175  50.584  1.00  0.00    -0.267 OA
HETATM   24  H   UNL     1      22.394  49.387  47.988  1.00  0.00     0.163 HD
BRANCH  22  25
HETATM   25  C   UNL     1      20.671  50.405  49.560  1.00  0.00     0.073 A 
HETATM   26  S   UNL     1      19.931  48.977  48.968  1.00  0.00    -0.087 SA
HETATM   27  C   UNL     1      18.358  49.640  49.090  1.00  0.00     0.007 A 
HETATM   28  C   UNL     1      18.393  50.921  49.605  1.00  0.00     0.018 A 
HETATM   29  C   UNL     1      19.720  51.359  49.877  1.00  0.00     0.026 A 
BRANCH  27  30
HETATM   30  C   UNL     1      17.162  48.849  48.665  1.00  0.00     0.213 C 
BRANCH  30  31
HETATM   31  O   UNL     1      17.270  47.576  49.299  1.00  0.00    -0.391 OA
HETATM   32  C   UNL     1      17.054  46.514  48.383  1.00  0.00     0.201 C 
ENDBRANCH  30  31
ENDBRANCH  27  30
ENDBRANCH  22  25
ENDBRANCH  20  21
ENDBRANCH   6  20
TORSDOF 9
ENDMDL
MODEL 5
REMARK VINA RESULT:      -7.8      2.084      2.628
REMARK  9 active torsions:
REMARK  status: ('A' for Active; 'I' for Inactive)
REMARK    1  A    between atoms: C_4  and  C_5 
REMARK    2  A    between atoms: C_7  and  N_8 
REMARK       I    between atoms: N_8  and  C_9 
REMARK    3  A    between atoms: C_9  and  C_10 
REMARK    4  A    between atoms: C_10  and  O_11 
REMARK    5  A    between atoms: C_18  and  C_19 
REMARK    6  A    between atoms: C_19  and  N_20 
REMARK       I    between atoms: N_20  and  C_21 
REMARK    7  A    between atoms: C_21  and  C_22 
REMARK    8  A    between atoms: C_24  and  C_25 
REMARK    9  A    between atoms: C_25  and  O_26 
ROOT
HETATM    1  C   UNL     1      22.494  43.789  48.774  1.00  0.00     0.079 C 
HETATM    2  C   UNL     1      23.233  44.981  49.222  1.00  0.00     0.078 A 
HETATM    3  O   UNL     1      22.735  46.201  48.861  1.00  0.00    -0.294 OA
HETATM    4  C   UNL     1      23.615  47.103  49.396  1.00  0.00     0.180 A 
HETATM    5  N   UNL     1      24.601  46.552  50.081  1.00  0.00    -0.224 NA
HETATM    6  C   UNL     1      24.388  45.193  49.946  1.00  0.00     0.084 A 
ENDROOT
BRANCH   4   7
HETATM    7  C   UNL     1      23.366  48.514  49.115  1.00  0.00     0.019 A 
HETATM    8  C   UNL     1      22.192  49.157  49.548  1.00  0.00     0.045 A 
HETATM    9  C   UNL     1      21.937  50.491  49.215  1.00  0.00     0.035 A 
HETATM   10  C   UNL     1      22.882  51.196  48.461  1.00  0.00     0.029 A 
HETATM   11  C   UNL     1      24.057  50.577  48.034  1.00  0.00     0.003 A 
HETATM   12  C   UNL     1      24.293  49.240  48.353  1.00  0.00     0.016 A 
BRANCH   9  13
HETATM   13  N   UNL     1      20.761  51.178  49.568  1.00  0.00    -0.325 N 
HETATM   14  C   UNL     1      19.456  50.883  49.216  1.00  0.00     0.245 C 
HETATM   15  O   UNL     1      19.062  49.912  48.578  1.00  0.00    -0.271 OA
HETATM   16  H   UNL     1      20.867  52.035  50.107  1.00  0.00     0.169 HD
BRANCH  14  17
HETATM   17  C   UNL     1      18.472  51.924  49.765  1.00  0.00     0.270 C 
BRANCH  17  18
HETATM   18  O   UNL     1      17.216  51.364  50.147  1.00  0.00    -0.387 OA
HETATM   19  C   UNL     1      16.148  51.861  49.344  1.00  0.00     0.202 C 
ENDBRANCH  17  18
ENDBRANCH  14  17
ENDBRANCH   9  13
ENDBRANCH   4   7
BRANCH   6  20
HETATM   20  C   UNL     1      25.345  44.202  50.497  1.00  0.00     0.185 C 
BRANCH  20  21
HETATM   21  N   UNL     1      26.183  44.831  51.486  1.00  0.00    -0.351 N 
HETATM   22  C   UNL     1      25.917  44.761  52.834  1.00  0.00     0.258 C 
HETATM   23  O   UNL     1      24.918  44.185  53.259  1.00  0.00    -0.267 OA
HETATM   24  H   UNL     1      26.956  45.401  51.168  1.00  0.00     0.163 HD
BRANCH  22  25
HETATM   25  C   UNL     1      26.895  45.390  53.712  1.00  0.00     0.073 A 
HETATM   26  S   UNL     1      28.259  44.555  54.327  1.00  0.00    -0.087 SA
HETATM   27  C   UNL     1      28.772  45.899  55.253  1.00  0.00     0.007 A 
HETATM   28  C   UNL     1      27.933  46.981  55.073  1.00  0.00     0.018 A 
HETATM   29  C   UNL     1      26.858  46.689  54.187  1.00  0.00     0.026 A 
BRANCH  27  30
HETATM   30  C   UNL     1      29.988  45.809  56.118  1.00  0.00     0.213 C 
BRANCH  30  31
HETATM   31  O   UNL     1      30.454  44.464  56.026  1.00  0.00    -0.391 OA
HETATM   32  C   UNL     1      31.227  44.099  57.159  1.00  0.00     0.201 C 
ENDBRANCH  30  31
ENDBRANCH  27  30
ENDBRANCH  22  25
ENDBRANCH  20  21
ENDBRANCH   6  20
TORSDOF 9
ENDMDL
MODEL 6
REMARK VINA RESULT:      -7.6      3.737     10.650
REMARK  9 active torsions:
REMARK  status: ('A' for Active; 'I' for Inactive)
REMARK    1  A    between atoms: C_4  and  C_5 
REMARK    2  A    between atoms: C_7  and  N_8 
REMARK       I    between atoms: N_8  and  C_9 
REMARK    3  A    between atoms: C_9  and  C_10 
REMARK    4  A    between atoms: C_10  and  O_11 
REMARK    5  A    between atoms: C_18  and  C_19 
REMARK    6  A    between atoms: C_19  and  N_20 
REMARK       I    between atoms: N_20  and  C_21 
REMARK    7  A    between atoms: C_21  and  C_22 
REMARK    8  A    between atoms: C_24  and  C_25 
REMARK    9  A    between atoms: C_25  and  O_26 
ROOT
HETATM    1  C   UNL     1      24.639  50.109  48.230  1.00  0.00     0.079 C 
HETATM    2  C   UNL     1      24.387  48.832  48.920  1.00  0.00     0.078 A 
HETATM    3  O   UNL     1      25.259  48.470  49.906  1.00  0.00    -0.294 OA
HETATM    4  C   UNL     1      24.792  47.261  50.350  1.00  0.00     0.180 A 
HETATM    5  N   UNL     1      23.691  46.855  49.744  1.00  0.00    -0.224 NA
HETATM    6  C   UNL     1      23.442  47.834  48.802  1.00  0.00     0.084 A 
ENDROOT
BRANCH   4   7
HETATM    7  C   UNL     1      25.576  46.590  51.384  1.00  0.00     0.019 A 
HETATM    8  C   UNL     1      26.302  45.416  51.115  1.00  0.00     0.045 A 
HETATM    9  C   UNL     1      26.994  44.748  52.130  1.00  0.00     0.035 A 
HETATM   10  C   UNL     1      26.979  45.279  53.425  1.00  0.00     0.029 A 
HETATM   11  C   UNL     1      26.274  46.450  53.706  1.00  0.00     0.003 A 
HETATM   12  C   UNL     1      25.570  47.096  52.691  1.00  0.00     0.016 A 
BRANCH   9  13
HETATM   13  N   UNL     1      27.694  43.543  51.943  1.00  0.00    -0.325 N 
HETATM   14  C   UNL     1      27.201  42.321  51.517  1.00  0.00     0.245 C 
HETATM   15  O   UNL     1      26.058  42.071  51.149  1.00  0.00    -0.271 OA
HETATM   16  H   UNL     1      28.678  43.532  52.198  1.00  0.00     0.169 HD
BRANCH  14  17
HETATM   17  C   UNL     1      28.293  41.244  51.505  1.00  0.00     0.270 C 
BRANCH  17  18
HETATM   18  O   UNL     1      27.953  40.107  50.709  1.00  0.00    -0.387 OA
HETATM   19  C   UNL     1      28.394  40.254  49.361  1.00  0.00     0.202 C 
ENDBRANCH  17  18
ENDBRANCH  14  17
ENDBRANCH   9  13
ENDBRANCH   4   7
BRANCH   6  20
HETATM   20  C   UNL     1      22.329  47.707  47.830  1.00  0.00     0.185 C 
BRANCH  20  21
HETATM   21  N   UNL     1      21.462  48.853  47.929  1.00  0.00    -0.351 N 
HETATM   22  C   UNL     1      20.280  48.829  48.633  1.00  0.00     0.258 C 
HETATM   23  O   UNL     1      19.886  47.803  49.185  1.00  0.00    -0.267 OA
HETATM   24  H   UNL     1      21.700  49.684  47.403  1.00  0.00     0.163 HD
BRANCH  22  25
HETATM   25  C   UNL     1      19.546  50.086  48.698  1.00  0.00     0.073 A 
HETATM   26  S   UNL     1      17.859  50.159  48.986  1.00  0.00    -0.087 SA
HETATM   27  C   UNL     1      17.819  51.862  48.823  1.00  0.00     0.007 A 
HETATM   28  C   UNL     1      19.079  52.373  48.584  1.00  0.00     0.018 A 
HETATM   29  C   UNL     1      20.071  51.354  48.515  1.00  0.00     0.026 A 
BRANCH  27  30
HETATM   30  C   UNL     1      16.529  52.609  48.942  1.00  0.00     0.213 C 
BRANCH  30  31
HETATM   31  O   UNL     1      16.391  52.967  50.315  1.00  0.00    -0.391 OA
HETATM   32  C   UNL     1      15.428  53.996  50.495  1.00  0.00     0.201 C 
ENDBRANCH  30  31
ENDBRANCH  27  30
ENDBRANCH  22  25
ENDBRANCH  20  21
ENDBRANCH   6  20
TORSDOF 9
ENDMDL
MODEL 7
REMARK VINA RESULT:      -7.5      2.801      3.566
REMARK  9 active torsions:
REMARK  status: ('A' for Active; 'I' for Inactive)
REMARK    1  A    between atoms: C_4  and  C_5 
REMARK    2  A    between atoms: C_7  and  N_8 
REMARK       I    between atoms: N_8  and  C_9 
REMARK    3  A    between atoms: C_9  and  C_10 
REMARK    4  A    between atoms: C_10  and  O_11 
REMARK    5  A    between atoms: C_18  and  C_19 
REMARK    6  A    between atoms: C_19  and  N_20 
REMARK       I    between atoms: N_20  and  C_21 
REMARK    7  A    between atoms: C_21  and  C_22 
REMARK    8  A    between atoms: C_24  and  C_25 
REMARK    9  A    between atoms: C_25  and  O_26 
ROOT
HETATM    1  C   UNL     1      21.741  43.961  47.278  1.00  0.00     0.079 C 
HETATM    2  C   UNL     1      22.406  45.048  48.016  1.00  0.00     0.078 A 
HETATM    3  O   UNL     1      21.850  46.293  47.935  1.00  0.00    -0.294 OA
HETATM    4  C   UNL     1      22.670  47.085  48.693  1.00  0.00     0.180 A 
HETATM    5  N   UNL     1      23.671  46.436  49.261  1.00  0.00    -0.224 NA
HETATM    6  C   UNL     1      23.534  45.139  48.805  1.00  0.00     0.084 A 
ENDROOT
BRANCH   4   7
HETATM    7  C   UNL     1      22.351  48.509  48.743  1.00  0.00     0.019 A 
HETATM    8  C   UNL     1      21.030  48.964  48.907  1.00  0.00     0.045 A 
HETATM    9  C   UNL     1      20.731  50.330  48.887  1.00  0.00     0.035 A 
HETATM   10  C   UNL     1      21.773  51.251  48.726  1.00  0.00     0.029 A 
HETATM   11  C   UNL     1      23.089  50.817  48.575  1.00  0.00     0.003 A 
HETATM   12  C   UNL     1      23.375  49.452  48.575  1.00  0.00     0.016 A 
BRANCH   9  13
HETATM   13  N   UNL     1      19.429  50.851  48.991  1.00  0.00    -0.325 N 
HETATM   14  C   UNL     1      18.478  50.596  49.964  1.00  0.00     0.245 C 
HETATM   15  O   UNL     1      18.615  49.914  50.974  1.00  0.00    -0.271 OA
HETATM   16  H   UNL     1      19.106  51.452  48.236  1.00  0.00     0.169 HD
BRANCH  14  17
HETATM   17  C   UNL     1      17.160  51.325  49.672  1.00  0.00     0.270 C 
BRANCH  17  18
HETATM   18  O   UNL     1      17.275  52.747  49.745  1.00  0.00    -0.387 OA
HETATM   19  C   UNL     1      16.057  53.356  50.166  1.00  0.00     0.202 C 
ENDBRANCH  17  18
ENDBRANCH  14  17
ENDBRANCH   9  13
ENDBRANCH   4   7
BRANCH   6  20
HETATM   20  C   UNL     1      24.532  44.093  49.137  1.00  0.00     0.185 C 
BRANCH  20  21
HETATM   21  N   UNL     1      25.102  44.357  50.434  1.00  0.00    -0.351 N 
HETATM   22  C   UNL     1      26.455  44.514  50.631  1.00  0.00     0.258 C 
HETATM   23  O   UNL     1      27.252  44.396  49.703  1.00  0.00    -0.267 OA
HETATM   24  H   UNL     1      24.487  44.357  51.238  1.00  0.00     0.163 HD
BRANCH  22  25
HETATM   25  C   UNL     1      26.870  44.843  51.988  1.00  0.00     0.073 A 
HETATM   26  S   UNL     1      26.301  46.230  52.819  1.00  0.00    -0.087 SA
HETATM   27  C   UNL     1      27.278  45.916  54.188  1.00  0.00     0.007 A 
HETATM   28  C   UNL     1      28.005  44.752  54.028  1.00  0.00     0.018 A 
HETATM   29  C   UNL     1      27.768  44.136  52.767  1.00  0.00     0.026 A 
BRANCH  27  30
HETATM   30  C   UNL     1      27.274  46.847  55.358  1.00  0.00     0.213 C 
BRANCH  30  31
HETATM   31  O   UNL     1      26.139  47.695  55.198  1.00  0.00    -0.391 OA
HETATM   32  C   UNL     1      26.209  48.830  56.047  1.00  0.00     0.201 C 
ENDBRANCH  30  31
ENDBRANCH  27  30
ENDBRANCH  22  25
ENDBRANCH  20  21
ENDBRANCH   6  20
TORSDOF 9
ENDMDL
MODEL 8
REMARK VINA RESULT:      -7.5      2.885      4.035
REMARK  9 active torsions:
REMARK  status: ('A' for Active; 'I' for Inactive)
REMARK    1  A    between atoms: C_4  and  C_5 
REMARK    2  A    between atoms: C_7  and  N_8 
REMARK       I    between atoms: N_8  and  C_9 
REMARK    3  A    between atoms: C_9  and  C_10 
REMARK    4  A    between atoms: C_10  and  O_11 
REMARK    5  A    between atoms: C_18  and  C_19 
REMARK    6  A    between atoms: C_19  and  N_20 
REMARK       I    between atoms: N_20  and  C_21 
REMARK    7  A    between atoms: C_21  and  C_22 
REMARK    8  A    between atoms: C_24  and  C_25 
REMARK    9  A    between atoms: C_25  and  O_26 
ROOT
HETATM    1  C   UNL     1      27.555  48.620  49.025  1.00  0.00     0.079 C 
HETATM    2  C   UNL     1      26.187  48.314  49.476  1.00  0.00     0.078 A 
HETATM    3  O   UNL     1      25.166  49.023  48.907  1.00  0.00    -0.294 OA
HETATM    4  C   UNL     1      24.036  48.544  49.515  1.00  0.00     0.180 A 
HETATM    5  N   UNL     1      24.263  47.582  50.391  1.00  0.00    -0.224 NA
HETATM    6  C   UNL     1      25.638  47.452  50.402  1.00  0.00     0.084 A 
ENDROOT
BRANCH   4   7
HETATM    7  C   UNL     1      22.771  49.171  49.143  1.00  0.00     0.019 A 
HETATM    8  C   UNL     1      21.590  48.421  48.995  1.00  0.00     0.045 A 
HETATM    9  C   UNL     1      20.401  49.025  48.574  1.00  0.00     0.035 A 
HETATM   10  C   UNL     1      20.390  50.402  48.324  1.00  0.00     0.029 A 
HETATM   11  C   UNL     1      21.549  51.163  48.478  1.00  0.00     0.003 A 
HETATM   12  C   UNL     1      22.735  50.548  48.878  1.00  0.00     0.016 A 
BRANCH   9  13
HETATM   13  N   UNL     1      19.200  48.327  48.354  1.00  0.00    -0.325 N 
HETATM   14  C   UNL     1      18.237  47.964  49.279  1.00  0.00     0.245 C 
HETATM   15  O   UNL     1      18.210  48.248  50.471  1.00  0.00    -0.271 OA
HETATM   16  H   UNL     1      19.024  47.989  47.410  1.00  0.00     0.169 HD
BRANCH  14  17
HETATM   17  C   UNL     1      17.105  47.156  48.629  1.00  0.00     0.270 C 
BRANCH  17  18
HETATM   18  O   UNL     1      15.892  47.897  48.493  1.00  0.00    -0.387 OA
HETATM   19  C   UNL     1      15.594  48.178  47.127  1.00  0.00     0.202 C 
ENDBRANCH  17  18
ENDBRANCH  14  17
ENDBRANCH   9  13
ENDBRANCH   4   7
BRANCH   6  20
HETATM   20  C   UNL     1      26.320  46.526  51.340  1.00  0.00     0.185 C 
BRANCH  20  21
HETATM   21  N   UNL     1      26.256  45.180  50.830  1.00  0.00    -0.351 N 
HETATM   22  C   UNL     1      26.463  44.077  51.626  1.00  0.00     0.258 C 
HETATM   23  O   UNL     1      26.754  44.193  52.815  1.00  0.00    -0.267 OA
HETATM   24  H   UNL     1      26.122  45.048  49.837  1.00  0.00     0.163 HD
BRANCH  22  25
HETATM   25  C   UNL     1      26.297  42.781  50.980  1.00  0.00     0.073 A 
HETATM   26  S   UNL     1      27.396  41.486  51.210  1.00  0.00    -0.087 SA
HETATM   27  C   UNL     1      26.563  40.473  50.110  1.00  0.00     0.007 A 
HETATM   28  C   UNL     1      25.445  41.101  49.599  1.00  0.00     0.018 A 
HETATM   29  C   UNL     1      25.291  42.425  50.100  1.00  0.00     0.026 A 
BRANCH  27  30
HETATM   30  C   UNL     1      27.066  39.098  49.809  1.00  0.00     0.213 C 
BRANCH  30  31
HETATM   31  O   UNL     1      28.370  39.255  49.252  1.00  0.00    -0.391 OA
HETATM   32  C   UNL     1      29.259  38.246  49.706  1.00  0.00     0.201 C 
ENDBRANCH  30  31
ENDBRANCH  27  30
ENDBRANCH  22  25
ENDBRANCH  20  21
ENDBRANCH   6  20
TORSDOF 9
ENDMDL
MODEL 9
REMARK VINA RESULT:      -7.4      2.977     10.938
REMARK  9 active torsions:
REMARK  status: ('A' for Active; 'I' for Inactive)
REMARK    1  A    between atoms: C_4  and  C_5 
REMARK    2  A    between atoms: C_7  and  N_8 
REMARK       I    between atoms: N_8  and  C_9 
REMARK    3  A    between atoms: C_9  and  C_10 
REMARK    4  A    between atoms: C_10  and  O_11 
REMARK    5  A    between atoms: C_18  and  C_19 
REMARK    6  A    between atoms: C_19  and  N_20 
REMARK       I    between atoms: N_20  and  C_21 
REMARK    7  A    between atoms: C_21  and  C_22 
REMARK    8  A    between atoms: C_24  and  C_25 
REMARK    9  A    between atoms: C_25  and  O_26 
ROOT
HETATM    1  C   UNL     1      22.194  47.137  48.294  1.00  0.00     0.079 C 
HETATM    2  C   UNL     1      23.448  47.374  49.029  1.00  0.00     0.078 A 
HETATM    3  O   UNL     1      24.033  46.299  49.635  1.00  0.00    -0.294 OA
HETATM    4  C   UNL     1      25.151  46.811  50.239  1.00  0.00     0.180 A 
HETATM    5  N   UNL     1      25.326  48.105  50.037  1.00  0.00    -0.224 NA
HETATM    6  C   UNL     1      24.223  48.483  49.295  1.00  0.00     0.084 A 
ENDROOT
BRANCH   4   7
HETATM    7  C   UNL     1      25.958  45.885  51.028  1.00  0.00     0.019 A 
HETATM    8  C   UNL     1      26.247  46.127  52.383  1.00  0.00     0.045 A 
HETATM    9  C   UNL     1      27.075  45.265  53.109  1.00  0.00     0.035 A 
HETATM   10  C   UNL     1      27.598  44.132  52.474  1.00  0.00     0.029 A 
HETATM   11  C   UNL     1      27.311  43.870  51.135  1.00  0.00     0.003 A 
HETATM   12  C   UNL     1      26.501  44.748  50.414  1.00  0.00     0.016 A 
BRANCH   9  13
HETATM   13  N   UNL     1      27.448  45.476  54.448  1.00  0.00    -0.325 N 
HETATM   14  C   UNL     1      27.988  46.615  55.020  1.00  0.00     0.245 C 
HETATM   15  O   UNL     1      28.182  47.696  54.475  1.00  0.00    -0.271 OA
HETATM   16  H   UNL     1      27.368  44.685  55.084  1.00  0.00     0.169 HD
BRANCH  14  17
HETATM   17  C   UNL     1      28.307  46.405  56.506  1.00  0.00     0.270 C 
BRANCH  17  18
HETATM   18  O   UNL     1      29.616  45.881  56.732  1.00  0.00    -0.387 OA
HETATM   19  C   UNL     1      29.936  45.837  58.121  1.00  0.00     0.202 C 
ENDBRANCH  17  18
ENDBRANCH  14  17
ENDBRANCH   9  13
ENDBRANCH   4   7
BRANCH   6  20
HETATM   20  C   UNL     1      23.984  49.903  48.935  1.00  0.00     0.185 C 
BRANCH  20  21
HETATM   21  N   UNL     1      22.577  50.120  48.715  1.00  0.00    -0.351 N 
HETATM   22  C   UNL     1      21.773  50.756  49.632  1.00  0.00     0.258 C 
HETATM   23  O   UNL     1      22.217  51.139  50.713  1.00  0.00    -0.267 OA
HETATM   24  H   UNL     1      22.155  49.727  47.884  1.00  0.00     0.163 HD
BRANCH  22  25
HETATM   25  C   UNL     1      20.386  50.960  49.236  1.00  0.00     0.073 A 
HETATM   26  S   UNL     1      19.181  49.757  49.432  1.00  0.00    -0.087 SA
HETATM   27  C   UNL     1      17.978  50.720  48.689  1.00  0.00     0.007 A 
HETATM   28  C   UNL     1      18.479  51.955  48.324  1.00  0.00     0.018 A 
HETATM   29  C   UNL     1      19.860  52.092  48.640  1.00  0.00     0.026 A 
BRANCH  27  30
HETATM   30  C   UNL     1      16.590  50.197  48.504  1.00  0.00     0.213 C 
BRANCH  30  31
HETATM   31  O   UNL     1      16.670  49.171  47.517  1.00  0.00    -0.391 OA
HETATM   32  C   UNL     1      15.388  48.656  47.190  1.00  0.00     0.201 C 
ENDBRANCH  30  31
ENDBRANCH  27  30
ENDBRANCH  22  25
ENDBRANCH  20  21
ENDBRANCH   6  20
TORSDOF 9
ENDMDL
MODEL 10
REMARK VINA RESULT:      -7.4      4.590      6.982
REMARK  9 active torsions:
REMARK  status: ('A' for Active; 'I' for Inactive)
REMARK    1  A    between atoms: C_4  and  C_5 
REMARK    2  A    between atoms: C_7  and  N_8 
REMARK       I    between atoms: N_8  and  C_9 
REMARK    3  A    between atoms: C_9  and  C_10 
REMARK    4  A    between atoms: C_10  and  O_11 
REMARK    5  A    between atoms: C_18  and  C_19 
REMARK    6  A    between atoms: C_19  and  N_20 
REMARK       I    between atoms: N_20  and  C_21 
REMARK    7  A    between atoms: C_21  and  C_22 
REMARK    8  A    between atoms: C_24  and  C_25 
REMARK    9  A    between atoms: C_25  and  O_26 
ROOT
HETATM    1  C   UNL     1      20.911  48.453  47.672  1.00  0.00     0.079 C 
HETATM    2  C   UNL     1      20.488  49.804  48.078  1.00  0.00     0.078 A 
HETATM    3  O   UNL     1      19.146  50.040  48.170  1.00  0.00    -0.294 OA
HETATM    4  C   UNL     1      19.053  51.353  48.547  1.00  0.00     0.180 A 
HETATM    5  N   UNL     1      20.220  51.946  48.724  1.00  0.00    -0.224 NA
HETATM    6  C   UNL     1      21.146  50.975  48.392  1.00  0.00     0.084 A 
ENDROOT
BRANCH   4   7
HETATM    7  C   UNL     1      17.709  51.912  48.667  1.00  0.00     0.019 A 
HETATM    8  C   UNL     1      17.323  52.674  49.785  1.00  0.00     0.045 A 
HETATM    9  C   UNL     1      16.014  53.147  49.917  1.00  0.00     0.035 A 
HETATM   10  C   UNL     1      15.087  52.874  48.903  1.00  0.00     0.029 A 
HETATM   11  C   UNL     1      15.457  52.131  47.783  1.00  0.00     0.003 A 
HETATM   12  C   UNL     1      16.760  51.646  47.670  1.00  0.00     0.016 A 
BRANCH   9  13
HETATM   13  N   UNL     1      15.547  53.867  51.031  1.00  0.00    -0.325 N 
HETATM   14  C   UNL     1      15.308  55.227  51.135  1.00  0.00     0.245 C 
HETATM   15  O   UNL     1      15.389  56.064  50.243  1.00  0.00    -0.271 OA
HETATM   16  H   UNL     1      15.414  53.351  51.897  1.00  0.00     0.169 HD
BRANCH  14  17
HETATM   17  C   UNL     1      14.860  55.615  52.550  1.00  0.00     0.270 C 
BRANCH  17  18
HETATM   18  O   UNL     1      14.377  56.957  52.639  1.00  0.00    -0.387 OA
HETATM   19  C   UNL     1      15.322  57.819  53.269  1.00  0.00     0.202 C 
ENDBRANCH  17  18
ENDBRANCH  14  17
ENDBRANCH   9  13
ENDBRANCH   4   7
BRANCH   6  20
HETATM   20  C   UNL     1      22.599  51.270  48.364  1.00  0.00     0.185 C 
BRANCH  20  21
HETATM   21  N   UNL     1      23.331  50.170  48.938  1.00  0.00    -0.351 N 
HETATM   22  C   UNL     1      24.491  49.681  48.380  1.00  0.00     0.258 C 
HETATM   23  O   UNL     1      24.939  50.142  47.333  1.00  0.00    -0.267 OA
HETATM   24  H   UNL     1      22.938  49.697  49.741  1.00  0.00     0.163 HD
BRANCH  22  25
HETATM   25  C   UNL     1      25.152  48.610  49.114  1.00  0.00     0.073 A 
HETATM   26  S   UNL     1      24.290  47.326  49.854  1.00  0.00    -0.087 SA
HETATM   27  C   UNL     1      25.712  46.636  50.510  1.00  0.00     0.007 A 
HETATM   28  C   UNL     1      26.832  47.355  50.144  1.00  0.00     0.018 A 
HETATM   29  C   UNL     1      26.511  48.486  49.342  1.00  0.00     0.026 A 
BRANCH  27  30
HETATM   30  C   UNL     1      25.641  45.408  51.360  1.00  0.00     0.213 C 
BRANCH  30  31
HETATM   31  O   UNL     1      25.522  44.302  50.468  1.00  0.00    -0.391 OA
HETATM   32  C   UNL     1      25.008  43.153  51.123  1.00  0.00     0.201 C 
ENDBRANCH  30  31
ENDBRANCH  27  30
ENDBRANCH  22  25
ENDBRANCH  20  21
ENDBRANCH   6  20
TORSDOF 9
ENDMDL
