MODEL 1
REMARK VINA RESULT:      -9.8      0.000      0.000
REMARK  6 active torsions:
REMARK  status: ('A' for Active; 'I' for Inactive)
REMARK    1  A    between atoms: C_2  and  O_3 
REMARK    2  A    between atoms: C_2  and  C_4 
REMARK    3  A    between atoms: C_6  and  N_7 
REMARK       I    between atoms: N_7  and  C_8 
REMARK    4  A    between atoms: C_8  and  C_9 
REMARK    5  A    between atoms: C_14  and  C_15 
REMARK    6  A    between atoms: C_23  and  C_24 
ROOT
HETATM    1  C   UNL     1      25.382  45.485  50.660  1.00  0.00     0.148 A 
HETATM    2  N   UNL     1      24.875  44.720  51.657  1.00  0.00    -0.165 NA
HETATM    3  N   UNL     1      25.974  44.220  52.257  1.00  0.00    -0.240 N 
HETATM    4  C   UNL     1      27.142  44.546  51.627  1.00  0.00     0.123 A 
HETATM    5  N   UNL     1      28.334  44.069  52.034  1.00  0.00    -0.366 N 
HETATM    6  C   UNL     1      28.491  43.262  53.234  1.00  0.00     0.118 C 
HETATM    7  C   UNL     1      27.180  42.559  53.629  1.00  0.00     0.066 C 
HETATM    8  C   UNL     1      25.890  43.380  53.435  1.00  0.00     0.221 C 
HETATM    9  C   UNL     1      26.798  45.389  50.606  1.00  0.00     0.089 A 
HETATM   10  H   UNL     1      29.201  44.421  51.630  1.00  0.00     0.161 HD
ENDROOT
BRANCH   1  11
HETATM   11  C   UNL     1      24.538  46.293  49.763  1.00  0.00     0.276 C 
HETATM   12  N   UNL     1      24.585  47.640  50.066  1.00  0.00    -0.322 N 
HETATM   13  H   UNL     1      25.159  47.857  50.877  1.00  0.00     0.169 HD
HETATM   14  O   UNL     1      23.879  45.766  48.872  1.00  0.00    -0.266 OA
BRANCH  12  15
HETATM   15  C   UNL     1      23.938  48.698  49.405  1.00  0.00     0.035 A 
HETATM   16  C   UNL     1      22.596  49.032  49.606  1.00  0.00     0.039 A 
HETATM   17  C   UNL     1      21.992  50.095  48.908  1.00  0.00    -0.028 A 
HETATM   18  C   UNL     1      22.771  50.838  48.014  1.00  0.00     0.010 A 
HETATM   19  C   UNL     1      24.111  50.514  47.804  1.00  0.00     0.003 A 
HETATM   20  C   UNL     1      24.690  49.445  48.492  1.00  0.00     0.029 A 
BRANCH  17  21
HETATM   21  C   UNL     1      20.534  50.414  49.161  1.00  0.00     0.147 C 
HETATM   22  C   UNL     1      20.122  51.722  48.495  1.00  0.00     0.044 C 
BRANCH  21  23
HETATM   23  O   UNL     1      19.700  49.363  48.676  1.00  0.00    -0.391 OA
HETATM   24  H   UNL     1      18.991  49.782  48.162  1.00  0.00     0.210 HD
ENDBRANCH  21  23
ENDBRANCH  17  21
ENDBRANCH  12  15
ENDBRANCH   1  11
BRANCH   8  25
HETATM   25  C   UNL     1      25.508  44.202  54.646  1.00  0.00     0.409 C 
HETATM   26  F   UNL     1      25.816  45.507  54.536  1.00  0.00    -0.169 F 
HETATM   27  F   UNL     1      24.186  44.119  54.919  1.00  0.00    -0.169 F 
HETATM   28  F   UNL     1      26.149  43.732  55.747  1.00  0.00    -0.169 F 
ENDBRANCH   8  25
BRANCH   6  29
HETATM   29  C   UNL     1      29.190  44.030  54.343  1.00  0.00    -0.035 A 
HETATM   30  C   UNL     1      30.231  43.479  55.111  1.00  0.00     0.012 A 
HETATM   31  C   UNL     1      30.820  44.205  56.149  1.00  0.00     0.043 A 
HETATM   32  C   UNL     1      30.363  45.482  56.438  1.00  0.00     0.116 A 
HETATM   33  F   UNL     1      30.916  46.171  57.444  1.00  0.00    -0.206 F 
HETATM   34  C   UNL     1      29.334  46.053  55.701  1.00  0.00     0.043 A 
HETATM   35  C   UNL     1      28.754  45.333  54.653  1.00  0.00     0.012 A 
ENDBRANCH   6  29
TORSDOF 6
ENDMDL
MODEL 2
REMARK VINA RESULT:      -9.4      4.129     10.241
REMARK  6 active torsions:
REMARK  status: ('A' for Active; 'I' for Inactive)
REMARK    1  A    between atoms: C_2  and  O_3 
REMARK    2  A    between atoms: C_2  and  C_4 
REMARK    3  A    between atoms: C_6  and  N_7 
REMARK       I    between atoms: N_7  and  C_8 
REMARK    4  A    between atoms: C_8  and  C_9 
REMARK    5  A    between atoms: C_14  and  C_15 
REMARK    6  A    between atoms: C_23  and  C_24 
ROOT
HETATM    1  C   UNL     1      24.261  47.516  50.143  1.00  0.00     0.148 A 
HETATM    2  N   UNL     1      23.989  48.830  49.958  1.00  0.00    -0.165 NA
HETATM    3  N   UNL     1      22.974  48.816  49.070  1.00  0.00    -0.240 N 
HETATM    4  C   UNL     1      22.663  47.569  48.608  1.00  0.00     0.123 A 
HETATM    5  N   UNL     1      21.731  47.368  47.655  1.00  0.00    -0.366 N 
HETATM    6  C   UNL     1      20.909  48.441  47.120  1.00  0.00     0.118 C 
HETATM    7  C   UNL     1      21.571  49.819  47.301  1.00  0.00     0.066 C 
HETATM    8  C   UNL     1      22.323  50.035  48.631  1.00  0.00     0.221 C 
HETATM    9  C   UNL     1      23.456  46.699  49.304  1.00  0.00     0.089 A 
HETATM   10  H   UNL     1      21.427  46.425  47.416  1.00  0.00     0.161 HD
ENDROOT
BRANCH   1  11
HETATM   11  C   UNL     1      25.275  47.036  51.098  1.00  0.00     0.276 C 
HETATM   12  N   UNL     1      25.043  45.737  51.505  1.00  0.00    -0.322 N 
HETATM   13  H   UNL     1      24.195  45.331  51.116  1.00  0.00     0.169 HD
HETATM   14  O   UNL     1      26.193  47.764  51.461  1.00  0.00    -0.266 OA
BRANCH  12  15
HETATM   15  C   UNL     1      25.818  44.952  52.376  1.00  0.00     0.035 A 
HETATM   16  C   UNL     1      27.069  44.426  52.040  1.00  0.00     0.039 A 
HETATM   17  C   UNL     1      27.799  43.634  52.946  1.00  0.00    -0.028 A 
HETATM   18  C   UNL     1      27.258  43.396  54.215  1.00  0.00     0.010 A 
HETATM   19  C   UNL     1      26.011  43.914  54.561  1.00  0.00     0.003 A 
HETATM   20  C   UNL     1      25.291  44.682  53.644  1.00  0.00     0.029 A 
BRANCH  17  21
HETATM   21  C   UNL     1      29.148  43.087  52.532  1.00  0.00     0.147 C 
HETATM   22  C   UNL     1      30.101  42.987  53.717  1.00  0.00     0.044 C 
BRANCH  21  23
HETATM   23  O   UNL     1      29.005  41.797  51.941  1.00  0.00    -0.391 OA
HETATM   24  H   UNL     1      29.598  41.772  51.172  1.00  0.00     0.210 HD
ENDBRANCH  21  23
ENDBRANCH  17  21
ENDBRANCH  12  15
ENDBRANCH   1  11
BRANCH   8  25
HETATM   25  C   UNL     1      21.454  50.599  49.733  1.00  0.00     0.409 C 
HETATM   26  F   UNL     1      22.149  51.136  50.752  1.00  0.00    -0.169 F 
HETATM   27  F   UNL     1      20.606  51.548  49.275  1.00  0.00    -0.169 F 
HETATM   28  F   UNL     1      20.673  49.618  50.256  1.00  0.00    -0.169 F 
ENDBRANCH   8  25
BRANCH   6  29
HETATM   29  C   UNL     1      19.467  48.334  47.587  1.00  0.00    -0.035 A 
HETATM   30  C   UNL     1      18.950  47.180  48.202  1.00  0.00     0.012 A 
HETATM   31  C   UNL     1      17.608  47.106  48.581  1.00  0.00     0.043 A 
HETATM   32  C   UNL     1      16.767  48.181  48.333  1.00  0.00     0.116 A 
HETATM   33  F   UNL     1      15.475  48.105  48.681  1.00  0.00    -0.206 F 
HETATM   34  C   UNL     1      17.245  49.333  47.724  1.00  0.00     0.043 A 
HETATM   35  C   UNL     1      18.591  49.412  47.359  1.00  0.00     0.012 A 
ENDBRANCH   6  29
TORSDOF 6
ENDMDL
MODEL 3
REMARK VINA RESULT:      -9.1     17.607     19.255
REMARK  6 active torsions:
REMARK  status: ('A' for Active; 'I' for Inactive)
REMARK    1  A    between atoms: C_2  and  O_3 
REMARK    2  A    between atoms: C_2  and  C_4 
REMARK    3  A    between atoms: C_6  and  N_7 
REMARK       I    between atoms: N_7  and  C_8 
REMARK    4  A    between atoms: C_8  and  C_9 
REMARK    5  A    between atoms: C_14  and  C_15 
REMARK    6  A    between atoms: C_23  and  C_24 
ROOT
HETATM    1  C   UNL     1      38.815  46.731  65.424  1.00  0.00     0.148 A 
HETATM    2  N   UNL     1      37.664  46.020  65.366  1.00  0.00    -0.165 NA
HETATM    3  N   UNL     1      37.981  44.976  64.574  1.00  0.00    -0.240 N 
HETATM    4  C   UNL     1      39.239  45.047  64.046  1.00  0.00     0.123 A 
HETATM    5  N   UNL     1      39.702  44.136  63.168  1.00  0.00    -0.366 N 
HETATM    6  C   UNL     1      38.947  42.951  62.792  1.00  0.00     0.118 C 
HETATM    7  C   UNL     1      37.436  43.135  63.020  1.00  0.00     0.066 C 
HETATM    8  C   UNL     1      37.037  43.914  64.290  1.00  0.00     0.221 C 
HETATM    9  C   UNL     1      39.819  46.155  64.599  1.00  0.00     0.089 A 
HETATM   10  H   UNL     1      40.681  44.138  62.884  1.00  0.00     0.161 HD
ENDROOT
BRANCH   1  11
HETATM   11  C   UNL     1      38.965  47.945  66.245  1.00  0.00     0.276 C 
HETATM   12  N   UNL     1      37.882  48.795  66.132  1.00  0.00    -0.322 N 
HETATM   13  H   UNL     1      37.175  48.472  65.476  1.00  0.00     0.169 HD
HETATM   14  O   UNL     1      39.972  48.127  66.922  1.00  0.00    -0.266 OA
BRANCH  12  15
HETATM   15  C   UNL     1      37.670  50.018  66.792  1.00  0.00     0.035 A 
HETATM   16  C   UNL     1      37.878  51.266  66.198  1.00  0.00     0.039 A 
HETATM   17  C   UNL     1      37.663  52.461  66.908  1.00  0.00    -0.028 A 
HETATM   18  C   UNL     1      37.208  52.383  68.230  1.00  0.00     0.010 A 
HETATM   19  C   UNL     1      36.998  51.144  68.834  1.00  0.00     0.003 A 
HETATM   20  C   UNL     1      37.235  49.967  68.120  1.00  0.00     0.029 A 
BRANCH  17  21
HETATM   21  C   UNL     1      37.904  53.787  66.218  1.00  0.00     0.147 C 
HETATM   22  C   UNL     1      37.184  54.928  66.927  1.00  0.00     0.044 C 
BRANCH  21  23
HETATM   23  O   UNL     1      39.300  54.079  66.169  1.00  0.00    -0.391 OA
HETATM   24  H   UNL     1      39.717  53.373  65.649  1.00  0.00     0.210 HD
ENDBRANCH  21  23
ENDBRANCH  17  21
ENDBRANCH  12  15
ENDBRANCH   1  11
BRANCH   8  25
HETATM   25  C   UNL     1      36.847  43.033  65.506  1.00  0.00     0.409 C 
HETATM   26  F   UNL     1      35.825  43.410  66.295  1.00  0.00    -0.169 F 
HETATM   27  F   UNL     1      36.644  41.740  65.168  1.00  0.00    -0.169 F 
HETATM   28  F   UNL     1      37.969  43.051  66.271  1.00  0.00    -0.169 F 
ENDBRANCH   8  25
BRANCH   6  29
HETATM   29  C   UNL     1      39.556  41.687  63.377  1.00  0.00    -0.035 A 
HETATM   30  C   UNL     1      40.411  41.700  64.492  1.00  0.00     0.012 A 
HETATM   31  C   UNL     1      40.982  40.519  64.974  1.00  0.00     0.043 A 
HETATM   32  C   UNL     1      40.714  39.318  64.334  1.00  0.00     0.116 A 
HETATM   33  F   UNL     1      41.275  38.188  64.785  1.00  0.00    -0.206 F 
HETATM   34  C   UNL     1      39.876  39.273  63.228  1.00  0.00     0.043 A 
HETATM   35  C   UNL     1      39.294  40.451  62.755  1.00  0.00     0.012 A 
ENDBRANCH   6  29
TORSDOF 6
ENDMDL
MODEL 4
REMARK VINA RESULT:      -8.9      2.556      4.012
REMARK  6 active torsions:
REMARK  status: ('A' for Active; 'I' for Inactive)
REMARK    1  A    between atoms: C_2  and  O_3 
REMARK    2  A    between atoms: C_2  and  C_4 
REMARK    3  A    between atoms: C_6  and  N_7 
REMARK       I    between atoms: N_7  and  C_8 
REMARK    4  A    between atoms: C_8  and  C_9 
REMARK    5  A    between atoms: C_14  and  C_15 
REMARK    6  A    between atoms: C_23  and  C_24 
ROOT
HETATM    1  C   UNL     1      24.017  48.105  49.359  1.00  0.00     0.148 A 
HETATM    2  N   UNL     1      23.498  46.863  49.208  1.00  0.00    -0.165 NA
HETATM    3  N   UNL     1      24.556  46.054  49.421  1.00  0.00    -0.240 N 
HETATM    4  C   UNL     1      25.733  46.723  49.596  1.00  0.00     0.123 A 
HETATM    5  N   UNL     1      26.909  46.081  49.740  1.00  0.00    -0.366 N 
HETATM    6  C   UNL     1      27.009  44.633  49.830  1.00  0.00     0.118 C 
HETATM    7  C   UNL     1      25.797  43.932  49.190  1.00  0.00     0.066 C 
HETATM    8  C   UNL     1      24.430  44.610  49.415  1.00  0.00     0.221 C 
HETATM    9  C   UNL     1      25.417  48.053  49.591  1.00  0.00     0.089 A 
HETATM   10  H   UNL     1      27.754  46.592  49.993  1.00  0.00     0.161 HD
ENDROOT
BRANCH   1  11
HETATM   11  C   UNL     1      23.200  49.329  49.278  1.00  0.00     0.276 C 
HETATM   12  N   UNL     1      21.868  49.058  49.037  1.00  0.00    -0.322 N 
HETATM   13  H   UNL     1      21.667  48.069  48.915  1.00  0.00     0.169 HD
HETATM   14  O   UNL     1      23.711  50.437  49.408  1.00  0.00    -0.266 OA
BRANCH  12  15
HETATM   15  C   UNL     1      20.805  49.972  48.933  1.00  0.00     0.035 A 
HETATM   16  C   UNL     1      20.127  50.241  47.740  1.00  0.00     0.039 A 
HETATM   17  C   UNL     1      19.077  51.176  47.688  1.00  0.00    -0.028 A 
HETATM   18  C   UNL     1      18.699  51.826  48.869  1.00  0.00     0.010 A 
HETATM   19  C   UNL     1      19.368  51.567  50.065  1.00  0.00     0.003 A 
HETATM   20  C   UNL     1      20.420  50.650  50.095  1.00  0.00     0.029 A 
BRANCH  17  21
HETATM   21  C   UNL     1      18.377  51.431  46.371  1.00  0.00     0.147 C 
HETATM   22  C   UNL     1      17.581  50.214  45.913  1.00  0.00     0.044 C 
BRANCH  21  23
HETATM   23  O   UNL     1      17.495  52.548  46.480  1.00  0.00    -0.391 OA
HETATM   24  H   UNL     1      16.699  52.233  46.939  1.00  0.00     0.210 HD
ENDBRANCH  21  23
ENDBRANCH  17  21
ENDBRANCH  12  15
ENDBRANCH   1  11
BRANCH   8  25
HETATM   25  C   UNL     1      23.716  44.135  50.661  1.00  0.00     0.409 C 
HETATM   26  F   UNL     1      23.874  44.948  51.722  1.00  0.00    -0.169 F 
HETATM   27  F   UNL     1      22.387  43.985  50.458  1.00  0.00    -0.169 F 
HETATM   28  F   UNL     1      24.181  42.912  51.025  1.00  0.00    -0.169 F 
ENDBRANCH   8  25
BRANCH   6  29
HETATM   29  C   UNL     1      27.370  44.178  51.235  1.00  0.00    -0.035 A 
HETATM   30  C   UNL     1      27.965  42.933  51.502  1.00  0.00     0.012 A 
HETATM   31  C   UNL     1      28.244  42.536  52.812  1.00  0.00     0.043 A 
HETATM   32  C   UNL     1      27.917  43.375  53.866  1.00  0.00     0.116 A 
HETATM   33  F   UNL     1      28.170  42.987  55.124  1.00  0.00    -0.206 F 
HETATM   34  C   UNL     1      27.326  44.610  53.636  1.00  0.00     0.043 A 
HETATM   35  C   UNL     1      27.059  45.013  52.325  1.00  0.00     0.012 A 
ENDBRANCH   6  29
TORSDOF 6
ENDMDL
MODEL 5
REMARK VINA RESULT:      -8.9      6.186      9.580
REMARK  6 active torsions:
REMARK  status: ('A' for Active; 'I' for Inactive)
REMARK    1  A    between atoms: C_2  and  O_3 
REMARK    2  A    between atoms: C_2  and  C_4 
REMARK    3  A    between atoms: C_6  and  N_7 
REMARK       I    between atoms: N_7  and  C_8 
REMARK    4  A    between atoms: C_8  and  C_9 
REMARK    5  A    between atoms: C_14  and  C_15 
REMARK    6  A    between atoms: C_23  and  C_24 
ROOT
HETATM    1  C   UNL     1      27.424  42.462  50.744  1.00  0.00     0.148 A 
HETATM    2  N   UNL     1      27.564  41.120  50.867  1.00  0.00    -0.165 NA
HETATM    3  N   UNL     1      27.201  40.656  49.654  1.00  0.00    -0.240 N 
HETATM    4  C   UNL     1      26.741  41.626  48.809  1.00  0.00     0.123 A 
HETATM    5  N   UNL     1      26.258  41.341  47.584  1.00  0.00    -0.366 N 
HETATM    6  C   UNL     1      26.284  40.000  47.020  1.00  0.00     0.118 C 
HETATM    7  C   UNL     1      26.363  38.919  48.113  1.00  0.00     0.066 C 
HETATM    8  C   UNL     1      27.261  39.247  49.322  1.00  0.00     0.221 C 
HETATM    9  C   UNL     1      26.900  42.812  49.472  1.00  0.00     0.089 A 
HETATM   10  H   UNL     1      26.037  42.086  46.925  1.00  0.00     0.161 HD
ENDROOT
BRANCH   1  11
HETATM   11  C   UNL     1      27.777  43.404  51.821  1.00  0.00     0.276 C 
HETATM   12  N   UNL     1      28.648  42.853  52.740  1.00  0.00    -0.322 N 
HETATM   13  H   UNL     1      28.877  41.879  52.554  1.00  0.00     0.169 HD
HETATM   14  O   UNL     1      27.305  44.536  51.847  1.00  0.00    -0.266 OA
BRANCH  12  15
HETATM   15  C   UNL     1      29.218  43.467  53.869  1.00  0.00     0.035 A 
HETATM   16  C   UNL     1      28.717  44.636  54.450  1.00  0.00     0.039 A 
HETATM   17  C   UNL     1      29.334  45.219  55.573  1.00  0.00    -0.028 A 
HETATM   18  C   UNL     1      30.458  44.591  56.122  1.00  0.00     0.010 A 
HETATM   19  C   UNL     1      30.966  43.425  55.550  1.00  0.00     0.003 A 
HETATM   20  C   UNL     1      30.353  42.870  54.425  1.00  0.00     0.029 A 
BRANCH  17  21
HETATM   21  C   UNL     1      28.753  46.486  56.163  1.00  0.00     0.147 C 
HETATM   22  C   UNL     1      27.509  46.939  55.407  1.00  0.00     0.044 C 
BRANCH  21  23
HETATM   23  O   UNL     1      28.415  46.289  57.535  1.00  0.00    -0.391 OA
HETATM   24  H   UNL     1      29.199  46.531  58.055  1.00  0.00     0.210 HD
ENDBRANCH  21  23
ENDBRANCH  17  21
ENDBRANCH  12  15
ENDBRANCH   1  11
BRANCH   8  25
HETATM   25  C   UNL     1      28.697  38.804  49.147  1.00  0.00     0.409 C 
HETATM   26  F   UNL     1      29.322  38.519  50.304  1.00  0.00    -0.169 F 
HETATM   27  F   UNL     1      28.799  37.715  48.352  1.00  0.00    -0.169 F 
HETATM   28  F   UNL     1      29.414  39.783  48.538  1.00  0.00    -0.169 F 
ENDBRANCH   8  25
BRANCH   6  29
HETATM   29  C   UNL     1      27.300  39.881  45.896  1.00  0.00    -0.035 A 
HETATM   30  C   UNL     1      27.889  40.999  45.282  1.00  0.00     0.012 A 
HETATM   31  C   UNL     1      28.789  40.848  44.224  1.00  0.00     0.043 A 
HETATM   32  C   UNL     1      29.094  39.576  43.762  1.00  0.00     0.116 A 
HETATM   33  F   UNL     1      29.944  39.431  42.736  1.00  0.00    -0.206 F 
HETATM   34  C   UNL     1      28.526  38.452  44.345  1.00  0.00     0.043 A 
HETATM   35  C   UNL     1      27.638  38.602  45.412  1.00  0.00     0.012 A 
ENDBRANCH   6  29
TORSDOF 6
ENDMDL
MODEL 6
REMARK VINA RESULT:      -8.8      6.586      9.754
REMARK  6 active torsions:
REMARK  status: ('A' for Active; 'I' for Inactive)
REMARK    1  A    between atoms: C_2  and  O_3 
REMARK    2  A    between atoms: C_2  and  C_4 
REMARK    3  A    between atoms: C_6  and  N_7 
REMARK       I    between atoms: N_7  and  C_8 
REMARK    4  A    between atoms: C_8  and  C_9 
REMARK    5  A    between atoms: C_14  and  C_15 
REMARK    6  A    between atoms: C_23  and  C_24 
ROOT
HETATM    1  C   UNL     1      28.405  41.604  51.542  1.00  0.00     0.148 A 
HETATM    2  N   UNL     1      28.658  40.275  51.468  1.00  0.00    -0.165 NA
HETATM    3  N   UNL     1      27.996  39.893  50.357  1.00  0.00    -0.240 N 
HETATM    4  C   UNL     1      27.256  40.889  49.787  1.00  0.00     0.123 A 
HETATM    5  N   UNL     1      26.464  40.673  48.718  1.00  0.00    -0.366 N 
HETATM    6  C   UNL     1      26.413  39.399  48.021  1.00  0.00     0.118 C 
HETATM    7  C   UNL     1      26.866  38.233  48.919  1.00  0.00     0.066 C 
HETATM    8  C   UNL     1      28.048  38.531  49.864  1.00  0.00     0.221 C 
HETATM    9  C   UNL     1      27.521  42.019  50.510  1.00  0.00     0.089 A 
HETATM   10  H   UNL     1      26.019  41.453  48.234  1.00  0.00     0.161 HD
ENDROOT
BRANCH   1  11
HETATM   11  C   UNL     1      28.988  42.473  52.579  1.00  0.00     0.276 C 
HETATM   12  N   UNL     1      28.101  43.435  53.021  1.00  0.00    -0.322 N 
HETATM   13  H   UNL     1      27.206  43.419  52.538  1.00  0.00     0.169 HD
HETATM   14  O   UNL     1      30.145  42.314  52.957  1.00  0.00    -0.266 OA
BRANCH  12  15
HETATM   15  C   UNL     1      28.303  44.405  54.019  1.00  0.00     0.035 A 
HETATM   16  C   UNL     1      29.346  44.354  54.948  1.00  0.00     0.039 A 
HETATM   17  C   UNL     1      29.496  45.345  55.937  1.00  0.00    -0.028 A 
HETATM   18  C   UNL     1      28.586  46.409  55.963  1.00  0.00     0.010 A 
HETATM   19  C   UNL     1      27.541  46.469  55.042  1.00  0.00     0.003 A 
HETATM   20  C   UNL     1      27.396  45.468  54.079  1.00  0.00     0.029 A 
BRANCH  17  21
HETATM   21  C   UNL     1      30.642  45.243  56.920  1.00  0.00     0.147 C 
HETATM   22  C   UNL     1      30.210  45.635  58.328  1.00  0.00     0.044 C 
BRANCH  21  23
HETATM   23  O   UNL     1      31.162  43.915  56.947  1.00  0.00    -0.391 OA
HETATM   24  H   UNL     1      31.711  43.812  56.152  1.00  0.00     0.210 HD
ENDBRANCH  21  23
ENDBRANCH  17  21
ENDBRANCH  12  15
ENDBRANCH   1  11
BRANCH   8  25
HETATM   25  C   UNL     1      29.401  38.240  49.252  1.00  0.00     0.409 C 
HETATM   26  F   UNL     1      30.272  37.671  50.105  1.00  0.00    -0.169 F 
HETATM   27  F   UNL     1      29.305  37.434  48.171  1.00  0.00    -0.169 F 
HETATM   28  F   UNL     1      29.969  39.393  48.812  1.00  0.00    -0.169 F 
ENDBRANCH   8  25
BRANCH   6  29
HETATM   29  C   UNL     1      27.074  39.476  46.655  1.00  0.00    -0.035 A 
HETATM   30  C   UNL     1      27.106  38.391  45.762  1.00  0.00     0.012 A 
HETATM   31  C   UNL     1      27.760  38.491  44.531  1.00  0.00     0.043 A 
HETATM   32  C   UNL     1      28.401  39.672  44.191  1.00  0.00     0.116 A 
HETATM   33  F   UNL     1      29.042  39.763  43.018  1.00  0.00    -0.206 F 
HETATM   34  C   UNL     1      28.391  40.762  45.052  1.00  0.00     0.043 A 
HETATM   35  C   UNL     1      27.725  40.667  46.276  1.00  0.00     0.012 A 
ENDBRANCH   6  29
TORSDOF 6
ENDMDL
MODEL 7
REMARK VINA RESULT:      -8.8     13.883     16.488
REMARK  6 active torsions:
REMARK  status: ('A' for Active; 'I' for Inactive)
REMARK    1  A    between atoms: C_2  and  O_3 
REMARK    2  A    between atoms: C_2  and  C_4 
REMARK    3  A    between atoms: C_6  and  N_7 
REMARK       I    between atoms: N_7  and  C_8 
REMARK    4  A    between atoms: C_8  and  C_9 
REMARK    5  A    between atoms: C_14  and  C_15 
REMARK    6  A    between atoms: C_23  and  C_24 
ROOT
HETATM    1  C   UNL     1      35.811  52.332  42.957  1.00  0.00     0.148 A 
HETATM    2  N   UNL     1      35.657  51.711  41.762  1.00  0.00    -0.165 NA
HETATM    3  N   UNL     1      34.472  51.080  41.890  1.00  0.00    -0.240 N 
HETATM    4  C   UNL     1      33.923  51.186  43.136  1.00  0.00     0.123 A 
HETATM    5  N   UNL     1      32.782  50.553  43.474  1.00  0.00    -0.366 N 
HETATM    6  C   UNL     1      31.988  49.798  42.518  1.00  0.00     0.118 C 
HETATM    7  C   UNL     1      32.828  49.329  41.316  1.00  0.00     0.066 C 
HETATM    8  C   UNL     1      33.882  50.329  40.800  1.00  0.00     0.221 C 
HETATM    9  C   UNL     1      34.749  52.015  43.844  1.00  0.00     0.089 A 
HETATM   10  H   UNL     1      32.325  50.744  44.365  1.00  0.00     0.161 HD
ENDROOT
BRANCH   1  11
HETATM   11  C   UNL     1      36.955  53.211  43.259  1.00  0.00     0.276 C 
HETATM   12  N   UNL     1      37.022  53.547  44.597  1.00  0.00    -0.322 N 
HETATM   13  H   UNL     1      36.257  53.171  45.152  1.00  0.00     0.169 HD
HETATM   14  O   UNL     1      37.719  53.578  42.372  1.00  0.00    -0.266 OA
BRANCH  12  15
HETATM   15  C   UNL     1      37.991  54.335  45.243  1.00  0.00     0.035 A 
HETATM   16  C   UNL     1      38.167  55.700  45.001  1.00  0.00     0.039 A 
HETATM   17  C   UNL     1      39.162  56.440  45.666  1.00  0.00    -0.028 A 
HETATM   18  C   UNL     1      39.969  55.787  46.604  1.00  0.00     0.010 A 
HETATM   19  C   UNL     1      39.804  54.425  46.853  1.00  0.00     0.003 A 
HETATM   20  C   UNL     1      38.824  53.701  46.171  1.00  0.00     0.029 A 
BRANCH  17  21
HETATM   21  C   UNL     1      39.312  57.917  45.366  1.00  0.00     0.147 C 
HETATM   22  C   UNL     1      38.069  58.480  44.687  1.00  0.00     0.044 C 
BRANCH  21  23
HETATM   23  O   UNL     1      39.556  58.648  46.567  1.00  0.00    -0.391 OA
HETATM   24  H   UNL     1      40.437  58.387  46.881  1.00  0.00     0.210 HD
ENDBRANCH  21  23
ENDBRANCH  17  21
ENDBRANCH  12  15
ENDBRANCH   1  11
BRANCH   8  25
HETATM   25  C   UNL     1      33.357  51.265  39.733  1.00  0.00     0.409 C 
HETATM   26  F   UNL     1      33.058  52.494  40.189  1.00  0.00    -0.169 F 
HETATM   27  F   UNL     1      34.233  51.412  38.713  1.00  0.00    -0.169 F 
HETATM   28  F   UNL     1      32.223  50.756  39.186  1.00  0.00    -0.169 F 
ENDBRANCH   8  25
BRANCH   6  29
HETATM   29  C   UNL     1      30.688  50.508  42.179  1.00  0.00    -0.035 A 
HETATM   30  C   UNL     1      29.533  49.823  41.762  1.00  0.00     0.012 A 
HETATM   31  C   UNL     1      28.369  50.517  41.421  1.00  0.00     0.043 A 
HETATM   32  C   UNL     1      28.356  51.902  41.479  1.00  0.00     0.116 A 
HETATM   33  F   UNL     1      27.246  52.569  41.136  1.00  0.00    -0.206 F 
HETATM   34  C   UNL     1      29.481  52.609  41.884  1.00  0.00     0.043 A 
HETATM   35  C   UNL     1      30.640  51.915  42.239  1.00  0.00     0.012 A 
ENDBRANCH   6  29
TORSDOF 6
ENDMDL
MODEL 8
REMARK VINA RESULT:      -8.8     13.957     16.431
REMARK  6 active torsions:
REMARK  status: ('A' for Active; 'I' for Inactive)
REMARK    1  A    between atoms: C_2  and  O_3 
REMARK    2  A    between atoms: C_2  and  C_4 
REMARK    3  A    between atoms: C_6  and  N_7 
REMARK       I    between atoms: N_7  and  C_8 
REMARK    4  A    between atoms: C_8  and  C_9 
REMARK    5  A    between atoms: C_14  and  C_15 
REMARK    6  A    between atoms: C_23  and  C_24 
ROOT
HETATM    1  C   UNL     1      33.566  52.120  40.122  1.00  0.00     0.148 A 
HETATM    2  N   UNL     1      32.605  52.769  40.823  1.00  0.00    -0.165 NA
HETATM    3  N   UNL     1      31.491  52.562  40.092  1.00  0.00    -0.240 N 
HETATM    4  C   UNL     1      31.718  51.905  38.916  1.00  0.00     0.123 A 
HETATM    5  N   UNL     1      30.739  51.681  38.018  1.00  0.00    -0.366 N 
HETATM    6  C   UNL     1      29.348  52.020  38.270  1.00  0.00     0.118 C 
HETATM    7  C   UNL     1      29.208  53.122  39.335  1.00  0.00     0.066 C 
HETATM    8  C   UNL     1      30.193  53.043  40.519  1.00  0.00     0.221 C 
HETATM    9  C   UNL     1      33.046  51.577  38.916  1.00  0.00     0.089 A 
HETATM   10  H   UNL     1      30.902  51.082  37.209  1.00  0.00     0.161 HD
ENDROOT
BRANCH   1  11
HETATM   11  C   UNL     1      34.961  52.018  40.583  1.00  0.00     0.276 C 
HETATM   12  N   UNL     1      35.052  51.786  41.941  1.00  0.00    -0.322 N 
HETATM   13  H   UNL     1      34.152  51.761  42.413  1.00  0.00     0.169 HD
HETATM   14  O   UNL     1      35.895  52.146  39.797  1.00  0.00    -0.266 OA
BRANCH  12  15
HETATM   15  C   UNL     1      36.214  51.602  42.711  1.00  0.00     0.035 A 
HETATM   16  C   UNL     1      36.627  52.484  43.714  1.00  0.00     0.039 A 
HETATM   17  C   UNL     1      37.807  52.260  44.448  1.00  0.00    -0.028 A 
HETATM   18  C   UNL     1      38.559  51.112  44.172  1.00  0.00     0.010 A 
HETATM   19  C   UNL     1      38.158  50.225  43.174  1.00  0.00     0.003 A 
HETATM   20  C   UNL     1      36.994  50.473  42.443  1.00  0.00     0.029 A 
BRANCH  17  21
HETATM   21  C   UNL     1      38.210  53.247  45.522  1.00  0.00     0.147 C 
HETATM   22  C   UNL     1      37.368  54.516  45.463  1.00  0.00     0.044 C 
BRANCH  21  23
HETATM   23  O   UNL     1      38.077  52.661  46.816  1.00  0.00    -0.391 OA
HETATM   24  H   UNL     1      37.166  52.329  46.881  1.00  0.00     0.210 HD
ENDBRANCH  21  23
ENDBRANCH  17  21
ENDBRANCH  12  15
ENDBRANCH   1  11
BRANCH   8  25
HETATM   25  C   UNL     1      29.678  52.221  41.680  1.00  0.00     0.409 C 
HETATM   26  F   UNL     1      30.121  50.950  41.684  1.00  0.00    -0.169 F 
HETATM   27  F   UNL     1      30.005  52.768  42.873  1.00  0.00    -0.169 F 
HETATM   28  F   UNL     1      28.321  52.170  41.648  1.00  0.00    -0.169 F 
ENDBRANCH   8  25
BRANCH   6  29
HETATM   29  C   UNL     1      28.495  50.780  38.485  1.00  0.00    -0.035 A 
HETATM   30  C   UNL     1      29.041  49.533  38.836  1.00  0.00     0.012 A 
HETATM   31  C   UNL     1      28.226  48.408  38.986  1.00  0.00     0.043 A 
HETATM   32  C   UNL     1      26.861  48.518  38.770  1.00  0.00     0.116 A 
HETATM   33  F   UNL     1      26.081  47.436  38.896  1.00  0.00    -0.206 F 
HETATM   34  C   UNL     1      26.291  49.735  38.419  1.00  0.00     0.043 A 
HETATM   35  C   UNL     1      27.104  50.863  38.283  1.00  0.00     0.012 A 
ENDBRANCH   6  29
TORSDOF 6
ENDMDL
MODEL 9
REMARK VINA RESULT:      -8.7      6.368      9.737
REMARK  6 active torsions:
REMARK  status: ('A' for Active; 'I' for Inactive)
REMARK    1  A    between atoms: C_2  and  O_3 
REMARK    2  A    between atoms: C_2  and  C_4 
REMARK    3  A    between atoms: C_6  and  N_7 
REMARK       I    between atoms: N_7  and  C_8 
REMARK    4  A    between atoms: C_8  and  C_9 
REMARK    5  A    between atoms: C_14  and  C_15 
REMARK    6  A    between atoms: C_23  and  C_24 
ROOT
HETATM    1  C   UNL     1      27.968  42.035  51.998  1.00  0.00     0.148 A 
HETATM    2  N   UNL     1      27.309  42.506  50.911  1.00  0.00    -0.165 NA
HETATM    3  N   UNL     1      27.613  41.611  49.950  1.00  0.00    -0.240 N 
HETATM    4  C   UNL     1      28.510  40.660  50.345  1.00  0.00     0.123 A 
HETATM    5  N   UNL     1      28.994  39.732  49.497  1.00  0.00    -0.366 N 
HETATM    6  C   UNL     1      28.524  39.596  48.128  1.00  0.00     0.118 C 
HETATM    7  C   UNL     1      27.901  40.903  47.602  1.00  0.00     0.066 C 
HETATM    8  C   UNL     1      27.057  41.702  48.615  1.00  0.00     0.221 C 
HETATM    9  C   UNL     1      28.739  40.886  51.675  1.00  0.00     0.089 A 
HETATM   10  H   UNL     1      29.563  38.959  49.841  1.00  0.00     0.161 HD
ENDROOT
BRANCH   1  11
HETATM   11  C   UNL     1      27.875  42.666  53.326  1.00  0.00     0.276 C 
HETATM   12  N   UNL     1      28.896  43.569  53.553  1.00  0.00    -0.322 N 
HETATM   13  H   UNL     1      29.568  43.627  52.791  1.00  0.00     0.169 HD
HETATM   14  O   UNL     1      26.973  42.370  54.102  1.00  0.00    -0.266 OA
BRANCH  12  15
HETATM   15  C   UNL     1      29.102  44.373  54.687  1.00  0.00     0.035 A 
HETATM   16  C   UNL     1      29.966  44.032  55.732  1.00  0.00     0.039 A 
HETATM   17  C   UNL     1      30.127  44.868  56.852  1.00  0.00    -0.028 A 
HETATM   18  C   UNL     1      29.418  46.074  56.897  1.00  0.00     0.010 A 
HETATM   19  C   UNL     1      28.553  46.425  55.861  1.00  0.00     0.003 A 
HETATM   20  C   UNL     1      28.391  45.575  54.765  1.00  0.00     0.029 A 
BRANCH  17  21
HETATM   21  C   UNL     1      31.074  44.452  57.958  1.00  0.00     0.147 C 
HETATM   22  C   UNL     1      32.201  43.572  57.429  1.00  0.00     0.044 C 
BRANCH  21  23
HETATM   23  O   UNL     1      31.639  45.598  58.591  1.00  0.00    -0.391 OA
HETATM   24  H   UNL     1      31.382  45.558  59.527  1.00  0.00     0.210 HD
ENDBRANCH  21  23
ENDBRANCH  17  21
ENDBRANCH  12  15
ENDBRANCH   1  11
BRANCH   8  25
HETATM   25  C   UNL     1      25.594  41.315  48.622  1.00  0.00     0.409 C 
HETATM   26  F   UNL     1      24.757  42.358  48.768  1.00  0.00    -0.169 F 
HETATM   27  F   UNL     1      25.237  40.663  47.492  1.00  0.00    -0.169 F 
HETATM   28  F   UNL     1      25.345  40.458  49.646  1.00  0.00    -0.169 F 
ENDBRANCH   8  25
BRANCH   6  29
HETATM   29  C   UNL     1      27.687  38.342  47.940  1.00  0.00    -0.035 A 
HETATM   30  C   UNL     1      27.082  37.663  49.012  1.00  0.00     0.012 A 
HETATM   31  C   UNL     1      26.354  36.490  48.801  1.00  0.00     0.043 A 
HETATM   32  C   UNL     1      26.238  35.977  47.518  1.00  0.00     0.116 A 
HETATM   33  F   UNL     1      25.553  34.843  47.317  1.00  0.00    -0.206 F 
HETATM   34  C   UNL     1      26.826  36.622  46.438  1.00  0.00     0.043 A 
HETATM   35  C   UNL     1      27.542  37.803  46.647  1.00  0.00     0.012 A 
ENDBRANCH   6  29
TORSDOF 6
ENDMDL
MODEL 10
REMARK VINA RESULT:      -8.7      6.111     12.362
REMARK  6 active torsions:
REMARK  status: ('A' for Active; 'I' for Inactive)
REMARK    1  A    between atoms: C_2  and  O_3 
REMARK    2  A    between atoms: C_2  and  C_4 
REMARK    3  A    between atoms: C_6  and  N_7 
REMARK       I    between atoms: N_7  and  C_8 
REMARK    4  A    between atoms: C_8  and  C_9 
REMARK    5  A    between atoms: C_14  and  C_15 
REMARK    6  A    between atoms: C_23  and  C_24 
ROOT
HETATM    1  C   UNL     1      20.495  50.754  49.089  1.00  0.00     0.148 A 
HETATM    2  N   UNL     1      19.601  49.741  48.984  1.00  0.00    -0.165 NA
HETATM    3  N   UNL     1      18.510  50.340  48.466  1.00  0.00    -0.240 N 
HETATM    4  C   UNL     1      18.634  51.694  48.335  1.00  0.00     0.123 A 
HETATM    5  N   UNL     1      17.618  52.471  47.912  1.00  0.00    -0.366 N 
HETATM    6  C   UNL     1      16.348  51.927  47.458  1.00  0.00     0.118 C 
HETATM    7  C   UNL     1      16.086  50.523  48.033  1.00  0.00     0.066 C 
HETATM    8  C   UNL     1      17.313  49.595  48.130  1.00  0.00     0.221 C 
HETATM    9  C   UNL     1      19.918  51.993  48.701  1.00  0.00     0.089 A 
HETATM   10  H   UNL     1      17.769  53.457  47.703  1.00  0.00     0.161 HD
ENDROOT
BRANCH   1  11
HETATM   11  C   UNL     1      21.879  50.555  49.555  1.00  0.00     0.276 C 
HETATM   12  N   UNL     1      22.619  49.772  48.691  1.00  0.00    -0.322 N 
HETATM   13  H   UNL     1      22.087  49.426  47.896  1.00  0.00     0.169 HD
HETATM   14  O   UNL     1      22.265  51.049  50.610  1.00  0.00    -0.266 OA
BRANCH  12  15
HETATM   15  C   UNL     1      23.972  49.407  48.799  1.00  0.00     0.035 A 
HETATM   16  C   UNL     1      24.423  48.322  49.556  1.00  0.00     0.039 A 
HETATM   17  C   UNL     1      25.792  48.006  49.641  1.00  0.00    -0.028 A 
HETATM   18  C   UNL     1      26.707  48.791  48.929  1.00  0.00     0.010 A 
HETATM   19  C   UNL     1      26.268  49.877  48.171  1.00  0.00     0.003 A 
HETATM   20  C   UNL     1      24.908  50.187  48.113  1.00  0.00     0.029 A 
BRANCH  17  21
HETATM   21  C   UNL     1      26.229  46.821  50.475  1.00  0.00     0.147 C 
HETATM   22  C   UNL     1      25.380  46.676  51.733  1.00  0.00     0.044 C 
BRANCH  21  23
HETATM   23  O   UNL     1      26.143  45.616  49.716  1.00  0.00    -0.391 OA
HETATM   24  H   UNL     1      26.434  45.830  48.815  1.00  0.00     0.210 HD
ENDBRANCH  21  23
ENDBRANCH  17  21
ENDBRANCH  12  15
ENDBRANCH   1  11
BRANCH   8  25
HETATM   25  C   UNL     1      17.539  48.759  46.890  1.00  0.00     0.409 C 
HETATM   26  F   UNL     1      16.417  48.510  46.191  1.00  0.00    -0.169 F 
HETATM   27  F   UNL     1      18.424  49.335  46.045  1.00  0.00    -0.169 F 
HETATM   28  F   UNL     1      18.072  47.557  47.231  1.00  0.00    -0.169 F 
ENDBRANCH   8  25
BRANCH   6  29
HETATM   29  C   UNL     1      16.178  52.069  45.955  1.00  0.00    -0.035 A 
HETATM   30  C   UNL     1      17.161  52.642  45.129  1.00  0.00     0.012 A 
HETATM   31  C   UNL     1      16.950  52.791  43.756  1.00  0.00     0.043 A 
HETATM   32  C   UNL     1      15.746  52.382  43.201  1.00  0.00     0.116 A 
HETATM   33  F   UNL     1      15.536  52.540  41.887  1.00  0.00    -0.206 F 
HETATM   34  C   UNL     1      14.754  51.816  43.990  1.00  0.00     0.043 A 
HETATM   35  C   UNL     1      14.971  51.654  45.360  1.00  0.00     0.012 A 
ENDBRANCH   6  29
TORSDOF 6
ENDMDL
