MODEL 1
REMARK VINA RESULT:      -9.0      0.000      0.000
REMARK  5 active torsions:
REMARK  status: ('A' for Active; 'I' for Inactive)
REMARK    1  A    between atoms: C_6  and  N_7 
REMARK       I    between atoms: N_7  and  C_8 
REMARK    2  A    between atoms: C_8  and  C_9 
REMARK    3  A    between atoms: C_11  and  O_12 
REMARK    4  A    between atoms: C_15  and  O_16 
REMARK    5  A    between atoms: C_20  and  C_21 
ROOT
HETATM    1  C   UNL     1      26.770  48.492  55.648  1.00  0.00     0.073 C 
HETATM    2  C   UNL     1      26.447  47.559  54.540  1.00  0.00     0.065 A 
HETATM    3  N   UNL     1      25.435  47.834  53.707  1.00  0.00    -0.177 NA
HETATM    4  N   UNL     1      25.406  46.779  52.873  1.00  0.00    -0.262 N 
HETATM    5  H   UNL     1      24.701  46.732  52.141  1.00  0.00     0.191 HD
HETATM    6  C   UNL     1      26.388  45.855  53.118  1.00  0.00     0.137 A 
HETATM    7  C   UNL     1      27.079  46.326  54.216  1.00  0.00     0.046 A 
ENDROOT
BRANCH   6   8
HETATM    8  N   UNL     1      26.575  44.711  52.364  1.00  0.00    -0.307 N 
HETATM    9  C   UNL     1      25.513  43.955  51.907  1.00  0.00     0.257 C 
HETATM   10  O   UNL     1      24.326  44.191  52.105  1.00  0.00    -0.267 OA
HETATM   11  H   UNL     1      27.527  44.392  52.219  1.00  0.00     0.170 HD
BRANCH   9  12
HETATM   12  C   UNL     1      25.914  42.740  51.165  1.00  0.00     0.037 A 
HETATM   13  C   UNL     1      25.100  42.296  50.122  1.00  0.00     0.054 A 
HETATM   14  C   UNL     1      25.412  41.113  49.454  1.00  0.00     0.071 A 
HETATM   15  C   UNL     1      26.565  40.411  49.810  1.00  0.00     0.073 A 
HETATM   16  C   UNL     1      27.404  40.876  50.833  1.00  0.00     0.071 A 
HETATM   17  C   UNL     1      27.073  42.039  51.523  1.00  0.00     0.054 A 
BRANCH  14  18
HETATM   18  O   UNL     1      24.519  40.753  48.483  1.00  0.00    -0.356 OA
HETATM   19  C   UNL     1      23.282  41.454  48.457  1.00  0.00     0.210 C 
ENDBRANCH  14  18
BRANCH  16  20
HETATM   20  O   UNL     1      28.503  40.094  51.066  1.00  0.00    -0.356 OA
HETATM   21  C   UNL     1      28.802  39.094  50.099  1.00  0.00     0.210 C 
ENDBRANCH  16  20
ENDBRANCH   9  12
ENDBRANCH   6   8
BRANCH   7  22
HETATM   22  C   UNL     1      28.187  45.640  54.851  1.00  0.00    -0.020 A 
HETATM   23  C   UNL     1      28.842  46.219  55.944  1.00  0.00     0.014 A 
HETATM   24  C   UNL     1      29.914  45.558  56.552  1.00  0.00     0.020 A 
HETATM   25  C   UNL     1      30.328  44.319  56.068  1.00  0.00     0.011 A 
HETATM   26 BR   UNL     1      31.779  43.428  56.888  1.00  0.00    -0.051 Br
HETATM   27  C   UNL     1      29.680  43.730  54.984  1.00  0.00     0.020 A 
HETATM   28  C   UNL     1      28.608  44.389  54.378  1.00  0.00     0.014 A 
ENDBRANCH   7  22
TORSDOF 5
ENDMDL
MODEL 2
REMARK VINA RESULT:      -9.0      0.523      2.455
REMARK  5 active torsions:
REMARK  status: ('A' for Active; 'I' for Inactive)
REMARK    1  A    between atoms: C_6  and  N_7 
REMARK       I    between atoms: N_7  and  C_8 
REMARK    2  A    between atoms: C_8  and  C_9 
REMARK    3  A    between atoms: C_11  and  O_12 
REMARK    4  A    between atoms: C_15  and  O_16 
REMARK    5  A    between atoms: C_20  and  C_21 
ROOT
HETATM    1  C   UNL     1      26.784  48.544  55.642  1.00  0.00     0.073 C 
HETATM    2  C   UNL     1      26.427  47.604  54.550  1.00  0.00     0.065 A 
HETATM    3  N   UNL     1      25.402  47.885  53.734  1.00  0.00    -0.177 NA
HETATM    4  N   UNL     1      25.343  46.823  52.910  1.00  0.00    -0.262 N 
HETATM    5  H   UNL     1      24.624  46.779  52.193  1.00  0.00     0.191 HD
HETATM    6  C   UNL     1      26.317  45.888  53.146  1.00  0.00     0.137 A 
HETATM    7  C   UNL     1      27.036  46.360  54.226  1.00  0.00     0.046 A 
ENDROOT
BRANCH   6   8
HETATM    8  N   UNL     1      26.474  44.734  52.400  1.00  0.00    -0.307 N 
HETATM    9  C   UNL     1      25.393  44.045  51.884  1.00  0.00     0.257 C 
HETATM   10  O   UNL     1      24.215  44.354  52.018  1.00  0.00    -0.267 OA
HETATM   11  H   UNL     1      27.410  44.357  52.306  1.00  0.00     0.170 HD
BRANCH   9  12
HETATM   12  C   UNL     1      25.758  42.808  51.161  1.00  0.00     0.037 A 
HETATM   13  C   UNL     1      26.914  42.126  51.544  1.00  0.00     0.054 A 
HETATM   14  C   UNL     1      27.323  40.999  50.834  1.00  0.00     0.071 A 
HETATM   15  C   UNL     1      26.541  40.540  49.772  1.00  0.00     0.073 A 
HETATM   16  C   UNL     1      25.359  41.202  49.409  1.00  0.00     0.071 A 
HETATM   17  C   UNL     1      24.970  42.348  50.098  1.00  0.00     0.054 A 
BRANCH  14  18
HETATM   18  O   UNL     1      28.493  40.442  51.270  1.00  0.00    -0.356 OA
HETATM   19  C   UNL     1      28.940  40.820  52.566  1.00  0.00     0.210 C 
ENDBRANCH  14  18
BRANCH  16  20
HETATM   20  O   UNL     1      24.690  40.635  48.358  1.00  0.00    -0.356 OA
HETATM   21  C   UNL     1      23.384  41.127  48.082  1.00  0.00     0.210 C 
ENDBRANCH  16  20
ENDBRANCH   9  12
ENDBRANCH   6   8
BRANCH   7  22
HETATM   22  C   UNL     1      28.146  45.665  54.846  1.00  0.00    -0.020 A 
HETATM   23  C   UNL     1      28.818  46.237  55.932  1.00  0.00     0.014 A 
HETATM   24  C   UNL     1      29.892  45.567  56.526  1.00  0.00     0.020 A 
HETATM   25  C   UNL     1      30.291  44.325  56.035  1.00  0.00     0.011 A 
HETATM   26 BR   UNL     1      31.746  43.423  56.836  1.00  0.00    -0.051 Br
HETATM   27  C   UNL     1      29.626  43.743  54.958  1.00  0.00     0.020 A 
HETATM   28  C   UNL     1      28.552  44.412  54.366  1.00  0.00     0.014 A 
ENDBRANCH   7  22
TORSDOF 5
ENDMDL
MODEL 3
REMARK VINA RESULT:      -8.9      1.154      2.575
REMARK  5 active torsions:
REMARK  status: ('A' for Active; 'I' for Inactive)
REMARK    1  A    between atoms: C_6  and  N_7 
REMARK       I    between atoms: N_7  and  C_8 
REMARK    2  A    between atoms: C_8  and  C_9 
REMARK    3  A    between atoms: C_11  and  O_12 
REMARK    4  A    between atoms: C_15  and  O_16 
REMARK    5  A    between atoms: C_20  and  C_21 
ROOT
HETATM    1  C   UNL     1      26.633  48.151  55.498  1.00  0.00     0.073 C 
HETATM    2  C   UNL     1      26.504  47.255  54.322  1.00  0.00     0.065 A 
HETATM    3  N   UNL     1      25.562  47.492  53.400  1.00  0.00    -0.177 NA
HETATM    4  N   UNL     1      25.708  46.484  52.521  1.00  0.00    -0.262 N 
HETATM    5  H   UNL     1      25.088  46.420  51.718  1.00  0.00     0.191 HD
HETATM    6  C   UNL     1      26.736  45.630  52.827  1.00  0.00     0.137 A 
HETATM    7  C   UNL     1      27.269  46.096  54.012  1.00  0.00     0.046 A 
ENDROOT
BRANCH   6   8
HETATM    8  N   UNL     1      27.096  44.547  52.046  1.00  0.00    -0.307 N 
HETATM    9  C   UNL     1      26.157  43.674  51.531  1.00  0.00     0.257 C 
HETATM   10  O   UNL     1      24.944  43.745  51.695  1.00  0.00    -0.267 OA
HETATM   11  H   UNL     1      28.085  44.361  51.925  1.00  0.00     0.170 HD
BRANCH   9  12
HETATM   12  C   UNL     1      26.737  42.548  50.768  1.00  0.00     0.037 A 
HETATM   13  C   UNL     1      27.537  41.625  51.443  1.00  0.00     0.054 A 
HETATM   14  C   UNL     1      28.158  40.597  50.737  1.00  0.00     0.071 A 
HETATM   15  C   UNL     1      27.932  40.478  49.364  1.00  0.00     0.073 A 
HETATM   16  C   UNL     1      27.099  41.383  48.690  1.00  0.00     0.071 A 
HETATM   17  C   UNL     1      26.507  42.430  49.391  1.00  0.00     0.054 A 
BRANCH  14  18
HETATM   18  O   UNL     1      28.954  39.782  51.494  1.00  0.00    -0.356 OA
HETATM   19  C   UNL     1      29.488  38.631  50.852  1.00  0.00     0.210 C 
ENDBRANCH  14  18
BRANCH  16  20
HETATM   20  O   UNL     1      26.960  41.138  47.351  1.00  0.00    -0.356 OA
HETATM   21  C   UNL     1      28.154  40.933  46.604  1.00  0.00     0.210 C 
ENDBRANCH  16  20
ENDBRANCH   9  12
ENDBRANCH   6   8
BRANCH   7  22
HETATM   22  C   UNL     1      28.362  45.469  54.728  1.00  0.00    -0.020 A 
HETATM   23  C   UNL     1      28.754  44.163  54.413  1.00  0.00     0.014 A 
HETATM   24  C   UNL     1      29.806  43.558  55.107  1.00  0.00     0.020 A 
HETATM   25  C   UNL     1      30.466  44.260  56.114  1.00  0.00     0.011 A 
HETATM   26 BR   UNL     1      31.886  43.440  57.055  1.00  0.00    -0.051 Br
HETATM   27  C   UNL     1      30.089  45.564  56.433  1.00  0.00     0.020 A 
HETATM   28  C   UNL     1      29.039  46.168  55.737  1.00  0.00     0.014 A 
ENDBRANCH   7  22
TORSDOF 5
ENDMDL
MODEL 4
REMARK VINA RESULT:      -8.8      3.647      7.820
REMARK  5 active torsions:
REMARK  status: ('A' for Active; 'I' for Inactive)
REMARK    1  A    between atoms: C_6  and  N_7 
REMARK       I    between atoms: N_7  and  C_8 
REMARK    2  A    between atoms: C_8  and  C_9 
REMARK    3  A    between atoms: C_11  and  O_12 
REMARK    4  A    between atoms: C_15  and  O_16 
REMARK    5  A    between atoms: C_20  and  C_21 
ROOT
HETATM    1  C   UNL     1      27.302  39.550  48.892  1.00  0.00     0.073 C 
HETATM    2  C   UNL     1      27.783  40.212  50.130  1.00  0.00     0.065 A 
HETATM    3  N   UNL     1      28.743  39.637  50.867  1.00  0.00    -0.177 NA
HETATM    4  N   UNL     1      28.896  40.474  51.909  1.00  0.00    -0.262 N 
HETATM    5  H   UNL     1      29.567  40.252  52.640  1.00  0.00     0.191 HD
HETATM    6  C   UNL     1      28.095  41.585  51.847  1.00  0.00     0.137 A 
HETATM    7  C   UNL     1      27.339  41.437  50.702  1.00  0.00     0.046 A 
ENDROOT
BRANCH   6   8
HETATM    8  N   UNL     1      28.111  42.599  52.787  1.00  0.00    -0.307 N 
HETATM    9  C   UNL     1      29.288  43.062  53.343  1.00  0.00     0.257 C 
HETATM   10  O   UNL     1      30.414  42.651  53.086  1.00  0.00    -0.267 OA
HETATM   11  H   UNL     1      27.219  42.944  53.122  1.00  0.00     0.170 HD
BRANCH   9  12
HETATM   12  C   UNL     1      29.097  44.111  54.368  1.00  0.00     0.037 A 
HETATM   13  C   UNL     1      27.967  44.925  54.288  1.00  0.00     0.054 A 
HETATM   14  C   UNL     1      27.798  45.969  55.196  1.00  0.00     0.071 A 
HETATM   15  C   UNL     1      28.746  46.157  56.204  1.00  0.00     0.073 A 
HETATM   16  C   UNL     1      29.864  45.317  56.308  1.00  0.00     0.071 A 
HETATM   17  C   UNL     1      30.049  44.295  55.379  1.00  0.00     0.054 A 
BRANCH  14  18
HETATM   18  O   UNL     1      26.679  46.728  54.993  1.00  0.00    -0.356 OA
HETATM   19  C   UNL     1      26.737  48.083  55.420  1.00  0.00     0.210 C 
ENDBRANCH  14  18
BRANCH  16  20
HETATM   20  O   UNL     1      30.701  45.611  57.350  1.00  0.00    -0.356 OA
HETATM   21  C   UNL     1      31.244  44.513  58.074  1.00  0.00     0.210 C 
ENDBRANCH  16  20
ENDBRANCH   9  12
ENDBRANCH   6   8
BRANCH   7  22
HETATM   22  C   UNL     1      26.321  42.369  50.259  1.00  0.00    -0.020 A 
HETATM   23  C   UNL     1      24.967  42.026  50.344  1.00  0.00     0.014 A 
HETATM   24  C   UNL     1      23.986  42.925  49.913  1.00  0.00     0.020 A 
HETATM   25  C   UNL     1      24.361  44.165  49.400  1.00  0.00     0.011 A 
HETATM   26 BR   UNL     1      23.034  45.377  48.813  1.00  0.00    -0.051 Br
HETATM   27  C   UNL     1      25.706  44.519  49.315  1.00  0.00     0.020 A 
HETATM   28  C   UNL     1      26.685  43.622  49.748  1.00  0.00     0.014 A 
ENDBRANCH   7  22
TORSDOF 5
ENDMDL
MODEL 5
REMARK VINA RESULT:      -8.6      1.668      2.549
REMARK  5 active torsions:
REMARK  status: ('A' for Active; 'I' for Inactive)
REMARK    1  A    between atoms: C_6  and  N_7 
REMARK       I    between atoms: N_7  and  C_8 
REMARK    2  A    between atoms: C_8  and  C_9 
REMARK    3  A    between atoms: C_11  and  O_12 
REMARK    4  A    between atoms: C_15  and  O_16 
REMARK    5  A    between atoms: C_20  and  C_21 
ROOT
HETATM    1  C   UNL     1      26.221  47.130  54.351  1.00  0.00     0.073 C 
HETATM    2  C   UNL     1      26.359  46.116  53.277  1.00  0.00     0.065 A 
HETATM    3  N   UNL     1      25.520  46.129  52.233  1.00  0.00    -0.177 NA
HETATM    4  N   UNL     1      25.905  45.071  51.495  1.00  0.00    -0.262 N 
HETATM    5  H   UNL     1      25.405  44.843  50.640  1.00  0.00     0.191 HD
HETATM    6  C   UNL     1      26.985  44.403  52.010  1.00  0.00     0.137 A 
HETATM    7  C   UNL     1      27.299  45.051  53.188  1.00  0.00     0.046 A 
ENDROOT
BRANCH   6   8
HETATM    8  N   UNL     1      27.577  43.311  51.403  1.00  0.00    -0.307 N 
HETATM    9  C   UNL     1      26.830  42.275  50.874  1.00  0.00     0.257 C 
HETATM   10  O   UNL     1      25.606  42.197  50.879  1.00  0.00    -0.267 OA
HETATM   11  H   UNL     1      28.588  43.249  51.425  1.00  0.00     0.170 HD
BRANCH   9  12
HETATM   12  C   UNL     1      27.641  41.172  50.315  1.00  0.00     0.037 A 
HETATM   13  C   UNL     1      27.643  40.979  48.933  1.00  0.00     0.054 A 
HETATM   14  C   UNL     1      28.338  39.903  48.385  1.00  0.00     0.071 A 
HETATM   15  C   UNL     1      29.063  39.056  49.227  1.00  0.00     0.073 A 
HETATM   16  C   UNL     1      29.092  39.272  50.612  1.00  0.00     0.071 A 
HETATM   17  C   UNL     1      28.369  40.327  51.163  1.00  0.00     0.054 A 
BRANCH  14  18
HETATM   18  O   UNL     1      28.231  39.786  47.027  1.00  0.00    -0.356 OA
HETATM   19  C   UNL     1      27.988  40.982  46.297  1.00  0.00     0.210 C 
ENDBRANCH  14  18
BRANCH  16  20
HETATM   20  O   UNL     1      29.851  38.372  51.311  1.00  0.00    -0.356 OA
HETATM   21  C   UNL     1      29.667  36.995  51.005  1.00  0.00     0.210 C 
ENDBRANCH  16  20
ENDBRANCH   9  12
ENDBRANCH   6   8
BRANCH   7  22
HETATM   22  C   UNL     1      28.362  44.655  54.090  1.00  0.00    -0.020 A 
HETATM   23  C   UNL     1      28.906  43.368  54.017  1.00  0.00     0.014 A 
HETATM   24  C   UNL     1      29.929  42.986  54.890  1.00  0.00     0.020 A 
HETATM   25  C   UNL     1      30.409  43.893  55.833  1.00  0.00     0.011 A 
HETATM   26 BR   UNL     1      31.789  43.374  57.016  1.00  0.00    -0.051 Br
HETATM   27  C   UNL     1      29.879  45.179  55.912  1.00  0.00     0.020 A 
HETATM   28  C   UNL     1      28.859  45.561  55.038  1.00  0.00     0.014 A 
ENDBRANCH   7  22
TORSDOF 5
ENDMDL
MODEL 6
REMARK VINA RESULT:      -8.5      3.407      6.211
REMARK  5 active torsions:
REMARK  status: ('A' for Active; 'I' for Inactive)
REMARK    1  A    between atoms: C_6  and  N_7 
REMARK       I    between atoms: N_7  and  C_8 
REMARK    2  A    between atoms: C_8  and  C_9 
REMARK    3  A    between atoms: C_11  and  O_12 
REMARK    4  A    between atoms: C_15  and  O_16 
REMARK    5  A    between atoms: C_20  and  C_21 
ROOT
HETATM    1  C   UNL     1      29.129  39.730  52.184  1.00  0.00     0.073 C 
HETATM    2  C   UNL     1      28.407  40.766  51.404  1.00  0.00     0.065 A 
HETATM    3  N   UNL     1      27.839  40.447  50.233  1.00  0.00    -0.177 NA
HETATM    4  N   UNL     1      27.321  41.609  49.798  1.00  0.00    -0.262 N 
HETATM    5  H   UNL     1      26.841  41.645  48.902  1.00  0.00     0.191 HD
HETATM    6  C   UNL     1      27.504  42.655  50.666  1.00  0.00     0.137 A 
HETATM    7  C   UNL     1      28.228  42.141  51.722  1.00  0.00     0.046 A 
ENDROOT
BRANCH   6   8
HETATM    8  N   UNL     1      27.023  43.933  50.445  1.00  0.00    -0.307 N 
HETATM    9  C   UNL     1      25.688  44.176  50.185  1.00  0.00     0.257 C 
HETATM   10  O   UNL     1      24.803  43.330  50.118  1.00  0.00    -0.267 OA
HETATM   11  H   UNL     1      27.697  44.688  50.399  1.00  0.00     0.170 HD
BRANCH   9  12
HETATM   12  C   UNL     1      25.376  45.598  49.922  1.00  0.00     0.037 A 
HETATM   13  C   UNL     1      26.416  46.528  49.958  1.00  0.00     0.054 A 
HETATM   14  C   UNL     1      26.141  47.883  49.787  1.00  0.00     0.071 A 
HETATM   15  C   UNL     1      24.828  48.287  49.537  1.00  0.00     0.073 A 
HETATM   16  C   UNL     1      23.787  47.351  49.464  1.00  0.00     0.071 A 
HETATM   17  C   UNL     1      24.058  46.000  49.669  1.00  0.00     0.054 A 
BRANCH  14  18
HETATM   18  O   UNL     1      27.230  48.704  49.889  1.00  0.00    -0.356 OA
HETATM   19  C   UNL     1      27.441  49.624  48.824  1.00  0.00     0.210 C 
ENDBRANCH  14  18
BRANCH  16  20
HETATM   20  O   UNL     1      22.556  47.888  49.202  1.00  0.00    -0.356 OA
HETATM   21  C   UNL     1      22.469  49.307  49.141  1.00  0.00     0.210 C 
ENDBRANCH  16  20
ENDBRANCH   9  12
ENDBRANCH   6   8
BRANCH   7  22
HETATM   22  C   UNL     1      28.683  42.911  52.863  1.00  0.00    -0.020 A 
HETATM   23  C   UNL     1      30.001  42.786  53.318  1.00  0.00     0.014 A 
HETATM   24  C   UNL     1      30.436  43.527  54.421  1.00  0.00     0.020 A 
HETATM   25  C   UNL     1      29.555  44.392  55.066  1.00  0.00     0.011 A 
HETATM   26 BR   UNL     1      30.144  45.390  56.560  1.00  0.00    -0.051 Br
HETATM   27  C   UNL     1      28.242  44.529  54.619  1.00  0.00     0.020 A 
HETATM   28  C   UNL     1      27.808  43.791  53.516  1.00  0.00     0.014 A 
ENDBRANCH   7  22
TORSDOF 5
ENDMDL
MODEL 7
REMARK VINA RESULT:      -8.5      3.672      8.131
REMARK  5 active torsions:
REMARK  status: ('A' for Active; 'I' for Inactive)
REMARK    1  A    between atoms: C_6  and  N_7 
REMARK       I    between atoms: N_7  and  C_8 
REMARK    2  A    between atoms: C_8  and  C_9 
REMARK    3  A    between atoms: C_11  and  O_12 
REMARK    4  A    between atoms: C_15  and  O_16 
REMARK    5  A    between atoms: C_20  and  C_21 
ROOT
HETATM    1  C   UNL     1      26.819  38.505  48.660  1.00  0.00     0.073 C 
HETATM    2  C   UNL     1      27.613  39.241  49.674  1.00  0.00     0.065 A 
HETATM    3  N   UNL     1      28.721  38.689  50.186  1.00  0.00    -0.177 NA
HETATM    4  N   UNL     1      29.152  39.597  51.080  1.00  0.00    -0.262 N 
HETATM    5  H   UNL     1      29.985  39.407  51.632  1.00  0.00     0.191 HD
HETATM    6  C   UNL     1      28.381  40.729  51.133  1.00  0.00     0.137 A 
HETATM    7  C   UNL     1      27.352  40.522  50.236  1.00  0.00     0.046 A 
ENDROOT
BRANCH   6   8
HETATM    8  N   UNL     1      28.655  41.810  51.950  1.00  0.00    -0.307 N 
HETATM    9  C   UNL     1      28.624  41.712  53.328  1.00  0.00     0.257 C 
HETATM   10  O   UNL     1      28.360  40.701  53.969  1.00  0.00    -0.267 OA
HETATM   11  H   UNL     1      28.803  42.710  51.507  1.00  0.00     0.170 HD
BRANCH   9  12
HETATM   12  C   UNL     1      28.891  42.987  54.028  1.00  0.00     0.037 A 
HETATM   13  C   UNL     1      30.030  43.083  54.828  1.00  0.00     0.054 A 
HETATM   14  C   UNL     1      30.268  44.246  55.559  1.00  0.00     0.071 A 
HETATM   15  C   UNL     1      29.382  45.319  55.443  1.00  0.00     0.073 A 
HETATM   16  C   UNL     1      28.257  45.237  54.611  1.00  0.00     0.071 A 
HETATM   17  C   UNL     1      28.002  44.063  53.908  1.00  0.00     0.054 A 
BRANCH  14  18
HETATM   18  O   UNL     1      31.388  44.208  56.343  1.00  0.00    -0.356 OA
HETATM   19  C   UNL     1      31.620  43.010  57.074  1.00  0.00     0.210 C 
ENDBRANCH  14  18
BRANCH  16  20
HETATM   20  O   UNL     1      27.485  46.367  54.586  1.00  0.00    -0.356 OA
HETATM   21  C   UNL     1      26.152  46.230  54.109  1.00  0.00     0.210 C 
ENDBRANCH  16  20
ENDBRANCH   9  12
ENDBRANCH   6   8
BRANCH   7  22
HETATM   22  C   UNL     1      26.270  41.455  49.992  1.00  0.00    -0.020 A 
HETATM   23  C   UNL     1      25.886  41.763  48.682  1.00  0.00     0.014 A 
HETATM   24  C   UNL     1      24.844  42.665  48.448  1.00  0.00     0.020 A 
HETATM   25  C   UNL     1      24.187  43.258  49.525  1.00  0.00     0.011 A 
HETATM   26 BR   UNL     1      22.782  44.482  49.208  1.00  0.00    -0.051 Br
HETATM   27  C   UNL     1      24.557  42.955  50.834  1.00  0.00     0.020 A 
HETATM   28  C   UNL     1      25.596  42.051  51.067  1.00  0.00     0.014 A 
ENDBRANCH   7  22
TORSDOF 5
ENDMDL
MODEL 8
REMARK VINA RESULT:      -8.3      3.422      4.803
REMARK  5 active torsions:
REMARK  status: ('A' for Active; 'I' for Inactive)
REMARK    1  A    between atoms: C_6  and  N_7 
REMARK       I    between atoms: N_7  and  C_8 
REMARK    2  A    between atoms: C_8  and  C_9 
REMARK    3  A    between atoms: C_11  and  O_12 
REMARK    4  A    between atoms: C_15  and  O_16 
REMARK    5  A    between atoms: C_20  and  C_21 
ROOT
HETATM    1  C   UNL     1      28.677  46.219  55.994  1.00  0.00     0.073 C 
HETATM    2  C   UNL     1      27.565  46.522  55.059  1.00  0.00     0.065 A 
HETATM    3  N   UNL     1      26.880  47.666  55.182  1.00  0.00    -0.177 NA
HETATM    4  N   UNL     1      25.945  47.590  54.218  1.00  0.00    -0.262 N 
HETATM    5  H   UNL     1      25.269  48.341  54.108  1.00  0.00     0.191 HD
HETATM    6  C   UNL     1      26.031  46.453  53.455  1.00  0.00     0.137 A 
HETATM    7  C   UNL     1      27.072  45.722  53.991  1.00  0.00     0.046 A 
ENDROOT
BRANCH   6   8
HETATM    8  N   UNL     1      25.200  46.180  52.385  1.00  0.00    -0.307 N 
HETATM    9  C   UNL     1      25.288  46.876  51.194  1.00  0.00     0.257 C 
HETATM   10  O   UNL     1      26.077  47.783  50.950  1.00  0.00    -0.267 OA
HETATM   11  H   UNL     1      24.461  45.500  52.523  1.00  0.00     0.170 HD
BRANCH   9  12
HETATM   12  C   UNL     1      24.281  46.478  50.188  1.00  0.00     0.037 A 
HETATM   13  C   UNL     1      23.802  47.445  49.303  1.00  0.00     0.054 A 
HETATM   14  C   UNL     1      22.799  47.117  48.393  1.00  0.00     0.071 A 
HETATM   15  C   UNL     1      22.318  45.807  48.350  1.00  0.00     0.073 A 
HETATM   16  C   UNL     1      22.824  44.825  49.213  1.00  0.00     0.071 A 
HETATM   17  C   UNL     1      23.802  45.162  50.145  1.00  0.00     0.054 A 
BRANCH  14  18
HETATM   18  O   UNL     1      22.376  48.156  47.610  1.00  0.00    -0.356 OA
HETATM   19  C   UNL     1      22.724  49.466  48.039  1.00  0.00     0.210 C 
ENDBRANCH  14  18
BRANCH  16  20
HETATM   20  O   UNL     1      22.268  43.585  49.051  1.00  0.00    -0.356 OA
HETATM   21  C   UNL     1      23.037  42.469  49.484  1.00  0.00     0.210 C 
ENDBRANCH  16  20
ENDBRANCH   9  12
ENDBRANCH   6   8
BRANCH   7  22
HETATM   22  C   UNL     1      27.495  44.419  53.516  1.00  0.00    -0.020 A 
HETATM   23  C   UNL     1      27.311  43.284  54.315  1.00  0.00     0.014 A 
HETATM   24  C   UNL     1      27.723  42.029  53.857  1.00  0.00     0.020 A 
HETATM   25  C   UNL     1      28.315  41.910  52.601  1.00  0.00     0.011 A 
HETATM   26 BR   UNL     1      28.876  40.213  51.985  1.00  0.00    -0.051 Br
HETATM   27  C   UNL     1      28.498  43.032  51.795  1.00  0.00     0.020 A 
HETATM   28  C   UNL     1      28.085  44.285  52.252  1.00  0.00     0.014 A 
ENDBRANCH   7  22
TORSDOF 5
ENDMDL
MODEL 9
REMARK VINA RESULT:      -8.3      3.565      5.774
REMARK  5 active torsions:
REMARK  status: ('A' for Active; 'I' for Inactive)
REMARK    1  A    between atoms: C_6  and  N_7 
REMARK       I    between atoms: N_7  and  C_8 
REMARK    2  A    between atoms: C_8  and  C_9 
REMARK    3  A    between atoms: C_11  and  O_12 
REMARK    4  A    between atoms: C_15  and  O_16 
REMARK    5  A    between atoms: C_20  and  C_21 
ROOT
HETATM    1  C   UNL     1      28.894  40.344  52.511  1.00  0.00     0.073 C 
HETATM    2  C   UNL     1      28.209  41.323  51.631  1.00  0.00     0.065 A 
HETATM    3  N   UNL     1      27.825  40.962  50.400  1.00  0.00    -0.177 NA
HETATM    4  N   UNL     1      27.287  42.083  49.886  1.00  0.00    -0.262 N 
HETATM    5  H   UNL     1      26.929  42.082  48.934  1.00  0.00     0.191 HD
HETATM    6  C   UNL     1      27.278  43.141  50.759  1.00  0.00     0.137 A 
HETATM    7  C   UNL     1      27.891  42.683  51.907  1.00  0.00     0.046 A 
ENDROOT
BRANCH   6   8
HETATM    8  N   UNL     1      26.741  44.380  50.462  1.00  0.00    -0.307 N 
HETATM    9  C   UNL     1      25.384  44.562  50.274  1.00  0.00     0.257 C 
HETATM   10  O   UNL     1      24.526  43.689  50.342  1.00  0.00    -0.267 OA
HETATM   11  H   UNL     1      27.384  45.147  50.305  1.00  0.00     0.170 HD
BRANCH   9  12
HETATM   12  C   UNL     1      25.007  45.945  49.911  1.00  0.00     0.037 A 
HETATM   13  C   UNL     1      23.696  46.195  49.505  1.00  0.00     0.054 A 
HETATM   14  C   UNL     1      23.331  47.473  49.086  1.00  0.00     0.071 A 
HETATM   15  C   UNL     1      24.277  48.500  49.123  1.00  0.00     0.073 A 
HETATM   16  C   UNL     1      25.585  48.259  49.566  1.00  0.00     0.071 A 
HETATM   17  C   UNL     1      25.958  46.973  49.951  1.00  0.00     0.054 A 
BRANCH  14  18
HETATM   18  O   UNL     1      22.034  47.589  48.667  1.00  0.00    -0.356 OA
HETATM   19  C   UNL     1      21.461  48.890  48.707  1.00  0.00     0.210 C 
ENDBRANCH  14  18
BRANCH  16  20
HETATM   20  O   UNL     1      26.399  49.359  49.559  1.00  0.00    -0.356 OA
HETATM   21  C   UNL     1      27.694  49.202  48.989  1.00  0.00     0.210 C 
ENDBRANCH  16  20
ENDBRANCH   9  12
ENDBRANCH   6   8
BRANCH   7  22
HETATM   22  C   UNL     1      28.135  43.485  53.089  1.00  0.00    -0.020 A 
HETATM   23  C   UNL     1      27.092  44.215  53.673  1.00  0.00     0.014 A 
HETATM   24  C   UNL     1      27.330  44.992  54.811  1.00  0.00     0.020 A 
HETATM   25  C   UNL     1      28.608  45.037  55.365  1.00  0.00     0.011 A 
HETATM   26 BR   UNL     1      28.928  46.092  56.900  1.00  0.00    -0.051 Br
HETATM   27  C   UNL     1      29.652  44.311  54.795  1.00  0.00     0.020 A 
HETATM   28  C   UNL     1      29.414  43.533  53.660  1.00  0.00     0.014 A 
ENDBRANCH   7  22
TORSDOF 5
ENDMDL
MODEL 10
REMARK VINA RESULT:      -8.2      3.301      6.680
REMARK  5 active torsions:
REMARK  status: ('A' for Active; 'I' for Inactive)
REMARK    1  A    between atoms: C_6  and  N_7 
REMARK       I    between atoms: N_7  and  C_8 
REMARK    2  A    between atoms: C_8  and  C_9 
REMARK    3  A    between atoms: C_11  and  O_12 
REMARK    4  A    between atoms: C_15  and  O_16 
REMARK    5  A    between atoms: C_20  and  C_21 
ROOT
HETATM    1  C   UNL     1      23.361  46.414  48.909  1.00  0.00     0.073 C 
HETATM    2  C   UNL     1      24.334  46.551  50.022  1.00  0.00     0.065 A 
HETATM    3  N   UNL     1      24.460  47.722  50.660  1.00  0.00    -0.177 NA
HETATM    4  N   UNL     1      25.434  47.498  51.560  1.00  0.00    -0.262 N 
HETATM    5  H   UNL     1      25.740  48.250  52.172  1.00  0.00     0.191 HD
HETATM    6  C   UNL     1      25.911  46.212  51.548  1.00  0.00     0.137 A 
HETATM    7  C   UNL     1      25.223  45.568  50.539  1.00  0.00     0.046 A 
ENDROOT
BRANCH   6   8
HETATM    8  N   UNL     1      26.885  45.744  52.411  1.00  0.00    -0.307 N 
HETATM    9  C   UNL     1      26.886  46.063  53.755  1.00  0.00     0.257 C 
HETATM   10  O   UNL     1      26.063  46.771  54.325  1.00  0.00    -0.267 OA
HETATM   11  H   UNL     1      27.654  45.218  52.012  1.00  0.00     0.170 HD
BRANCH   9  12
HETATM   12  C   UNL     1      28.036  45.514  54.503  1.00  0.00     0.037 A 
HETATM   13  C   UNL     1      28.690  44.392  53.993  1.00  0.00     0.054 A 
HETATM   14  C   UNL     1      29.730  43.808  54.714  1.00  0.00     0.071 A 
HETATM   15  C   UNL     1      30.133  44.384  55.920  1.00  0.00     0.073 A 
HETATM   16  C   UNL     1      29.502  45.533  56.416  1.00  0.00     0.071 A 
HETATM   17  C   UNL     1      28.440  46.096  55.712  1.00  0.00     0.054 A 
BRANCH  14  18
HETATM   18  O   UNL     1      30.265  42.687  54.140  1.00  0.00    -0.356 OA
HETATM   19  C   UNL     1      29.560  42.134  53.034  1.00  0.00     0.210 C 
ENDBRANCH  14  18
BRANCH  16  20
HETATM   20  O   UNL     1      30.008  45.993  57.601  1.00  0.00    -0.356 OA
HETATM   21  C   UNL     1      30.833  45.101  58.342  1.00  0.00     0.210 C 
ENDBRANCH  16  20
ENDBRANCH   9  12
ENDBRANCH   6   8
BRANCH   7  22
HETATM   22  C   UNL     1      25.436  44.190  50.145  1.00  0.00    -0.020 A 
HETATM   23  C   UNL     1      24.418  43.244  50.309  1.00  0.00     0.014 A 
HETATM   24  C   UNL     1      24.627  41.914  49.932  1.00  0.00     0.020 A 
HETATM   25  C   UNL     1      25.852  41.532  49.389  1.00  0.00     0.011 A 
HETATM   26 BR   UNL     1      26.134  39.732  48.884  1.00  0.00    -0.051 Br
HETATM   27  C   UNL     1      26.871  42.466  49.215  1.00  0.00     0.020 A 
HETATM   28  C   UNL     1      26.662  43.795  49.590  1.00  0.00     0.014 A 
ENDBRANCH   7  22
TORSDOF 5
ENDMDL
