MODEL 1
REMARK VINA RESULT:      -8.5      0.000      0.000
REMARK  8 active torsions:
REMARK  status: ('A' for Active; 'I' for Inactive)
REMARK    1  A    between atoms: C_2  and  C_3 
REMARK    2  A    between atoms: C_3  and  N_4 
REMARK    3  A    between atoms: C_7  and  C_8 
REMARK       I    between atoms: C_8  and  N_9 
REMARK    4  A    between atoms: N_9  and  N_10 
REMARK       I    between atoms: N_10  and  C_11 
REMARK    5  A    between atoms: C_11  and  C_12 
REMARK    6  A    between atoms: C_12  and  O_13 
REMARK    7  A    between atoms: O_13  and  C_14 
REMARK    8  A    between atoms: C_23  and  C_24 
ROOT
HETATM    1  C   UNL     1      25.443  46.243  50.025  1.00  0.00     0.273 C 
HETATM    2  N   UNL     1      25.314  46.046  51.391  1.00  0.00    -0.263 N 
HETATM    3  O   UNL     1      26.320  45.675  49.377  1.00  0.00    -0.266 OA
HETATM    4  H   UNL     1      24.805  46.717  51.965  1.00  0.00     0.190 HD
ENDROOT
BRANCH   2   5
HETATM    5  N   UNL     1      26.316  45.317  52.057  1.00  0.00    -0.265 N 
HETATM    6  C   UNL     1      25.911  44.445  53.051  1.00  0.00     0.260 C 
HETATM    7  O   UNL     1      24.723  44.187  53.254  1.00  0.00    -0.269 OA
HETATM    8  H   UNL     1      27.249  45.726  52.045  1.00  0.00     0.190 HD
BRANCH   6   9
HETATM    9  C   UNL     1      27.047  43.827  53.853  1.00  0.00     0.280 C 
BRANCH   9  10
HETATM   10  O   UNL     1      28.111  44.770  53.915  1.00  0.00    -0.342 OA
BRANCH  10  11
HETATM   11  C   UNL     1      29.126  44.474  54.785  1.00  0.00     0.069 A 
HETATM   12  C   UNL     1      29.258  45.354  55.862  1.00  0.00     0.043 A 
HETATM   13  C   UNL     1      30.260  45.169  56.826  1.00  0.00    -0.059 A 
HETATM   14  C   UNL     1      30.410  46.118  57.977  1.00  0.00     0.048 C 
HETATM   15  C   UNL     1      31.117  44.070  56.708  1.00  0.00     0.007 A 
HETATM   16  C   UNL     1      30.977  43.179  55.644  1.00  0.00     0.003 A 
HETATM   17  C   UNL     1      29.984  43.378  54.683  1.00  0.00     0.037 A 
ENDBRANCH  10  11
ENDBRANCH   9  10
ENDBRANCH   6   9
ENDBRANCH   2   5
BRANCH   1  18
HETATM   18  C   UNL     1      24.441  47.135  49.468  1.00  0.00     0.077 A 
HETATM   19  C   UNL     1      23.100  46.764  49.191  1.00  0.00     0.158 A 
HETATM   20  N   UNL     1      22.373  47.752  48.683  1.00  0.00    -0.183 NA
HETATM   21  N   UNL     1      23.236  48.783  48.610  1.00  0.00    -0.268 N 
HETATM   22  C   UNL     1      24.500  48.470  49.079  1.00  0.00     0.052 A 
BRANCH  21  23
HETATM   23  C   UNL     1      22.783  50.051  48.034  1.00  0.00     0.106 C 
HETATM   24  C   UNL     1      22.958  51.251  48.977  1.00  0.00     0.034 C 
BRANCH  23  25
HETATM   25  C   UNL     1      21.348  49.952  47.480  1.00  0.00     0.022 C 
HETATM   26  C   UNL     1      20.353  50.934  48.086  1.00  0.00     0.007 C 
ENDBRANCH  23  25
ENDBRANCH  21  23
BRANCH  22  27
HETATM   27  C   UNL     1      25.647  49.484  49.140  1.00  0.00     0.038 A 
HETATM   28  C   UNL     1      27.051  49.079  48.764  1.00  0.00     0.011 A 
HETATM   29  C   UNL     1      26.287  50.006  47.879  1.00  0.00     0.011 A 
ENDBRANCH  22  27
ENDBRANCH   1  18
TORSDOF 8
ENDMDL
MODEL 2
REMARK VINA RESULT:      -8.5      1.986      9.857
REMARK  8 active torsions:
REMARK  status: ('A' for Active; 'I' for Inactive)
REMARK    1  A    between atoms: C_2  and  C_3 
REMARK    2  A    between atoms: C_3  and  N_4 
REMARK    3  A    between atoms: C_7  and  C_8 
REMARK       I    between atoms: C_8  and  N_9 
REMARK    4  A    between atoms: N_9  and  N_10 
REMARK       I    between atoms: N_10  and  C_11 
REMARK    5  A    between atoms: C_11  and  C_12 
REMARK    6  A    between atoms: C_12  and  O_13 
REMARK    7  A    between atoms: O_13  and  C_14 
REMARK    8  A    between atoms: C_23  and  C_24 
ROOT
HETATM    1  C   UNL     1      26.179  44.610  52.332  1.00  0.00     0.273 C 
HETATM    2  N   UNL     1      26.422  45.402  51.221  1.00  0.00    -0.263 N 
HETATM    3  O   UNL     1      25.056  44.172  52.572  1.00  0.00    -0.266 OA
HETATM    4  H   UNL     1      27.249  45.996  51.179  1.00  0.00     0.190 HD
ENDROOT
BRANCH   2   5
HETATM    5  N   UNL     1      25.321  45.841  50.462  1.00  0.00    -0.265 N 
HETATM    6  C   UNL     1      25.140  47.206  50.340  1.00  0.00     0.260 C 
HETATM    7  O   UNL     1      25.977  48.018  50.738  1.00  0.00    -0.269 OA
HETATM    8  H   UNL     1      24.548  45.184  50.375  1.00  0.00     0.190 HD
BRANCH   6   9
HETATM    9  C   UNL     1      23.838  47.614  49.666  1.00  0.00     0.280 C 
BRANCH   9  10
HETATM   10  O   UNL     1      23.801  49.034  49.595  1.00  0.00    -0.342 OA
BRANCH  10  11
HETATM   11  C   UNL     1      22.680  49.578  49.028  1.00  0.00     0.069 A 
HETATM   12  C   UNL     1      21.864  48.673  48.342  1.00  0.00     0.043 A 
HETATM   13  C   UNL     1      20.686  49.099  47.711  1.00  0.00    -0.059 A 
HETATM   14  C   UNL     1      19.815  48.133  46.967  1.00  0.00     0.048 C 
HETATM   15  C   UNL     1      20.322  50.447  47.798  1.00  0.00     0.007 A 
HETATM   16  C   UNL     1      21.124  51.350  48.496  1.00  0.00     0.003 A 
HETATM   17  C   UNL     1      22.301  50.918  49.111  1.00  0.00     0.037 A 
ENDBRANCH  10  11
ENDBRANCH   9  10
ENDBRANCH   6   9
ENDBRANCH   2   5
BRANCH   1  18
HETATM   18  C   UNL     1      27.365  44.343  53.128  1.00  0.00     0.077 A 
HETATM   19  C   UNL     1      28.318  43.333  52.834  1.00  0.00     0.158 A 
HETATM   20  N   UNL     1      29.317  43.280  53.708  1.00  0.00    -0.183 NA
HETATM   21  N   UNL     1      29.023  44.251  54.593  1.00  0.00    -0.268 N 
HETATM   22  C   UNL     1      27.858  44.933  54.288  1.00  0.00     0.052 A 
BRANCH  21  23
HETATM   23  C   UNL     1      29.899  44.448  55.751  1.00  0.00     0.106 C 
HETATM   24  C   UNL     1      30.562  45.833  55.789  1.00  0.00     0.034 C 
BRANCH  23  25
HETATM   25  C   UNL     1      30.926  43.308  55.895  1.00  0.00     0.022 C 
HETATM   26  C   UNL     1      31.725  43.321  57.192  1.00  0.00     0.007 C 
ENDBRANCH  23  25
ENDBRANCH  21  23
BRANCH  22  27
HETATM   27  C   UNL     1      27.332  46.108  55.117  1.00  0.00     0.038 A 
HETATM   28  C   UNL     1      27.648  47.530  54.721  1.00  0.00     0.011 A 
HETATM   29  C   UNL     1      26.254  47.015  54.578  1.00  0.00     0.011 A 
ENDBRANCH  22  27
ENDBRANCH   1  18
TORSDOF 8
ENDMDL
MODEL 3
REMARK VINA RESULT:      -8.4      2.629      9.699
REMARK  8 active torsions:
REMARK  status: ('A' for Active; 'I' for Inactive)
REMARK    1  A    between atoms: C_2  and  C_3 
REMARK    2  A    between atoms: C_3  and  N_4 
REMARK    3  A    between atoms: C_7  and  C_8 
REMARK       I    between atoms: C_8  and  N_9 
REMARK    4  A    between atoms: N_9  and  N_10 
REMARK       I    between atoms: N_10  and  C_11 
REMARK    5  A    between atoms: C_11  and  C_12 
REMARK    6  A    between atoms: C_12  and  O_13 
REMARK    7  A    between atoms: O_13  and  C_14 
REMARK    8  A    between atoms: C_23  and  C_24 
ROOT
HETATM    1  C   UNL     1      25.638  46.880  50.841  1.00  0.00     0.273 C 
HETATM    2  N   UNL     1      24.298  46.612  50.615  1.00  0.00    -0.263 N 
HETATM    3  O   UNL     1      26.116  47.990  50.613  1.00  0.00    -0.266 OA
HETATM    4  H   UNL     1      23.971  45.651  50.518  1.00  0.00     0.190 HD
ENDROOT
BRANCH   2   5
HETATM    5  N   UNL     1      23.525  47.584  49.953  1.00  0.00    -0.265 N 
HETATM    6  C   UNL     1      22.948  47.223  48.750  1.00  0.00     0.260 C 
HETATM    7  O   UNL     1      22.966  46.063  48.335  1.00  0.00    -0.269 OA
HETATM    8  H   UNL     1      23.737  48.554  50.181  1.00  0.00     0.190 HD
BRANCH   6   9
HETATM    9  C   UNL     1      22.281  48.367  48.000  1.00  0.00     0.280 C 
BRANCH   9  10
HETATM   10  O   UNL     1      20.882  48.117  47.961  1.00  0.00    -0.342 OA
BRANCH  10  11
HETATM   11  C   UNL     1      20.101  48.953  48.712  1.00  0.00     0.069 A 
HETATM   12  C   UNL     1      19.945  50.243  48.195  1.00  0.00     0.043 A 
HETATM   13  C   UNL     1      19.173  51.201  48.867  1.00  0.00    -0.059 A 
HETATM   14  C   UNL     1      19.013  52.587  48.319  1.00  0.00     0.048 C 
HETATM   15  C   UNL     1      18.536  50.841  50.059  1.00  0.00     0.007 A 
HETATM   16  C   UNL     1      18.675  49.551  50.570  1.00  0.00     0.003 A 
HETATM   17  C   UNL     1      19.454  48.607  49.899  1.00  0.00     0.037 A 
ENDBRANCH  10  11
ENDBRANCH   9  10
ENDBRANCH   6   9
ENDBRANCH   2   5
BRANCH   1  18
HETATM   18  C   UNL     1      26.374  45.753  51.389  1.00  0.00     0.077 A 
HETATM   19  C   UNL     1      27.011  44.754  50.609  1.00  0.00     0.158 A 
HETATM   20  N   UNL     1      27.619  43.824  51.336  1.00  0.00    -0.183 NA
HETATM   21  N   UNL     1      27.378  44.199  52.606  1.00  0.00    -0.268 N 
HETATM   22  C   UNL     1      26.636  45.364  52.700  1.00  0.00     0.052 A 
BRANCH  21  23
HETATM   23  C   UNL     1      27.865  43.357  53.702  1.00  0.00     0.106 C 
HETATM   24  C   UNL     1      29.288  43.708  54.159  1.00  0.00     0.034 C 
BRANCH  23  25
HETATM   25  C   UNL     1      27.708  41.857  53.387  1.00  0.00     0.022 C 
HETATM   26  C   UNL     1      29.001  41.135  53.027  1.00  0.00     0.007 C 
ENDBRANCH  23  25
ENDBRANCH  21  23
BRANCH  22  27
HETATM   27  C   UNL     1      26.267  46.019  54.034  1.00  0.00     0.038 A 
HETATM   28  C   UNL     1      27.265  46.878  54.771  1.00  0.00     0.011 A 
HETATM   29  C   UNL     1      26.071  47.511  54.137  1.00  0.00     0.011 A 
ENDBRANCH  22  27
ENDBRANCH   1  18
TORSDOF 8
ENDMDL
MODEL 4
REMARK VINA RESULT:      -8.3      2.393      4.129
REMARK  8 active torsions:
REMARK  status: ('A' for Active; 'I' for Inactive)
REMARK    1  A    between atoms: C_2  and  C_3 
REMARK    2  A    between atoms: C_3  and  N_4 
REMARK    3  A    between atoms: C_7  and  C_8 
REMARK       I    between atoms: C_8  and  N_9 
REMARK    4  A    between atoms: N_9  and  N_10 
REMARK       I    between atoms: N_10  and  C_11 
REMARK    5  A    between atoms: C_11  and  C_12 
REMARK    6  A    between atoms: C_12  and  O_13 
REMARK    7  A    between atoms: O_13  and  C_14 
REMARK    8  A    between atoms: C_23  and  C_24 
ROOT
HETATM    1  C   UNL     1      21.971  47.540  48.307  1.00  0.00     0.273 C 
HETATM    2  N   UNL     1      22.563  47.254  49.527  1.00  0.00    -0.263 N 
HETATM    3  O   UNL     1      22.321  46.968  47.277  1.00  0.00    -0.266 OA
HETATM    4  H   UNL     1      22.495  47.912  50.303  1.00  0.00     0.190 HD
ENDROOT
BRANCH   2   5
HETATM    5  N   UNL     1      23.695  46.418  49.539  1.00  0.00    -0.265 N 
HETATM    6  C   UNL     1      24.785  46.839  50.278  1.00  0.00     0.260 C 
HETATM    7  O   UNL     1      24.734  47.818  51.024  1.00  0.00    -0.269 OA
HETATM    8  H   UNL     1      23.792  45.785  48.747  1.00  0.00     0.190 HD
BRANCH   6   9
HETATM    9  C   UNL     1      26.034  45.987  50.105  1.00  0.00     0.280 C 
BRANCH   9  10
HETATM   10  O   UNL     1      25.899  44.828  50.919  1.00  0.00    -0.342 OA
BRANCH  10  11
HETATM   11  C   UNL     1      26.694  44.780  52.032  1.00  0.00     0.069 A 
HETATM   12  C   UNL     1      27.816  43.952  51.923  1.00  0.00     0.043 A 
HETATM   13  C   UNL     1      28.712  43.809  52.992  1.00  0.00    -0.059 A 
HETATM   14  C   UNL     1      29.910  42.915  52.881  1.00  0.00     0.048 C 
HETATM   15  C   UNL     1      28.482  44.528  54.169  1.00  0.00     0.007 A 
HETATM   16  C   UNL     1      27.374  45.369  54.276  1.00  0.00     0.003 A 
HETATM   17  C   UNL     1      26.481  45.496  53.210  1.00  0.00     0.037 A 
ENDBRANCH  10  11
ENDBRANCH   9  10
ENDBRANCH   6   9
ENDBRANCH   2   5
BRANCH   1  18
HETATM   18  C   UNL     1      20.911  48.530  48.392  1.00  0.00     0.077 A 
HETATM   19  C   UNL     1      19.542  48.224  48.602  1.00  0.00     0.158 A 
HETATM   20  N   UNL     1      18.761  49.298  48.641  1.00  0.00    -0.183 NA
HETATM   21  N   UNL     1      19.612  50.323  48.445  1.00  0.00    -0.268 N 
HETATM   22  C   UNL     1      20.927  49.919  48.296  1.00  0.00     0.052 A 
BRANCH  21  23
HETATM   23  C   UNL     1      19.080  51.685  48.371  1.00  0.00     0.106 C 
HETATM   24  C   UNL     1      18.468  52.177  49.691  1.00  0.00     0.034 C 
BRANCH  23  25
HETATM   25  C   UNL     1      18.115  51.863  47.182  1.00  0.00     0.022 C 
HETATM   26  C   UNL     1      16.641  51.958  47.555  1.00  0.00     0.007 C 
ENDBRANCH  23  25
ENDBRANCH  21  23
BRANCH  22  27
HETATM   27  C   UNL     1      22.089  50.898  48.103  1.00  0.00     0.038 A 
HETATM   28  C   UNL     1      23.160  51.036  49.158  1.00  0.00     0.011 A 
HETATM   29  C   UNL     1      23.489  50.398  47.849  1.00  0.00     0.011 A 
ENDBRANCH  22  27
ENDBRANCH   1  18
TORSDOF 8
ENDMDL
MODEL 5
REMARK VINA RESULT:      -8.2      2.455      9.806
REMARK  8 active torsions:
REMARK  status: ('A' for Active; 'I' for Inactive)
REMARK    1  A    between atoms: C_2  and  C_3 
REMARK    2  A    between atoms: C_3  and  N_4 
REMARK    3  A    between atoms: C_7  and  C_8 
REMARK       I    between atoms: C_8  and  N_9 
REMARK    4  A    between atoms: N_9  and  N_10 
REMARK       I    between atoms: N_10  and  C_11 
REMARK    5  A    between atoms: C_11  and  C_12 
REMARK    6  A    between atoms: C_12  and  O_13 
REMARK    7  A    between atoms: O_13  and  C_14 
REMARK    8  A    between atoms: C_23  and  C_24 
ROOT
HETATM    1  C   UNL     1      24.669  45.152  51.662  1.00  0.00     0.273 C 
HETATM    2  N   UNL     1      24.821  46.356  50.992  1.00  0.00    -0.263 N 
HETATM    3  O   UNL     1      23.711  44.415  51.443  1.00  0.00    -0.266 OA
HETATM    4  H   UNL     1      25.424  47.086  51.368  1.00  0.00     0.190 HD
ENDROOT
BRANCH   2   5
HETATM    5  N   UNL     1      23.764  46.804  50.178  1.00  0.00    -0.265 N 
HETATM    6  C   UNL     1      23.899  48.049  49.592  1.00  0.00     0.260 C 
HETATM    7  O   UNL     1      24.952  48.686  49.640  1.00  0.00    -0.269 OA
HETATM    8  H   UNL     1      22.851  46.390  50.363  1.00  0.00     0.190 HD
BRANCH   6   9
HETATM    9  C   UNL     1      22.652  48.550  48.878  1.00  0.00     0.280 C 
BRANCH   9  10
HETATM   10  O   UNL     1      22.273  49.790  49.464  1.00  0.00    -0.342 OA
BRANCH  10  11
HETATM   11  C   UNL     1      20.927  50.024  49.555  1.00  0.00     0.069 A 
HETATM   12  C   UNL     1      20.117  48.897  49.393  1.00  0.00     0.043 A 
HETATM   13  C   UNL     1      18.720  48.997  49.459  1.00  0.00    -0.059 A 
HETATM   14  C   UNL     1      17.849  47.791  49.276  1.00  0.00     0.048 C 
HETATM   15  C   UNL     1      18.143  50.246  49.716  1.00  0.00     0.007 A 
HETATM   16  C   UNL     1      18.948  51.370  49.895  1.00  0.00     0.003 A 
HETATM   17  C   UNL     1      20.338  51.262  49.816  1.00  0.00     0.037 A 
ENDBRANCH  10  11
ENDBRANCH   9  10
ENDBRANCH   6   9
ENDBRANCH   2   5
BRANCH   1  18
HETATM   18  C   UNL     1      25.749  44.862  52.590  1.00  0.00     0.077 A 
HETATM   19  C   UNL     1      25.701  45.122  53.983  1.00  0.00     0.158 A 
HETATM   20  N   UNL     1      26.811  44.772  54.624  1.00  0.00    -0.183 NA
HETATM   21  N   UNL     1      27.605  44.286  53.651  1.00  0.00    -0.268 N 
HETATM   22  C   UNL     1      27.012  44.309  52.401  1.00  0.00     0.052 A 
BRANCH  21  23
HETATM   23  C   UNL     1      28.960  43.846  53.992  1.00  0.00     0.106 C 
HETATM   24  C   UNL     1      29.103  42.321  54.092  1.00  0.00     0.034 C 
BRANCH  23  25
HETATM   25  C   UNL     1      29.500  44.564  55.245  1.00  0.00     0.022 C 
HETATM   26  C   UNL     1      30.803  44.002  55.799  1.00  0.00     0.007 C 
ENDBRANCH  23  25
ENDBRANCH  21  23
BRANCH  22  27
HETATM   27  C   UNL     1      27.695  43.773  51.139  1.00  0.00     0.038 A 
HETATM   28  C   UNL     1      27.465  42.352  50.685  1.00  0.00     0.011 A 
HETATM   29  C   UNL     1      26.898  43.482  49.892  1.00  0.00     0.011 A 
ENDBRANCH  22  27
ENDBRANCH   1  18
TORSDOF 8
ENDMDL
MODEL 6
REMARK VINA RESULT:      -8.2      1.944      3.069
REMARK  8 active torsions:
REMARK  status: ('A' for Active; 'I' for Inactive)
REMARK    1  A    between atoms: C_2  and  C_3 
REMARK    2  A    between atoms: C_3  and  N_4 
REMARK    3  A    between atoms: C_7  and  C_8 
REMARK       I    between atoms: C_8  and  N_9 
REMARK    4  A    between atoms: N_9  and  N_10 
REMARK       I    between atoms: N_10  and  C_11 
REMARK    5  A    between atoms: C_11  and  C_12 
REMARK    6  A    between atoms: C_12  and  O_13 
REMARK    7  A    between atoms: O_13  and  C_14 
REMARK    8  A    between atoms: C_23  and  C_24 
ROOT
HETATM    1  C   UNL     1      23.475  47.660  49.271  1.00  0.00     0.273 C 
HETATM    2  N   UNL     1      23.754  46.486  49.952  1.00  0.00    -0.263 N 
HETATM    3  O   UNL     1      24.348  48.499  49.059  1.00  0.00    -0.266 OA
HETATM    4  H   UNL     1      23.003  45.945  50.381  1.00  0.00     0.190 HD
ENDROOT
BRANCH   2   5
HETATM    5  N   UNL     1      25.019  46.346  50.552  1.00  0.00    -0.265 N 
HETATM    6  C   UNL     1      25.129  45.450  51.598  1.00  0.00     0.260 C 
HETATM    7  O   UNL     1      24.214  44.685  51.907  1.00  0.00    -0.269 OA
HETATM    8  H   UNL     1      25.651  47.140  50.451  1.00  0.00     0.190 HD
BRANCH   6   9
HETATM    9  C   UNL     1      26.470  45.480  52.318  1.00  0.00     0.280 C 
BRANCH   9  10
HETATM   10  O   UNL     1      26.773  44.158  52.747  1.00  0.00    -0.342 OA
BRANCH  10  11
HETATM   11  C   UNL     1      27.917  44.013  53.485  1.00  0.00     0.069 A 
HETATM   12  C   UNL     1      28.083  44.948  54.511  1.00  0.00     0.043 A 
HETATM   13  C   UNL     1      29.213  44.916  55.340  1.00  0.00    -0.059 A 
HETATM   14  C   UNL     1      29.397  45.923  56.434  1.00  0.00     0.048 C 
HETATM   15  C   UNL     1      30.168  43.913  55.142  1.00  0.00     0.007 A 
HETATM   16  C   UNL     1      29.998  42.967  54.132  1.00  0.00     0.003 A 
HETATM   17  C   UNL     1      28.874  43.015  53.304  1.00  0.00     0.037 A 
ENDBRANCH  10  11
ENDBRANCH   9  10
ENDBRANCH   6   9
ENDBRANCH   2   5
BRANCH   1  18
HETATM   18  C   UNL     1      22.096  47.763  48.827  1.00  0.00     0.077 A 
HETATM   19  C   UNL     1      21.360  46.702  48.239  1.00  0.00     0.158 A 
HETATM   20  N   UNL     1      20.117  47.038  47.914  1.00  0.00    -0.183 NA
HETATM   21  N   UNL     1      20.027  48.331  48.276  1.00  0.00    -0.268 N 
HETATM   22  C   UNL     1      21.192  48.821  48.841  1.00  0.00     0.052 A 
BRANCH  21  23
HETATM   23  C   UNL     1      18.785  49.061  48.010  1.00  0.00     0.106 C 
HETATM   24  C   UNL     1      17.608  48.608  48.886  1.00  0.00     0.034 C 
BRANCH  23  25
HETATM   25  C   UNL     1      18.428  49.059  46.510  1.00  0.00     0.022 C 
HETATM   26  C   UNL     1      18.761  50.346  45.766  1.00  0.00     0.007 C 
ENDBRANCH  23  25
ENDBRANCH  21  23
BRANCH  22  27
HETATM   27  C   UNL     1      21.329  50.251  49.373  1.00  0.00     0.038 A 
HETATM   28  C   UNL     1      22.308  51.213  48.745  1.00  0.00     0.011 A 
HETATM   29  C   UNL     1      20.842  51.428  48.566  1.00  0.00     0.011 A 
ENDBRANCH  22  27
ENDBRANCH   1  18
TORSDOF 8
ENDMDL
MODEL 7
REMARK VINA RESULT:      -8.1      1.733      2.180
REMARK  8 active torsions:
REMARK  status: ('A' for Active; 'I' for Inactive)
REMARK    1  A    between atoms: C_2  and  C_3 
REMARK    2  A    between atoms: C_3  and  N_4 
REMARK    3  A    between atoms: C_7  and  C_8 
REMARK       I    between atoms: C_8  and  N_9 
REMARK    4  A    between atoms: N_9  and  N_10 
REMARK       I    between atoms: N_10  and  C_11 
REMARK    5  A    between atoms: C_11  and  C_12 
REMARK    6  A    between atoms: C_12  and  O_13 
REMARK    7  A    between atoms: O_13  and  C_14 
REMARK    8  A    between atoms: C_23  and  C_24 
ROOT
HETATM    1  C   UNL     1      25.505  46.312  50.502  1.00  0.00     0.273 C 
HETATM    2  N   UNL     1      25.352  46.525  51.863  1.00  0.00    -0.263 N 
HETATM    3  O   UNL     1      26.583  45.961  50.027  1.00  0.00    -0.266 OA
HETATM    4  H   UNL     1      24.577  47.086  52.216  1.00  0.00     0.190 HD
ENDROOT
BRANCH   2   5
HETATM    5  N   UNL     1      26.501  46.500  52.675  1.00  0.00    -0.265 N 
HETATM    6  C   UNL     1      26.499  47.304  53.800  1.00  0.00     0.260 C 
HETATM    7  O   UNL     1      25.491  47.903  54.177  1.00  0.00    -0.269 OA
HETATM    8  H   UNL     1      27.365  46.212  52.218  1.00  0.00     0.190 HD
BRANCH   6   9
HETATM    9  C   UNL     1      27.832  47.371  54.532  1.00  0.00     0.280 C 
BRANCH   9  10
HETATM   10  O   UNL     1      27.852  46.342  55.514  1.00  0.00    -0.342 OA
BRANCH  10  11
HETATM   11  C   UNL     1      28.722  45.310  55.285  1.00  0.00     0.069 A 
HETATM   12  C   UNL     1      29.700  45.131  56.267  1.00  0.00     0.043 A 
HETATM   13  C   UNL     1      30.657  44.112  56.154  1.00  0.00    -0.059 A 
HETATM   14  C   UNL     1      31.713  43.924  57.201  1.00  0.00     0.048 C 
HETATM   15  C   UNL     1      30.605  43.255  55.050  1.00  0.00     0.007 A 
HETATM   16  C   UNL     1      29.620  43.419  54.077  1.00  0.00     0.003 A 
HETATM   17  C   UNL     1      28.679  44.443  54.192  1.00  0.00     0.037 A 
ENDBRANCH  10  11
ENDBRANCH   9  10
ENDBRANCH   6   9
ENDBRANCH   2   5
BRANCH   1  18
HETATM   18  C   UNL     1      24.284  46.512  49.740  1.00  0.00     0.077 A 
HETATM   19  C   UNL     1      23.379  45.477  49.387  1.00  0.00     0.158 A 
HETATM   20  N   UNL     1      22.335  45.906  48.688  1.00  0.00    -0.183 NA
HETATM   21  N   UNL     1      22.549  47.229  48.565  1.00  0.00    -0.268 N 
HETATM   22  C   UNL     1      23.709  47.654  49.189  1.00  0.00     0.052 A 
BRANCH  21  23
HETATM   23  C   UNL     1      21.604  48.035  47.789  1.00  0.00     0.106 C 
HETATM   24  C   UNL     1      20.623  48.836  48.657  1.00  0.00     0.034 C 
BRANCH  23  25
HETATM   25  C   UNL     1      20.880  47.197  46.716  1.00  0.00     0.022 C 
HETATM   26  C   UNL     1      19.358  47.248  46.776  1.00  0.00     0.007 C 
ENDBRANCH  23  25
ENDBRANCH  21  23
BRANCH  22  27
HETATM   27  C   UNL     1      24.153  49.119  49.229  1.00  0.00     0.038 A 
HETATM   28  C   UNL     1      25.489  49.533  48.660  1.00  0.00     0.011 A 
HETATM   29  C   UNL     1      24.232  49.938  47.965  1.00  0.00     0.011 A 
ENDBRANCH  22  27
ENDBRANCH   1  18
TORSDOF 8
ENDMDL
MODEL 8
REMARK VINA RESULT:      -8.1      2.555      4.762
REMARK  8 active torsions:
REMARK  status: ('A' for Active; 'I' for Inactive)
REMARK    1  A    between atoms: C_2  and  C_3 
REMARK    2  A    between atoms: C_3  and  N_4 
REMARK    3  A    between atoms: C_7  and  C_8 
REMARK       I    between atoms: C_8  and  N_9 
REMARK    4  A    between atoms: N_9  and  N_10 
REMARK       I    between atoms: N_10  and  C_11 
REMARK    5  A    between atoms: C_11  and  C_12 
REMARK    6  A    between atoms: C_12  and  O_13 
REMARK    7  A    between atoms: O_13  and  C_14 
REMARK    8  A    between atoms: C_23  and  C_24 
ROOT
HETATM    1  C   UNL     1      22.245  47.972  48.443  1.00  0.00     0.273 C 
HETATM    2  N   UNL     1      22.810  47.657  49.668  1.00  0.00    -0.263 N 
HETATM    3  O   UNL     1      22.452  47.283  47.447  1.00  0.00    -0.266 OA
HETATM    4  H   UNL     1      22.887  48.363  50.401  1.00  0.00     0.190 HD
ENDROOT
BRANCH   2   5
HETATM    5  N   UNL     1      23.770  46.629  49.715  1.00  0.00    -0.265 N 
HETATM    6  C   UNL     1      24.828  46.789  50.590  1.00  0.00     0.260 C 
HETATM    7  O   UNL     1      24.868  47.707  51.411  1.00  0.00    -0.269 OA
HETATM    8  H   UNL     1      23.841  46.046  48.883  1.00  0.00     0.190 HD
BRANCH   6   9
HETATM    9  C   UNL     1      25.920  45.737  50.462  1.00  0.00     0.280 C 
BRANCH   9  10
HETATM   10  O   UNL     1      25.726  44.769  51.486  1.00  0.00    -0.342 OA
BRANCH  10  11
HETATM   11  C   UNL     1      26.669  44.747  52.479  1.00  0.00     0.069 A 
HETATM   12  C   UNL     1      27.759  43.905  52.242  1.00  0.00     0.043 A 
HETATM   13  C   UNL     1      28.795  43.785  53.180  1.00  0.00    -0.059 A 
HETATM   14  C   UNL     1      29.960  42.875  52.932  1.00  0.00     0.048 C 
HETATM   15  C   UNL     1      28.735  44.544  54.353  1.00  0.00     0.007 A 
HETATM   16  C   UNL     1      27.658  45.399  54.585  1.00  0.00     0.003 A 
HETATM   17  C   UNL     1      26.626  45.502  53.651  1.00  0.00     0.037 A 
ENDBRANCH  10  11
ENDBRANCH   9  10
ENDBRANCH   6   9
ENDBRANCH   2   5
BRANCH   1  18
HETATM   18  C   UNL     1      21.387  49.145  48.482  1.00  0.00     0.077 A 
HETATM   19  C   UNL     1      21.850  50.473  48.664  1.00  0.00     0.158 A 
HETATM   20  N   UNL     1      20.877  51.376  48.665  1.00  0.00    -0.183 NA
HETATM   21  N   UNL     1      19.759  50.646  48.493  1.00  0.00    -0.268 N 
HETATM   22  C   UNL     1      20.007  49.290  48.368  1.00  0.00     0.052 A 
BRANCH  21  23
HETATM   23  C   UNL     1      18.459  51.321  48.498  1.00  0.00     0.106 C 
HETATM   24  C   UNL     1      18.189  52.140  47.228  1.00  0.00     0.034 C 
BRANCH  23  25
HETATM   25  C   UNL     1      18.247  52.151  49.780  1.00  0.00     0.022 C 
HETATM   26  C   UNL     1      16.922  52.898  49.853  1.00  0.00     0.007 C 
ENDBRANCH  23  25
ENDBRANCH  21  23
BRANCH  22  27
HETATM   27  C   UNL     1      18.906  48.254  48.122  1.00  0.00     0.038 A 
HETATM   28  C   UNL     1      18.818  47.010  48.972  1.00  0.00     0.011 A 
HETATM   29  C   UNL     1      17.780  48.073  49.108  1.00  0.00     0.011 A 
ENDBRANCH  22  27
ENDBRANCH   1  18
TORSDOF 8
ENDMDL
MODEL 9
REMARK VINA RESULT:      -8.1      2.154      9.551
REMARK  8 active torsions:
REMARK  status: ('A' for Active; 'I' for Inactive)
REMARK    1  A    between atoms: C_2  and  C_3 
REMARK    2  A    between atoms: C_3  and  N_4 
REMARK    3  A    between atoms: C_7  and  C_8 
REMARK       I    between atoms: C_8  and  N_9 
REMARK    4  A    between atoms: N_9  and  N_10 
REMARK       I    between atoms: N_10  and  C_11 
REMARK    5  A    between atoms: C_11  and  C_12 
REMARK    6  A    between atoms: C_12  and  O_13 
REMARK    7  A    between atoms: O_13  and  C_14 
REMARK    8  A    between atoms: C_23  and  C_24 
ROOT
HETATM    1  C   UNL     1      24.986  46.171  50.835  1.00  0.00     0.273 C 
HETATM    2  N   UNL     1      25.399  47.415  50.385  1.00  0.00    -0.263 N 
HETATM    3  O   UNL     1      23.989  45.622  50.371  1.00  0.00    -0.266 OA
HETATM    4  H   UNL     1      26.022  47.991  50.952  1.00  0.00     0.190 HD
ENDROOT
BRANCH   2   5
HETATM    5  N   UNL     1      24.556  48.121  49.507  1.00  0.00    -0.265 N 
HETATM    6  C   UNL     1      25.099  49.200  48.836  1.00  0.00     0.260 C 
HETATM    7  O   UNL     1      26.304  49.456  48.871  1.00  0.00    -0.269 OA
HETATM    8  H   UNL     1      23.556  48.047  49.692  1.00  0.00     0.190 HD
BRANCH   6   9
HETATM    9  C   UNL     1      24.094  50.026  48.047  1.00  0.00     0.280 C 
BRANCH   9  10
HETATM   10  O   UNL     1      23.069  49.156  47.584  1.00  0.00    -0.342 OA
BRANCH  10  11
HETATM   11  C   UNL     1      21.832  49.333  48.145  1.00  0.00     0.069 A 
HETATM   12  C   UNL     1      21.310  50.625  48.031  1.00  0.00     0.043 A 
HETATM   13  C   UNL     1      20.053  50.944  48.565  1.00  0.00    -0.059 A 
HETATM   14  C   UNL     1      19.496  52.330  48.453  1.00  0.00     0.048 C 
HETATM   15  C   UNL     1      19.312  49.939  49.196  1.00  0.00     0.007 A 
HETATM   16  C   UNL     1      19.821  48.645  49.296  1.00  0.00     0.003 A 
HETATM   17  C   UNL     1      21.079  48.340  48.771  1.00  0.00     0.037 A 
ENDBRANCH  10  11
ENDBRANCH   9  10
ENDBRANCH   6   9
ENDBRANCH   2   5
BRANCH   1  18
HETATM   18  C   UNL     1      25.854  45.602  51.852  1.00  0.00     0.077 A 
HETATM   19  C   UNL     1      25.848  45.985  53.218  1.00  0.00     0.158 A 
HETATM   20  N   UNL     1      26.733  45.324  53.955  1.00  0.00    -0.183 NA
HETATM   21  N   UNL     1      27.338  44.505  53.076  1.00  0.00    -0.268 N 
HETATM   22  C   UNL     1      26.842  44.624  51.789  1.00  0.00     0.052 A 
BRANCH  21  23
HETATM   23  C   UNL     1      28.432  43.647  53.537  1.00  0.00     0.106 C 
HETATM   24  C   UNL     1      27.979  42.233  53.928  1.00  0.00     0.034 C 
BRANCH  23  25
HETATM   25  C   UNL     1      29.260  44.320  54.650  1.00  0.00     0.022 C 
HETATM   26  C   UNL     1      30.437  43.500  55.163  1.00  0.00     0.007 C 
ENDBRANCH  23  25
ENDBRANCH  21  23
BRANCH  22  27
HETATM   27  C   UNL     1      27.336  43.771  50.616  1.00  0.00     0.038 A 
HETATM   28  C   UNL     1      26.833  42.361  50.426  1.00  0.00     0.011 A 
HETATM   29  C   UNL     1      26.421  43.429  49.468  1.00  0.00     0.011 A 
ENDBRANCH  22  27
ENDBRANCH   1  18
TORSDOF 8
ENDMDL
MODEL 10
REMARK VINA RESULT:      -8.0      2.539     10.193
REMARK  8 active torsions:
REMARK  status: ('A' for Active; 'I' for Inactive)
REMARK    1  A    between atoms: C_2  and  C_3 
REMARK    2  A    between atoms: C_3  and  N_4 
REMARK    3  A    between atoms: C_7  and  C_8 
REMARK       I    between atoms: C_8  and  N_9 
REMARK    4  A    between atoms: N_9  and  N_10 
REMARK       I    between atoms: N_10  and  C_11 
REMARK    5  A    between atoms: C_11  and  C_12 
REMARK    6  A    between atoms: C_12  and  O_13 
REMARK    7  A    between atoms: O_13  and  C_14 
REMARK    8  A    between atoms: C_23  and  C_24 
ROOT
HETATM    1  C   UNL     1      25.284  47.409  50.395  1.00  0.00     0.273 C 
HETATM    2  N   UNL     1      23.907  47.496  50.261  1.00  0.00    -0.263 N 
HETATM    3  O   UNL     1      26.040  47.905  49.562  1.00  0.00    -0.266 OA
HETATM    4  H   UNL     1      23.296  46.853  50.765  1.00  0.00     0.190 HD
ENDROOT
BRANCH   2   5
HETATM    5  N   UNL     1      23.385  48.013  49.061  1.00  0.00    -0.265 N 
HETATM    6  C   UNL     1      22.929  49.317  49.078  1.00  0.00     0.260 C 
HETATM    7  O   UNL     1      23.105  50.062  50.043  1.00  0.00    -0.269 OA
HETATM    8  H   UNL     1      23.033  47.326  48.395  1.00  0.00     0.190 HD
BRANCH   6   9
HETATM    9  C   UNL     1      22.213  49.754  47.808  1.00  0.00     0.280 C 
BRANCH   9  10
HETATM   10  O   UNL     1      20.871  49.287  47.872  1.00  0.00    -0.342 OA
BRANCH  10  11
HETATM   11  C   UNL     1      19.911  50.242  48.076  1.00  0.00     0.069 A 
HETATM   12  C   UNL     1      18.594  49.776  48.035  1.00  0.00     0.043 A 
HETATM   13  C   UNL     1      17.514  50.650  48.224  1.00  0.00    -0.059 A 
HETATM   14  C   UNL     1      16.100  50.154  48.172  1.00  0.00     0.048 C 
HETATM   15  C   UNL     1      17.774  52.000  48.481  1.00  0.00     0.007 A 
HETATM   16  C   UNL     1      19.087  52.466  48.539  1.00  0.00     0.003 A 
HETATM   17  C   UNL     1      20.155  51.590  48.338  1.00  0.00     0.037 A 
ENDBRANCH  10  11
ENDBRANCH   9  10
ENDBRANCH   6   9
ENDBRANCH   2   5
BRANCH   1  18
HETATM   18  C   UNL     1      25.710  46.722  51.602  1.00  0.00     0.077 A 
HETATM   19  C   UNL     1      25.633  47.271  52.908  1.00  0.00     0.158 A 
HETATM   20  N   UNL     1      26.085  46.453  53.852  1.00  0.00    -0.183 NA
HETATM   21  N   UNL     1      26.473  45.358  53.172  1.00  0.00    -0.268 N 
HETATM   22  C   UNL     1      26.262  45.461  51.807  1.00  0.00     0.052 A 
BRANCH  21  23
HETATM   23  C   UNL     1      27.085  44.246  53.901  1.00  0.00     0.106 C 
HETATM   24  C   UNL     1      26.130  43.560  54.888  1.00  0.00     0.034 C 
BRANCH  23  25
HETATM   25  C   UNL     1      28.413  44.657  54.569  1.00  0.00     0.022 C 
HETATM   26  C   UNL     1      29.557  43.667  54.393  1.00  0.00     0.007 C 
ENDBRANCH  23  25
ENDBRANCH  21  23
BRANCH  22  27
HETATM   27  C   UNL     1      26.582  44.333  50.821  1.00  0.00     0.038 A 
HETATM   28  C   UNL     1      25.633  43.172  50.649  1.00  0.00     0.011 A 
HETATM   29  C   UNL     1      25.789  44.169  49.549  1.00  0.00     0.011 A 
ENDBRANCH  22  27
ENDBRANCH   1  18
TORSDOF 8
ENDMDL
