MODEL 1
REMARK VINA RESULT:     -10.7      0.000      0.000
REMARK  8 active torsions:
REMARK  status: ('A' for Active; 'I' for Inactive)
REMARK    1  A    between atoms: C_4  and  N_5 
REMARK       I    between atoms: N_5  and  C_6 
REMARK    2  A    between atoms: C_6  and  C_7 
REMARK    3  A    between atoms: C_10  and  N_11 
REMARK       I    between atoms: N_11  and  C_12 
REMARK       I    between atoms: C_12  and  N_21 
REMARK    4  A    between atoms: N_21  and  CA_22 
REMARK    5  A    between atoms: CA_22  and  C_23 
REMARK    6  A    between atoms: CA_22  and  CB_25 
REMARK    7  A    between atoms: C_23  and  O_24 
REMARK    8  A    between atoms: CB_25  and  CG_26 
ROOT
HETATM    1  N   UNK A   0      25.438  44.335  51.542  1.00  0.00    -0.309 N 
HETATM    2  C   UNK A   0      26.569  43.582  51.320  1.00  0.00     0.321 C 
HETATM    3  O   UNK A   0      27.130  43.394  50.249  1.00  0.00    -0.247 OA
HETATM    4  H   UNK A   0      24.947  44.123  52.397  1.00  0.00     0.170 HD
ATOM      5  N   TRP A   1      27.022  43.054  52.510  1.00  0.00    -0.336 N 
ATOM      6  H   TRP A   1      26.835  43.635  53.319  1.00  0.00     0.164 HD
ENDROOT
BRANCH   1   7
HETATM    7  C   UNK A   0      24.950  45.396  50.762  1.00  0.00     0.036 A 
HETATM    8  C   UNK A   0      25.351  46.720  50.932  1.00  0.00     0.030 A 
HETATM    9  C   UNK A   0      24.671  47.761  50.285  1.00  0.00     0.019 A 
HETATM   10  C   UNK A   0      23.595  47.483  49.433  1.00  0.00     0.032 A 
HETATM   11  C   UNK A   0      23.251  46.144  49.202  1.00  0.00     0.019 A 
HETATM   12  C   UNK A   0      23.921  45.109  49.862  1.00  0.00     0.030 A 
BRANCH  10  13
HETATM   13  C   UNK A   0      22.702  48.542  48.857  1.00  0.00     0.256 C 
HETATM   14  N   UNK A   0      22.138  49.435  49.752  1.00  0.00    -0.323 N 
HETATM   15  H   UNK A   0      22.541  49.496  50.675  1.00  0.00     0.169 HD
HETATM   16  O   UNK A   0      22.511  48.540  47.644  1.00  0.00    -0.267 OA
BRANCH  14  17
HETATM   17  C   UNK A   0      21.032  50.281  49.520  1.00  0.00     0.035 A 
HETATM   18  C   UNK A   0      21.042  51.344  48.614  1.00  0.00     0.029 A 
HETATM   19  C   UNK A   0      19.885  52.097  48.389  1.00  0.00     0.002 A 
HETATM   20  C   UNK A   0      18.709  51.794  49.067  1.00  0.00     0.000 A 
HETATM   21  C   UNK A   0      18.687  50.738  49.975  1.00  0.00     0.002 A 
HETATM   22  C   UNK A   0      19.843  49.985  50.199  1.00  0.00     0.029 A 
ENDBRANCH  14  17
ENDBRANCH  10  13
ENDBRANCH   1   7
BRANCH   5  23
ATOM     23  CA  TRP A   1      28.321  42.389  52.605  1.00  0.00     0.114 C 
BRANCH  23  24
ATOM     24  C   TRP A   1      28.212  41.188  53.565  1.00  0.00     0.189 C 
BRANCH  24  25
ATOM     25  O   TRP A   1      28.732  39.994  52.979  1.00  0.00    -0.399 OA
ATOM     26  H   TRP A   1      29.137  40.251  52.132  1.00  0.00     0.209 HD
ENDBRANCH  24  25
ENDBRANCH  23  24
BRANCH  23  27
ATOM     27  CB  TRP A   1      29.492  43.343  52.957  1.00  0.00     0.068 C 
BRANCH  27  28
ATOM     28  CG  TRP A   1      29.313  44.229  54.159  1.00  0.00    -0.028 A 
ATOM     29  CD2 TRP A   1      30.064  44.167  55.382  1.00  0.00    -0.002 A 
ATOM     30  CE2 TRP A   1      29.573  45.158  56.231  1.00  0.00     0.042 A 
ATOM     31  CE3 TRP A   1      31.118  43.353  55.848  1.00  0.00     0.014 A 
ATOM     32  CZ2 TRP A   1      30.092  45.388  57.511  1.00  0.00     0.030 A 
ATOM     33  NE1 TRP A   1      28.550  45.788  55.563  1.00  0.00    -0.365 N 
ATOM     34  CH2 TRP A   1      31.141  44.572  57.945  1.00  0.00     0.002 A 
ATOM     35  CZ3 TRP A   1      31.645  43.564  57.128  1.00  0.00     0.001 A 
ATOM     36  HE1 TRP A   1      28.004  46.548  55.942  1.00  0.00     0.165 HD
ATOM     37  CD1 TRP A   1      28.372  45.225  54.329  1.00  0.00     0.096 A 
ENDBRANCH  27  28
ENDBRANCH  23  27
ENDBRANCH   5  23
TORSDOF 8
ENDMDL
MODEL 2
REMARK VINA RESULT:     -10.5      1.308      2.247
REMARK  8 active torsions:
REMARK  status: ('A' for Active; 'I' for Inactive)
REMARK    1  A    between atoms: C_4  and  N_5 
REMARK       I    between atoms: N_5  and  C_6 
REMARK    2  A    between atoms: C_6  and  C_7 
REMARK    3  A    between atoms: C_10  and  N_11 
REMARK       I    between atoms: N_11  and  C_12 
REMARK       I    between atoms: C_12  and  N_21 
REMARK    4  A    between atoms: N_21  and  CA_22 
REMARK    5  A    between atoms: CA_22  and  C_23 
REMARK    6  A    between atoms: CA_22  and  CB_25 
REMARK    7  A    between atoms: C_23  and  O_24 
REMARK    8  A    between atoms: CB_25  and  CG_26 
ROOT
HETATM    1  N   UNK A   0      25.025  43.662  50.517  1.00  0.00    -0.309 N 
HETATM    2  C   UNK A   0      26.331  43.228  50.545  1.00  0.00     0.321 C 
HETATM    3  O   UNK A   0      27.221  43.520  49.757  1.00  0.00    -0.247 OA
HETATM    4  H   UNK A   0      24.375  43.089  51.033  1.00  0.00     0.170 HD
ATOM      5  N   TRP A   1      26.528  42.400  51.630  1.00  0.00    -0.336 N 
ATOM      6  H   TRP A   1      25.950  42.625  52.431  1.00  0.00     0.164 HD
ENDROOT
BRANCH   1   7
HETATM    7  C   UNK A   0      24.525  44.833  49.926  1.00  0.00     0.036 A 
HETATM    8  C   UNK A   0      24.859  46.115  50.360  1.00  0.00     0.030 A 
HETATM    9  C   UNK A   0      24.162  47.235  49.886  1.00  0.00     0.019 A 
HETATM   10  C   UNK A   0      23.138  47.086  48.944  1.00  0.00     0.032 A 
HETATM   11  C   UNK A   0      22.863  45.804  48.448  1.00  0.00     0.019 A 
HETATM   12  C   UNK A   0      23.550  44.687  48.936  1.00  0.00     0.030 A 
BRANCH  10  13
HETATM   13  C   UNK A   0      22.225  48.203  48.531  1.00  0.00     0.256 C 
HETATM   14  N   UNK A   0      21.805  49.064  49.530  1.00  0.00    -0.323 N 
HETATM   15  H   UNK A   0      22.317  49.062  50.400  1.00  0.00     0.169 HD
HETATM   16  O   UNK A   0      21.892  48.271  47.351  1.00  0.00    -0.267 OA
BRANCH  14  17
HETATM   17  C   UNK A   0      20.713  49.956  49.475  1.00  0.00     0.035 A 
HETATM   18  C   UNK A   0      19.533  49.788  50.202  1.00  0.00     0.029 A 
HETATM   19  C   UNK A   0      18.519  50.750  50.147  1.00  0.00     0.002 A 
HETATM   20  C   UNK A   0      18.677  51.889  49.364  1.00  0.00     0.000 A 
HETATM   21  C   UNK A   0      19.848  52.067  48.631  1.00  0.00     0.002 A 
HETATM   22  C   UNK A   0      20.861  51.106  48.688  1.00  0.00     0.029 A 
ENDBRANCH  14  17
ENDBRANCH  10  13
ENDBRANCH   1   7
BRANCH   5  23
ATOM     23  CA  TRP A   1      27.866  41.966  52.026  1.00  0.00     0.114 C 
BRANCH  23  24
ATOM     24  C   TRP A   1      28.242  40.691  51.244  1.00  0.00     0.189 C 
BRANCH  24  25
ATOM     25  O   TRP A   1      29.146  39.866  51.981  1.00  0.00    -0.399 OA
ATOM     26  H   TRP A   1      28.603  39.308  52.564  1.00  0.00     0.209 HD
ENDBRANCH  24  25
ENDBRANCH  23  24
BRANCH  23  27
ATOM     27  CB  TRP A   1      28.052  41.816  53.558  1.00  0.00     0.068 C 
BRANCH  27  28
ATOM     28  CG  TRP A   1      28.717  42.954  54.280  1.00  0.00    -0.028 A 
ATOM     29  CD2 TRP A   1      28.210  44.292  54.410  1.00  0.00    -0.002 A 
ATOM     30  CE2 TRP A   1      29.139  45.027  55.146  1.00  0.00     0.042 A 
ATOM     31  CE3 TRP A   1      27.043  44.949  53.966  1.00  0.00     0.014 A 
ATOM     32  CZ2 TRP A   1      28.954  46.377  55.473  1.00  0.00     0.030 A 
ATOM     33  NE1 TRP A   1      30.182  44.180  55.436  1.00  0.00    -0.365 N 
ATOM     34  CH2 TRP A   1      27.785  47.000  55.027  1.00  0.00     0.002 A 
ATOM     35  CZ3 TRP A   1      26.844  46.299  54.278  1.00  0.00     0.001 A 
ATOM     36  HE1 TRP A   1      31.005  44.446  55.956  1.00  0.00     0.165 HD
ATOM     37  CD1 TRP A   1      29.949  42.942  54.903  1.00  0.00     0.096 A 
ENDBRANCH  27  28
ENDBRANCH  23  27
ENDBRANCH   5  23
TORSDOF 8
ENDMDL
MODEL 3
REMARK VINA RESULT:     -10.4      1.958     11.484
REMARK  8 active torsions:
REMARK  status: ('A' for Active; 'I' for Inactive)
REMARK    1  A    between atoms: C_4  and  N_5 
REMARK       I    between atoms: N_5  and  C_6 
REMARK    2  A    between atoms: C_6  and  C_7 
REMARK    3  A    between atoms: C_10  and  N_11 
REMARK       I    between atoms: N_11  and  C_12 
REMARK       I    between atoms: C_12  and  N_21 
REMARK    4  A    between atoms: N_21  and  CA_22 
REMARK    5  A    between atoms: CA_22  and  C_23 
REMARK    6  A    between atoms: CA_22  and  CB_25 
REMARK    7  A    between atoms: C_23  and  O_24 
REMARK    8  A    between atoms: CB_25  and  CG_26 
ROOT
HETATM    1  N   UNK A   0      24.216  47.243  51.245  1.00  0.00    -0.309 N 
HETATM    2  C   UNK A   0      24.265  47.958  50.070  1.00  0.00     0.321 C 
HETATM    3  O   UNK A   0      25.253  48.468  49.559  1.00  0.00    -0.247 OA
HETATM    4  H   UNK A   0      23.301  47.177  51.665  1.00  0.00     0.170 HD
ATOM      5  N   TRP A   1      23.009  48.019  49.504  1.00  0.00    -0.336 N 
ATOM      6  H   TRP A   1      22.431  47.208  49.692  1.00  0.00     0.164 HD
ENDROOT
BRANCH   1   7
HETATM    7  C   UNK A   0      25.264  46.544  51.866  1.00  0.00     0.036 A 
HETATM    8  C   UNK A   0      25.511  45.188  51.658  1.00  0.00     0.030 A 
HETATM    9  C   UNK A   0      26.420  44.495  52.468  1.00  0.00     0.019 A 
HETATM   10  C   UNK A   0      27.119  45.162  53.482  1.00  0.00     0.032 A 
HETATM   11  C   UNK A   0      26.928  46.543  53.631  1.00  0.00     0.019 A 
HETATM   12  C   UNK A   0      26.007  47.228  52.831  1.00  0.00     0.030 A 
BRANCH  10  13
HETATM   13  C   UNK A   0      27.961  44.460  54.506  1.00  0.00     0.256 C 
HETATM   14  N   UNK A   0      28.680  45.262  55.375  1.00  0.00    -0.323 N 
HETATM   15  H   UNK A   0      28.415  46.233  55.450  1.00  0.00     0.169 HD
HETATM   16  O   UNK A   0      27.976  43.233  54.498  1.00  0.00    -0.267 OA
BRANCH  14  17
HETATM   17  C   UNK A   0      29.774  44.871  56.177  1.00  0.00     0.035 A 
HETATM   18  C   UNK A   0      30.081  45.451  57.411  1.00  0.00     0.029 A 
HETATM   19  C   UNK A   0      31.142  44.966  58.181  1.00  0.00     0.002 A 
HETATM   20  C   UNK A   0      31.906  43.896  57.725  1.00  0.00     0.000 A 
HETATM   21  C   UNK A   0      31.612  43.311  56.496  1.00  0.00     0.002 A 
HETATM   22  C   UNK A   0      30.550  43.796  55.727  1.00  0.00     0.029 A 
ENDBRANCH  14  17
ENDBRANCH  10  13
ENDBRANCH   1   7
BRANCH   5  23
ATOM     23  CA  TRP A   1      22.805  48.532  48.151  1.00  0.00     0.114 C 
BRANCH  23  24
ATOM     24  C   TRP A   1      23.247  50.008  48.092  1.00  0.00     0.189 C 
BRANCH  24  25
ATOM     25  O   TRP A   1      24.431  50.175  47.311  1.00  0.00    -0.399 OA
ATOM     26  H   TRP A   1      25.183  50.117  47.926  1.00  0.00     0.209 HD
ENDBRANCH  24  25
ENDBRANCH  23  24
BRANCH  23  27
ATOM     27  CB  TRP A   1      21.374  48.304  47.600  1.00  0.00     0.068 C 
BRANCH  27  28
ATOM     28  CG  TRP A   1      20.229  48.701  48.490  1.00  0.00    -0.028 A 
ATOM     29  CD2 TRP A   1      19.687  50.023  48.642  1.00  0.00    -0.002 A 
ATOM     30  CE2 TRP A   1      18.644  49.949  49.566  1.00  0.00     0.042 A 
ATOM     31  CE3 TRP A   1      19.991  51.280  48.080  1.00  0.00     0.014 A 
ATOM     32  CZ2 TRP A   1      17.881  51.062  49.941  1.00  0.00     0.030 A 
ATOM     33  NE1 TRP A   1      18.564  48.640  49.977  1.00  0.00    -0.365 N 
ATOM     34  CH2 TRP A   1      18.199  52.294  49.364  1.00  0.00     0.002 A 
ATOM     35  CZ3 TRP A   1      19.243  52.405  48.450  1.00  0.00     0.001 A 
ATOM     36  HE1 TRP A   1      17.899  48.293  50.653  1.00  0.00     0.165 HD
ATOM     37  CD1 TRP A   1      19.523  47.887  49.355  1.00  0.00     0.096 A 
ENDBRANCH  27  28
ENDBRANCH  23  27
ENDBRANCH   5  23
TORSDOF 8
ENDMDL
MODEL 4
REMARK VINA RESULT:     -10.0      1.976      2.618
REMARK  8 active torsions:
REMARK  status: ('A' for Active; 'I' for Inactive)
REMARK    1  A    between atoms: C_4  and  N_5 
REMARK       I    between atoms: N_5  and  C_6 
REMARK    2  A    between atoms: C_6  and  C_7 
REMARK    3  A    between atoms: C_10  and  N_11 
REMARK       I    between atoms: N_11  and  C_12 
REMARK       I    between atoms: C_12  and  N_21 
REMARK    4  A    between atoms: N_21  and  CA_22 
REMARK    5  A    between atoms: CA_22  and  C_23 
REMARK    6  A    between atoms: CA_22  and  CB_25 
REMARK    7  A    between atoms: C_23  and  O_24 
REMARK    8  A    between atoms: CB_25  and  CG_26 
ROOT
HETATM    1  N   UNK A   0      26.358  46.409  50.360  1.00  0.00    -0.309 N 
HETATM    2  C   UNK A   0      26.507  46.242  51.719  1.00  0.00     0.321 C 
HETATM    3  O   UNK A   0      26.316  47.080  52.589  1.00  0.00    -0.247 OA
HETATM    4  H   UNK A   0      26.852  45.738  49.792  1.00  0.00     0.170 HD
ATOM      5  N   TRP A   1      26.903  44.949  51.991  1.00  0.00    -0.336 N 
ATOM      6  H   TRP A   1      26.552  44.262  51.335  1.00  0.00     0.164 HD
ENDROOT
BRANCH   1   7
HETATM    7  C   UNK A   0      25.545  47.344  49.698  1.00  0.00     0.036 A 
HETATM    8  C   UNK A   0      26.022  48.553  49.194  1.00  0.00     0.030 A 
HETATM    9  C   UNK A   0      25.133  49.541  48.748  1.00  0.00     0.019 A 
HETATM   10  C   UNK A   0      23.751  49.315  48.773  1.00  0.00     0.032 A 
HETATM   11  C   UNK A   0      23.283  48.066  49.203  1.00  0.00     0.019 A 
HETATM   12  C   UNK A   0      24.172  47.089  49.663  1.00  0.00     0.030 A 
BRANCH  10  13
HETATM   13  C   UNK A   0      22.733  50.382  48.494  1.00  0.00     0.256 C 
HETATM   14  N   UNK A   0      21.413  50.068  48.766  1.00  0.00    -0.323 N 
HETATM   15  H   UNK A   0      21.229  49.273  49.360  1.00  0.00     0.169 HD
HETATM   16  O   UNK A   0      23.127  51.447  48.026  1.00  0.00    -0.267 OA
BRANCH  14  17
HETATM   17  C   UNK A   0      20.268  50.742  48.289  1.00  0.00     0.035 A 
HETATM   18  C   UNK A   0      19.743  51.896  48.876  1.00  0.00     0.029 A 
HETATM   19  C   UNK A   0      18.644  52.547  48.307  1.00  0.00     0.002 A 
HETATM   20  C   UNK A   0      18.060  52.051  47.146  1.00  0.00     0.000 A 
HETATM   21  C   UNK A   0      18.572  50.899  46.553  1.00  0.00     0.002 A 
HETATM   22  C   UNK A   0      19.672  50.249  47.121  1.00  0.00     0.029 A 
ENDBRANCH  14  17
ENDBRANCH  10  13
ENDBRANCH   1   7
BRANCH   5  23
ATOM     23  CA  TRP A   1      26.933  44.433  53.359  1.00  0.00     0.114 C 
BRANCH  23  24
ATOM     24  C   TRP A   1      25.490  44.307  53.889  1.00  0.00     0.189 C 
BRANCH  24  25
ATOM     25  O   TRP A   1      24.642  43.631  52.959  1.00  0.00    -0.399 OA
ATOM     26  H   TRP A   1      24.368  44.292  52.299  1.00  0.00     0.209 HD
ENDBRANCH  24  25
ENDBRANCH  23  24
BRANCH  23  27
ATOM     27  CB  TRP A   1      27.863  45.227  54.311  1.00  0.00     0.068 C 
BRANCH  27  28
ATOM     28  CG  TRP A   1      29.053  44.497  54.868  1.00  0.00    -0.028 A 
ATOM     29  CD2 TRP A   1      29.748  44.806  56.087  1.00  0.00    -0.002 A 
ATOM     30  CE2 TRP A   1      30.791  43.890  56.224  1.00  0.00     0.042 A 
ATOM     31  CE3 TRP A   1      29.586  45.786  57.089  1.00  0.00     0.014 A 
ATOM     32  CZ2 TRP A   1      31.667  43.894  57.317  1.00  0.00     0.030 A 
ATOM     33  NE1 TRP A   1      30.750  43.068  55.124  1.00  0.00    -0.365 N 
ATOM     34  CH2 TRP A   1      31.480  44.871  58.298  1.00  0.00     0.002 A 
ATOM     35  CZ3 TRP A   1      30.458  45.809  58.185  1.00  0.00     0.001 A 
ATOM     36  HE1 TRP A   1      31.396  42.311  54.952  1.00  0.00     0.165 HD
ATOM     37  CD1 TRP A   1      29.726  43.435  54.294  1.00  0.00     0.096 A 
ENDBRANCH  27  28
ENDBRANCH  23  27
ENDBRANCH   5  23
TORSDOF 8
ENDMDL
MODEL 5
REMARK VINA RESULT:      -9.9      2.176     11.180
REMARK  8 active torsions:
REMARK  status: ('A' for Active; 'I' for Inactive)
REMARK    1  A    between atoms: C_4  and  N_5 
REMARK       I    between atoms: N_5  and  C_6 
REMARK    2  A    between atoms: C_6  and  C_7 
REMARK    3  A    between atoms: C_10  and  N_11 
REMARK       I    between atoms: N_11  and  C_12 
REMARK       I    between atoms: C_12  and  N_21 
REMARK    4  A    between atoms: N_21  and  CA_22 
REMARK    5  A    between atoms: CA_22  and  C_23 
REMARK    6  A    between atoms: CA_22  and  CB_25 
REMARK    7  A    between atoms: C_23  and  O_24 
REMARK    8  A    between atoms: CB_25  and  CG_26 
ROOT
HETATM    1  N   UNK A   0      24.986  46.073  49.472  1.00  0.00    -0.309 N 
HETATM    2  C   UNK A   0      23.659  45.730  49.341  1.00  0.00     0.321 C 
HETATM    3  O   UNK A   0      23.070  44.832  49.926  1.00  0.00    -0.247 OA
HETATM    4  H   UNK A   0      25.366  46.605  48.704  1.00  0.00     0.170 HD
ATOM      5  N   TRP A   1      23.044  46.571  48.438  1.00  0.00    -0.336 N 
ATOM      6  H   TRP A   1      23.428  47.508  48.418  1.00  0.00     0.164 HD
ENDROOT
BRANCH   1   7
HETATM    7  C   UNK A   0      25.826  45.834  50.571  1.00  0.00     0.036 A 
HETATM    8  C   UNK A   0      26.691  44.743  50.654  1.00  0.00     0.030 A 
HETATM    9  C   UNK A   0      27.334  44.432  51.860  1.00  0.00     0.019 A 
HETATM   10  C   UNK A   0      27.142  45.231  52.993  1.00  0.00     0.032 A 
HETATM   11  C   UNK A   0      26.338  46.374  52.880  1.00  0.00     0.019 A 
HETATM   12  C   UNK A   0      25.684  46.672  51.680  1.00  0.00     0.030 A 
BRANCH  10  13
HETATM   13  C   UNK A   0      27.640  44.862  54.360  1.00  0.00     0.256 C 
HETATM   14  N   UNK A   0      28.829  45.443  54.766  1.00  0.00    -0.323 N 
HETATM   15  H   UNK A   0      29.156  46.253  54.260  1.00  0.00     0.169 HD
HETATM   16  O   UNK A   0      26.982  44.060  55.017  1.00  0.00    -0.267 OA
BRANCH  14  17
HETATM   17  C   UNK A   0      29.661  45.016  55.824  1.00  0.00     0.035 A 
HETATM   18  C   UNK A   0      30.559  43.951  55.726  1.00  0.00     0.029 A 
HETATM   19  C   UNK A   0      31.399  43.629  56.796  1.00  0.00     0.002 A 
HETATM   20  C   UNK A   0      31.349  44.369  57.974  1.00  0.00     0.000 A 
HETATM   21  C   UNK A   0      30.456  45.431  58.084  1.00  0.00     0.002 A 
HETATM   22  C   UNK A   0      29.617  45.754  57.014  1.00  0.00     0.029 A 
ENDBRANCH  14  17
ENDBRANCH  10  13
ENDBRANCH   1   7
BRANCH   5  23
ATOM     23  CA  TRP A   1      21.592  46.573  48.264  1.00  0.00     0.114 C 
BRANCH  23  24
ATOM     24  C   TRP A   1      21.188  45.411  47.335  1.00  0.00     0.189 C 
BRANCH  24  25
ATOM     25  O   TRP A   1      20.666  44.303  48.070  1.00  0.00    -0.399 OA
ATOM     26  H   TRP A   1      20.302  44.663  48.897  1.00  0.00     0.209 HD
ENDBRANCH  24  25
ENDBRANCH  23  24
BRANCH  23  27
ATOM     27  CB  TRP A   1      21.014  47.939  47.814  1.00  0.00     0.068 C 
BRANCH  27  28
ATOM     28  CG  TRP A   1      19.921  48.530  48.660  1.00  0.00    -0.028 A 
ATOM     29  CD2 TRP A   1      19.554  49.917  48.731  1.00  0.00    -0.002 A 
ATOM     30  CE2 TRP A   1      18.501  50.031  49.638  1.00  0.00     0.042 A 
ATOM     31  CE3 TRP A   1      20.025  51.091  48.106  1.00  0.00     0.014 A 
ATOM     32  CZ2 TRP A   1      17.885  51.253  49.939  1.00  0.00     0.030 A 
ATOM     33  NE1 TRP A   1      18.247  48.769  50.119  1.00  0.00    -0.365 N 
ATOM     34  CH2 TRP A   1      18.367  52.399  49.300  1.00  0.00     0.002 A 
ATOM     35  CZ3 TRP A   1      19.426  52.323  48.400  1.00  0.00     0.001 A 
ATOM     36  HE1 TRP A   1      17.536  48.550  50.801  1.00  0.00     0.165 HD
ATOM     37  CD1 TRP A   1      19.106  47.865  49.556  1.00  0.00     0.096 A 
ENDBRANCH  27  28
ENDBRANCH  23  27
ENDBRANCH   5  23
TORSDOF 8
ENDMDL
MODEL 6
REMARK VINA RESULT:      -9.9      1.271      1.763
REMARK  8 active torsions:
REMARK  status: ('A' for Active; 'I' for Inactive)
REMARK    1  A    between atoms: C_4  and  N_5 
REMARK       I    between atoms: N_5  and  C_6 
REMARK    2  A    between atoms: C_6  and  C_7 
REMARK    3  A    between atoms: C_10  and  N_11 
REMARK       I    between atoms: N_11  and  C_12 
REMARK       I    between atoms: C_12  and  N_21 
REMARK    4  A    between atoms: N_21  and  CA_22 
REMARK    5  A    between atoms: CA_22  and  C_23 
REMARK    6  A    between atoms: CA_22  and  CB_25 
REMARK    7  A    between atoms: C_23  and  O_24 
REMARK    8  A    between atoms: CB_25  and  CG_26 
ROOT
HETATM    1  N   UNK A   0      25.044  43.380  49.793  1.00  0.00    -0.309 N 
HETATM    2  C   UNK A   0      26.383  43.289  50.099  1.00  0.00     0.321 C 
HETATM    3  O   UNK A   0      27.242  44.139  49.907  1.00  0.00    -0.247 OA
HETATM    4  H   UNK A   0      24.562  42.497  49.725  1.00  0.00     0.170 HD
ATOM      5  N   TRP A   1      26.647  42.072  50.691  1.00  0.00    -0.336 N 
ATOM      6  H   TRP A   1      25.878  41.702  51.237  1.00  0.00     0.164 HD
ENDROOT
BRANCH   1   7
HETATM    7  C   UNK A   0      24.278  44.547  49.647  1.00  0.00     0.036 A 
HETATM    8  C   UNK A   0      23.149  44.627  48.832  1.00  0.00     0.030 A 
HETATM    9  C   UNK A   0      22.559  45.867  48.548  1.00  0.00     0.019 A 
HETATM   10  C   UNK A   0      23.078  47.043  49.104  1.00  0.00     0.032 A 
HETATM   11  C   UNK A   0      24.161  46.947  49.988  1.00  0.00     0.019 A 
HETATM   12  C   UNK A   0      24.757  45.710  50.256  1.00  0.00     0.030 A 
BRANCH  10  13
HETATM   13  C   UNK A   0      22.625  48.416  48.703  1.00  0.00     0.256 C 
HETATM   14  N   UNK A   0      21.506  48.915  49.348  1.00  0.00    -0.323 N 
HETATM   15  H   UNK A   0      21.215  48.466  50.203  1.00  0.00     0.169 HD
HETATM   16  O   UNK A   0      23.254  48.998  47.824  1.00  0.00    -0.267 OA
BRANCH  14  17
HETATM   17  C   UNK A   0      20.701  49.996  48.930  1.00  0.00     0.035 A 
HETATM   18  C   UNK A   0      20.236  50.161  47.622  1.00  0.00     0.029 A 
HETATM   19  C   UNK A   0      19.387  51.223  47.298  1.00  0.00     0.002 A 
HETATM   20  C   UNK A   0      18.993  52.129  48.277  1.00  0.00     0.000 A 
HETATM   21  C   UNK A   0      19.452  51.978  49.583  1.00  0.00     0.002 A 
HETATM   22  C   UNK A   0      20.300  50.916  49.908  1.00  0.00     0.029 A 
ENDBRANCH  14  17
ENDBRANCH  10  13
ENDBRANCH   1   7
BRANCH   5  23
ATOM     23  CA  TRP A   1      27.941  41.789  51.310  1.00  0.00     0.114 C 
BRANCH  23  24
ATOM     24  C   TRP A   1      28.531  40.504  50.697  1.00  0.00     0.189 C 
BRANCH  24  25
ATOM     25  O   TRP A   1      29.191  39.704  51.679  1.00  0.00    -0.399 OA
ATOM     26  H   TRP A   1      29.191  38.791  51.342  1.00  0.00     0.209 HD
ENDBRANCH  24  25
ENDBRANCH  23  24
BRANCH  23  27
ATOM     27  CB  TRP A   1      27.905  41.762  52.860  1.00  0.00     0.068 C 
BRANCH  27  28
ATOM     28  CG  TRP A   1      27.918  43.089  53.567  1.00  0.00    -0.028 A 
ATOM     29  CD2 TRP A   1      28.941  43.571  54.453  1.00  0.00    -0.002 A 
ATOM     30  CE2 TRP A   1      28.557  44.838  54.893  1.00  0.00     0.042 A 
ATOM     31  CE3 TRP A   1      30.160  43.043  54.927  1.00  0.00     0.014 A 
ATOM     32  CZ2 TRP A   1      29.336  45.608  55.765  1.00  0.00     0.030 A 
ATOM     33  NE1 TRP A   1      27.340  45.111  54.315  1.00  0.00    -0.365 N 
ATOM     34  CH2 TRP A   1      30.543  45.064  56.213  1.00  0.00     0.002 A 
ATOM     35  CZ3 TRP A   1      30.949  43.796  55.806  1.00  0.00     0.001 A 
ATOM     36  HE1 TRP A   1      26.817  45.962  54.462  1.00  0.00     0.165 HD
ATOM     37  CD1 TRP A   1      26.938  44.061  53.536  1.00  0.00     0.096 A 
ENDBRANCH  27  28
ENDBRANCH  23  27
ENDBRANCH   5  23
TORSDOF 8
ENDMDL
MODEL 7
REMARK VINA RESULT:      -9.8      1.798      2.555
REMARK  8 active torsions:
REMARK  status: ('A' for Active; 'I' for Inactive)
REMARK    1  A    between atoms: C_4  and  N_5 
REMARK       I    between atoms: N_5  and  C_6 
REMARK    2  A    between atoms: C_6  and  C_7 
REMARK    3  A    between atoms: C_10  and  N_11 
REMARK       I    between atoms: N_11  and  C_12 
REMARK       I    between atoms: C_12  and  N_21 
REMARK    4  A    between atoms: N_21  and  CA_22 
REMARK    5  A    between atoms: CA_22  and  C_23 
REMARK    6  A    between atoms: CA_22  and  CB_25 
REMARK    7  A    between atoms: C_23  and  O_24 
REMARK    8  A    between atoms: CB_25  and  CG_26 
ROOT
HETATM    1  N   UNK A   0      26.643  46.097  50.133  1.00  0.00    -0.309 N 
HETATM    2  C   UNK A   0      26.600  45.064  51.041  1.00  0.00     0.321 C 
HETATM    3  O   UNK A   0      25.899  44.992  52.042  1.00  0.00    -0.247 OA
HETATM    4  H   UNK A   0      27.480  46.134  49.570  1.00  0.00     0.170 HD
ATOM      5  N   TRP A   1      27.473  44.067  50.660  1.00  0.00    -0.336 N 
ATOM      6  H   TRP A   1      27.592  43.982  49.658  1.00  0.00     0.164 HD
ENDROOT
BRANCH   1   7
HETATM    7  C   UNK A   0      25.636  47.036  49.857  1.00  0.00     0.036 A 
HETATM    8  C   UNK A   0      24.280  46.716  49.811  1.00  0.00     0.030 A 
HETATM    9  C   UNK A   0      23.346  47.634  49.312  1.00  0.00     0.019 A 
HETATM   10  C   UNK A   0      23.757  48.901  48.880  1.00  0.00     0.032 A 
HETATM   11  C   UNK A   0      25.109  49.247  49.007  1.00  0.00     0.019 A 
HETATM   12  C   UNK A   0      26.042  48.322  49.490  1.00  0.00     0.030 A 
BRANCH  10  13
HETATM   13  C   UNK A   0      22.855  49.863  48.164  1.00  0.00     0.256 C 
HETATM   14  N   UNK A   0      21.635  50.132  48.759  1.00  0.00    -0.323 N 
HETATM   15  H   UNK A   0      21.520  49.888  49.732  1.00  0.00     0.169 HD
HETATM   16  O   UNK A   0      23.242  50.331  47.097  1.00  0.00    -0.267 OA
BRANCH  14  17
HETATM   17  C   UNK A   0      20.504  50.711  48.145  1.00  0.00     0.035 A 
HETATM   18  C   UNK A   0      19.837  50.148  47.054  1.00  0.00     0.029 A 
HETATM   19  C   UNK A   0      18.682  50.746  46.541  1.00  0.00     0.002 A 
HETATM   20  C   UNK A   0      18.183  51.912  47.113  1.00  0.00     0.000 A 
HETATM   21  C   UNK A   0      18.840  52.484  48.199  1.00  0.00     0.002 A 
HETATM   22  C   UNK A   0      19.994  51.886  48.713  1.00  0.00     0.029 A 
ENDBRANCH  14  17
ENDBRANCH  10  13
ENDBRANCH   1   7
BRANCH   5  23
ATOM     23  CA  TRP A   1      27.478  42.763  51.322  1.00  0.00     0.114 C 
BRANCH  23  24
ATOM     24  C   TRP A   1      26.427  41.850  50.661  1.00  0.00     0.189 C 
BRANCH  24  25
ATOM     25  O   TRP A   1      25.130  42.039  51.230  1.00  0.00    -0.399 OA
ATOM     26  H   TRP A   1      24.502  42.081  50.487  1.00  0.00     0.209 HD
ENDBRANCH  24  25
ENDBRANCH  23  24
BRANCH  23  27
ATOM     27  CB  TRP A   1      27.334  42.839  52.863  1.00  0.00     0.068 C 
BRANCH  27  28
ATOM     28  CG  TRP A   1      28.578  43.139  53.652  1.00  0.00    -0.028 A 
ATOM     29  CD2 TRP A   1      28.736  44.177  54.633  1.00  0.00    -0.002 A 
ATOM     30  CE2 TRP A   1      30.043  44.110  55.114  1.00  0.00     0.042 A 
ATOM     31  CE3 TRP A   1      27.884  45.173  55.155  1.00  0.00     0.014 A 
ATOM     32  CZ2 TRP A   1      30.535  44.974  56.100  1.00  0.00     0.030 A 
ATOM     33  NE1 TRP A   1      30.666  43.087  54.441  1.00  0.00    -0.365 N 
ATOM     34  CH2 TRP A   1      29.668  45.947  56.605  1.00  0.00     0.002 A 
ATOM     35  CZ3 TRP A   1      28.361  46.051  56.136  1.00  0.00     0.001 A 
ATOM     36  HE1 TRP A   1      31.628  42.813  54.582  1.00  0.00     0.165 HD
ATOM     37  CD1 TRP A   1      29.805  42.512  53.548  1.00  0.00     0.096 A 
ENDBRANCH  27  28
ENDBRANCH  23  27
ENDBRANCH   5  23
TORSDOF 8
ENDMDL
MODEL 8
REMARK VINA RESULT:      -9.5      2.088      3.274
REMARK  8 active torsions:
REMARK  status: ('A' for Active; 'I' for Inactive)
REMARK    1  A    between atoms: C_4  and  N_5 
REMARK       I    between atoms: N_5  and  C_6 
REMARK    2  A    between atoms: C_6  and  C_7 
REMARK    3  A    between atoms: C_10  and  N_11 
REMARK       I    between atoms: N_11  and  C_12 
REMARK       I    between atoms: C_12  and  N_21 
REMARK    4  A    between atoms: N_21  and  CA_22 
REMARK    5  A    between atoms: CA_22  and  C_23 
REMARK    6  A    between atoms: CA_22  and  CB_25 
REMARK    7  A    between atoms: C_23  and  O_24 
REMARK    8  A    between atoms: CB_25  and  CG_26 
ROOT
HETATM    1  N   UNK A   0      25.395  47.523  49.550  1.00  0.00    -0.309 N 
HETATM    2  C   UNK A   0      25.484  46.733  50.674  1.00  0.00     0.321 C 
HETATM    3  O   UNK A   0      24.881  46.882  51.728  1.00  0.00    -0.247 OA
HETATM    4  H   UNK A   0      26.174  47.447  48.914  1.00  0.00     0.170 HD
ATOM      5  N   TRP A   1      26.365  45.696  50.450  1.00  0.00    -0.336 N 
ATOM      6  H   TRP A   1      26.397  45.380  49.488  1.00  0.00     0.164 HD
ENDROOT
BRANCH   1   7
HETATM    7  C   UNK A   0      24.324  48.344  49.165  1.00  0.00     0.036 A 
HETATM    8  C   UNK A   0      24.462  49.702  48.877  1.00  0.00     0.030 A 
HETATM    9  C   UNK A   0      23.333  50.517  48.720  1.00  0.00     0.019 A 
HETATM   10  C   UNK A   0      22.046  49.974  48.819  1.00  0.00     0.032 A 
HETATM   11  C   UNK A   0      21.914  48.594  49.026  1.00  0.00     0.019 A 
HETATM   12  C   UNK A   0      23.043  47.786  49.199  1.00  0.00     0.030 A 
BRANCH  10  13
HETATM   13  C   UNK A   0      20.798  50.806  48.852  1.00  0.00     0.256 C 
HETATM   14  N   UNK A   0      19.659  50.199  49.350  1.00  0.00    -0.323 N 
HETATM   15  H   UNK A   0      19.772  49.353  49.889  1.00  0.00     0.169 HD
HETATM   16  O   UNK A   0      20.858  51.954  48.419  1.00  0.00    -0.267 OA
BRANCH  14  17
HETATM   17  C   UNK A   0      18.325  50.630  49.178  1.00  0.00     0.035 A 
HETATM   18  C   UNK A   0      17.380  49.948  48.408  1.00  0.00     0.029 A 
HETATM   19  C   UNK A   0      16.059  50.400  48.338  1.00  0.00     0.002 A 
HETATM   20  C   UNK A   0      15.671  51.539  49.037  1.00  0.00     0.000 A 
HETATM   21  C   UNK A   0      16.605  52.230  49.805  1.00  0.00     0.002 A 
HETATM   22  C   UNK A   0      17.925  51.776  49.876  1.00  0.00     0.029 A 
ENDBRANCH  14  17
ENDBRANCH  10  13
ENDBRANCH   1   7
BRANCH   5  23
ATOM     23  CA  TRP A   1      26.493  44.587  51.393  1.00  0.00     0.114 C 
BRANCH  23  24
ATOM     24  C   TRP A   1      25.149  43.838  51.487  1.00  0.00     0.189 C 
BRANCH  24  25
ATOM     25  O   TRP A   1      24.635  43.839  52.819  1.00  0.00    -0.399 OA
ATOM     26  H   TRP A   1      23.849  43.265  52.816  1.00  0.00     0.209 HD
ENDBRANCH  24  25
ENDBRANCH  23  24
BRANCH  23  27
ATOM     27  CB  TRP A   1      27.056  44.999  52.777  1.00  0.00     0.068 C 
BRANCH  27  28
ATOM     28  CG  TRP A   1      28.159  44.150  53.346  1.00  0.00    -0.028 A 
ATOM     29  CD2 TRP A   1      28.971  44.462  54.490  1.00  0.00    -0.002 A 
ATOM     30  CE2 TRP A   1      29.873  43.413  54.668  1.00  0.00     0.042 A 
ATOM     31  CE3 TRP A   1      29.024  45.546  55.391  1.00  0.00     0.014 A 
ATOM     32  CZ2 TRP A   1      30.810  43.386  55.709  1.00  0.00     0.030 A 
ATOM     33  NE1 TRP A   1      29.637  42.506  53.663  1.00  0.00    -0.365 N 
ATOM     34  CH2 TRP A   1      30.836  44.469  56.591  1.00  0.00     0.002 A 
ATOM     35  CZ3 TRP A   1      29.959  45.539  56.433  1.00  0.00     0.001 A 
ATOM     36  HE1 TRP A   1      30.150  41.645  53.539  1.00  0.00     0.165 HD
ATOM     37  CD1 TRP A   1      28.627  42.947  52.853  1.00  0.00     0.096 A 
ENDBRANCH  27  28
ENDBRANCH  23  27
ENDBRANCH   5  23
TORSDOF 8
ENDMDL
MODEL 9
REMARK VINA RESULT:      -9.5      2.432      4.400
REMARK  8 active torsions:
REMARK  status: ('A' for Active; 'I' for Inactive)
REMARK    1  A    between atoms: C_4  and  N_5 
REMARK       I    between atoms: N_5  and  C_6 
REMARK    2  A    between atoms: C_6  and  C_7 
REMARK    3  A    between atoms: C_10  and  N_11 
REMARK       I    between atoms: N_11  and  C_12 
REMARK       I    between atoms: C_12  and  N_21 
REMARK    4  A    between atoms: N_21  and  CA_22 
REMARK    5  A    between atoms: CA_22  and  C_23 
REMARK    6  A    between atoms: CA_22  and  CB_25 
REMARK    7  A    between atoms: C_23  and  O_24 
REMARK    8  A    between atoms: CB_25  and  CG_26 
ROOT
HETATM    1  N   UNK A   0      23.059  47.264  49.082  1.00  0.00    -0.309 N 
HETATM    2  C   UNK A   0      24.286  47.407  49.689  1.00  0.00     0.321 C 
HETATM    3  O   UNK A   0      24.989  48.409  49.701  1.00  0.00    -0.247 OA
HETATM    4  H   UNK A   0      22.782  46.311  48.903  1.00  0.00     0.170 HD
ATOM      5  N   TRP A   1      24.635  46.235  50.325  1.00  0.00    -0.336 N 
ATOM      6  H   TRP A   1      23.847  45.705  50.677  1.00  0.00     0.164 HD
ENDROOT
BRANCH   1   7
HETATM    7  C   UNK A   0      22.139  48.275  48.764  1.00  0.00     0.036 A 
HETATM    8  C   UNK A   0      22.497  49.472  48.144  1.00  0.00     0.030 A 
HETATM    9  C   UNK A   0      21.585  50.532  48.056  1.00  0.00     0.019 A 
HETATM   10  C   UNK A   0      20.287  50.395  48.563  1.00  0.00     0.032 A 
HETATM   11  C   UNK A   0      19.907  49.161  49.109  1.00  0.00     0.019 A 
HETATM   12  C   UNK A   0      20.826  48.111  49.211  1.00  0.00     0.030 A 
BRANCH  10  13
HETATM   13  C   UNK A   0      19.319  51.535  48.677  1.00  0.00     0.256 C 
HETATM   14  N   UNK A   0      18.069  51.240  49.193  1.00  0.00    -0.323 N 
HETATM   15  H   UNK A   0      17.957  50.371  49.692  1.00  0.00     0.169 HD
HETATM   16  O   UNK A   0      19.683  52.642  48.290  1.00  0.00    -0.267 OA
BRANCH  14  17
HETATM   17  C   UNK A   0      16.903  52.030  49.089  1.00  0.00     0.035 A 
HETATM   18  C   UNK A   0      16.463  52.902  50.088  1.00  0.00     0.029 A 
HETATM   19  C   UNK A   0      15.334  53.702  49.886  1.00  0.00     0.002 A 
HETATM   20  C   UNK A   0      14.636  53.639  48.685  1.00  0.00     0.000 A 
HETATM   21  C   UNK A   0      15.063  52.771  47.683  1.00  0.00     0.002 A 
HETATM   22  C   UNK A   0      16.192  51.972  47.884  1.00  0.00     0.029 A 
ENDBRANCH  14  17
ENDBRANCH  10  13
ENDBRANCH   1   7
BRANCH   5  23
ATOM     23  CA  TRP A   1      25.785  46.168  51.226  1.00  0.00     0.114 C 
BRANCH  23  24
ATOM     24  C   TRP A   1      26.844  45.217  50.633  1.00  0.00     0.189 C 
BRANCH  24  25
ATOM     25  O   TRP A   1      27.224  45.605  49.312  1.00  0.00    -0.399 OA
ATOM     26  H   TRP A   1      28.196  45.629  49.297  1.00  0.00     0.209 HD
ENDBRANCH  24  25
ENDBRANCH  23  24
BRANCH  23  27
ATOM     27  CB  TRP A   1      25.416  45.828  52.692  1.00  0.00     0.068 C 
BRANCH  27  28
ATOM     28  CG  TRP A   1      26.344  46.330  53.764  1.00  0.00    -0.028 A 
ATOM     29  CD2 TRP A   1      27.488  45.640  54.291  1.00  0.00    -0.002 A 
ATOM     30  CE2 TRP A   1      28.061  46.454  55.268  1.00  0.00     0.042 A 
ATOM     31  CE3 TRP A   1      28.090  44.392  54.028  1.00  0.00     0.014 A 
ATOM     32  CZ2 TRP A   1      29.210  46.092  55.982  1.00  0.00     0.030 A 
ATOM     33  NE1 TRP A   1      27.286  47.587  55.350  1.00  0.00    -0.365 N 
ATOM     34  CH2 TRP A   1      29.790  44.853  55.696  1.00  0.00     0.002 A 
ATOM     35  CZ3 TRP A   1      29.236  44.010  54.737  1.00  0.00     0.001 A 
ATOM     36  HE1 TRP A   1      27.461  48.353  55.984  1.00  0.00     0.165 HD
ATOM     37  CD1 TRP A   1      26.243  47.514  54.468  1.00  0.00     0.096 A 
ENDBRANCH  27  28
ENDBRANCH  23  27
ENDBRANCH   5  23
TORSDOF 8
ENDMDL
MODEL 10
REMARK VINA RESULT:      -9.4      4.052      9.128
REMARK  8 active torsions:
REMARK  status: ('A' for Active; 'I' for Inactive)
REMARK    1  A    between atoms: C_4  and  N_5 
REMARK       I    between atoms: N_5  and  C_6 
REMARK    2  A    between atoms: C_6  and  C_7 
REMARK    3  A    between atoms: C_10  and  N_11 
REMARK       I    between atoms: N_11  and  C_12 
REMARK       I    between atoms: C_12  and  N_21 
REMARK    4  A    between atoms: N_21  and  CA_22 
REMARK    5  A    between atoms: CA_22  and  C_23 
REMARK    6  A    between atoms: CA_22  and  CB_25 
REMARK    7  A    between atoms: C_23  and  O_24 
REMARK    8  A    between atoms: CB_25  and  CG_26 
ROOT
HETATM    1  N   UNK A   0      24.105  45.288  50.718  1.00  0.00    -0.309 N 
HETATM    2  C   UNK A   0      24.511  44.619  49.586  1.00  0.00     0.321 C 
HETATM    3  O   UNK A   0      25.648  44.550  49.140  1.00  0.00    -0.247 OA
HETATM    4  H   UNK A   0      23.120  45.502  50.756  1.00  0.00     0.170 HD
ATOM      5  N   TRP A   1      23.431  43.995  48.997  1.00  0.00    -0.336 N 
ATOM      6  H   TRP A   1      22.720  43.693  49.652  1.00  0.00     0.164 HD
ENDROOT
BRANCH   1   7
HETATM    7  C   UNK A   0      24.883  45.626  51.837  1.00  0.00     0.036 A 
HETATM    8  C   UNK A   0      25.282  46.930  52.129  1.00  0.00     0.030 A 
HETATM    9  C   UNK A   0      26.238  47.179  53.123  1.00  0.00     0.019 A 
HETATM   10  C   UNK A   0      26.787  46.122  53.860  1.00  0.00     0.032 A 
HETATM   11  C   UNK A   0      26.320  44.823  53.619  1.00  0.00     0.019 A 
HETATM   12  C   UNK A   0      25.378  44.576  52.615  1.00  0.00     0.030 A 
BRANCH  10  13
HETATM   13  C   UNK A   0      27.943  46.284  54.802  1.00  0.00     0.256 C 
HETATM   14  N   UNK A   0      28.802  45.205  54.923  1.00  0.00    -0.323 N 
HETATM   15  H   UNK A   0      28.766  44.491  54.211  1.00  0.00     0.169 HD
HETATM   16  O   UNK A   0      28.044  47.343  55.416  1.00  0.00    -0.267 OA
BRANCH  14  17
HETATM   17  C   UNK A   0      29.735  44.979  55.958  1.00  0.00     0.035 A 
HETATM   18  C   UNK A   0      29.757  45.696  57.157  1.00  0.00     0.029 A 
HETATM   19  C   UNK A   0      30.669  45.370  58.164  1.00  0.00     0.002 A 
HETATM   20  C   UNK A   0      31.568  44.323  57.984  1.00  0.00     0.000 A 
HETATM   21  C   UNK A   0      31.558  43.603  56.792  1.00  0.00     0.002 A 
HETATM   22  C   UNK A   0      30.645  43.928  55.785  1.00  0.00     0.029 A 
ENDBRANCH  14  17
ENDBRANCH  10  13
ENDBRANCH   1   7
BRANCH   5  23
ATOM     23  CA  TRP A   1      23.605  43.042  47.902  1.00  0.00     0.114 C 
BRANCH  23  24
ATOM     24  C   TRP A   1      22.519  43.286  46.835  1.00  0.00     0.189 C 
BRANCH  24  25
ATOM     25  O   TRP A   1      21.272  42.696  47.204  1.00  0.00    -0.399 OA
ATOM     26  H   TRP A   1      20.817  42.463  46.376  1.00  0.00     0.209 HD
ENDBRANCH  24  25
ENDBRANCH  23  24
BRANCH  23  27
ATOM     27  CB  TRP A   1      23.683  41.563  48.361  1.00  0.00     0.068 C 
BRANCH  27  28
ATOM     28  CG  TRP A   1      25.034  40.906  48.319  1.00  0.00    -0.028 A 
ATOM     29  CD2 TRP A   1      26.008  40.894  49.375  1.00  0.00    -0.002 A 
ATOM     30  CE2 TRP A   1      27.118  40.183  48.919  1.00  0.00     0.042 A 
ATOM     31  CE3 TRP A   1      26.050  41.427  50.681  1.00  0.00     0.014 A 
ATOM     32  CZ2 TRP A   1      28.257  39.965  49.706  1.00  0.00     0.030 A 
ATOM     33  NE1 TRP A   1      26.844  39.794  47.630  1.00  0.00    -0.365 N 
ATOM     34  CH2 TRP A   1      28.268  40.498  50.997  1.00  0.00     0.002 A 
ATOM     35  CZ3 TRP A   1      27.183  41.225  51.478  1.00  0.00     0.001 A 
ATOM     36  HE1 TRP A   1      27.476  39.266  47.047  1.00  0.00     0.165 HD
ATOM     37  CD1 TRP A   1      25.606  40.239  47.253  1.00  0.00     0.096 A 
ENDBRANCH  27  28
ENDBRANCH  23  27
ENDBRANCH   5  23
TORSDOF 8
ENDMDL
