MODEL 1
REMARK VINA RESULT:      -9.7      0.000      0.000
REMARK  8 active torsions:
REMARK  status: ('A' for Active; 'I' for Inactive)
REMARK    1  A    between atoms: C_6  and  N_7 
REMARK       I    between atoms: N_7  and  C_8 
REMARK    2  A    between atoms: C_8  and  C_9 
REMARK    3  A    between atoms: C_9  and  S_10 
REMARK    4  A    between atoms: S_10  and  C_11 
REMARK    5  A    between atoms: N_12  and  C_13 
REMARK    6  A    between atoms: C_13  and  C_14 
REMARK    7  A    between atoms: C_14  and  C_15 
REMARK       I    between atoms: C_15  and  N_16 
REMARK    8  A    between atoms: N_16  and  C_17 
ROOT
HETATM    1  C   UNL     1      26.254  43.609  51.731  1.00  0.00     0.172 A 
HETATM    2  N   UNL     1      26.913  42.466  51.315  1.00  0.00    -0.292 N 
HETATM    3  C   UNL     1      28.035  42.018  52.017  1.00  0.00     0.262 A 
HETATM    4  O   UNL     1      28.611  40.958  51.784  1.00  0.00    -0.267 OA
HETATM    5  C   UNL     1      28.525  42.873  53.107  1.00  0.00     0.061 A 
HETATM    6  C   UNL     1      27.790  44.014  53.410  1.00  0.00     0.075 A 
HETATM    7  C   UNL     1      29.702  42.560  53.798  1.00  0.00     0.019 A 
HETATM    8  C   UNL     1      30.159  43.415  54.798  1.00  0.00     0.001 A 
HETATM    9  C   UNL     1      29.447  44.575  55.096  1.00  0.00     0.002 A 
HETATM   10  C   UNL     1      28.270  44.873  54.401  1.00  0.00     0.032 A 
HETATM   11  N   UNL     1      26.604  44.338  52.740  1.00  0.00    -0.224 NA
ENDROOT
BRANCH   1  12
HETATM   12  S   UNL     1      24.837  44.152  50.867  1.00  0.00    -0.082 SA
BRANCH  12  13
HETATM   13  C   UNL     1      25.472  45.700  50.197  1.00  0.00     0.185 C 
BRANCH  13  14
HETATM   14  C   UNL     1      24.535  46.876  50.403  1.00  0.00     0.231 C 
HETATM   15  N   UNL     1      23.478  46.913  49.511  1.00  0.00    -0.326 N 
HETATM   16  H   UNL     1      23.214  46.027  49.079  1.00  0.00     0.169 HD
HETATM   17  O   UNL     1      24.807  47.744  51.229  1.00  0.00    -0.272 OA
BRANCH  15  18
HETATM   18  C   UNL     1      22.692  48.035  49.171  1.00  0.00     0.036 A 
HETATM   19  C   UNL     1      21.315  47.987  48.956  1.00  0.00     0.053 A 
HETATM   20  C   UNL     1      20.592  49.163  48.711  1.00  0.00     0.042 A 
HETATM   21  C   UNL     1      21.234  50.408  48.669  1.00  0.00    -0.040 A 
HETATM   22 CL   UNL     1      18.881  49.028  48.493  1.00  0.00    -0.084 Cl
HETATM   23  C   UNL     1      20.479  51.689  48.455  1.00  0.00     0.050 C 
HETATM   24  C   UNL     1      22.618  50.448  48.876  1.00  0.00     0.011 A 
HETATM   25  C   UNL     1      23.336  49.275  49.122  1.00  0.00     0.030 A 
ENDBRANCH  15  18
ENDBRANCH  13  14
ENDBRANCH  12  13
ENDBRANCH   1  12
BRANCH   2  26
HETATM   26  C   UNL     1      26.499  41.613  50.187  1.00  0.00     0.144 C 
BRANCH  26  27
HETATM   27  C   UNL     1      27.058  42.113  48.853  1.00  0.00     0.123 C 
BRANCH  27  28
HETATM   28  C   UNL     1      27.835  41.010  48.170  1.00  0.00     0.219 C 
HETATM   29  N   UNL     1      27.834  39.821  48.865  1.00  0.00    -0.356 N 
HETATM   30  H   UNL     1      27.260  39.733  49.694  1.00  0.00     0.162 HD
HETATM   31  O   UNL     1      28.389  41.165  47.086  1.00  0.00    -0.274 OA
BRANCH  29  32
HETATM   32  C   UNL     1      28.551  38.644  48.386  1.00  0.00     0.084 C 
HETATM   33  C   UNL     1      29.858  38.444  49.166  1.00  0.00     0.025 C 
HETATM   34  C   UNL     1      29.635  37.912  50.582  1.00  0.00     0.002 C 
HETATM   35  C   UNL     1      28.778  36.651  50.580  1.00  0.00     0.000 C 
HETATM   36  C   UNL     1      27.453  36.876  49.859  1.00  0.00     0.002 C 
HETATM   37  C   UNL     1      27.669  37.389  48.436  1.00  0.00     0.025 C 
ENDBRANCH  29  32
ENDBRANCH  27  28
ENDBRANCH  26  27
ENDBRANCH   2  26
TORSDOF 8
ENDMDL
MODEL 2
REMARK VINA RESULT:      -9.7      3.490      8.335
REMARK  8 active torsions:
REMARK  status: ('A' for Active; 'I' for Inactive)
REMARK    1  A    between atoms: C_6  and  N_7 
REMARK       I    between atoms: N_7  and  C_8 
REMARK    2  A    between atoms: C_8  and  C_9 
REMARK    3  A    between atoms: C_9  and  S_10 
REMARK    4  A    between atoms: S_10  and  C_11 
REMARK    5  A    between atoms: N_12  and  C_13 
REMARK    6  A    between atoms: C_13  and  C_14 
REMARK    7  A    between atoms: C_14  and  C_15 
REMARK       I    between atoms: C_15  and  N_16 
REMARK    8  A    between atoms: N_16  and  C_17 
ROOT
HETATM    1  C   UNL     1      24.428  47.640  49.561  1.00  0.00     0.172 A 
HETATM    2  N   UNL     1      23.628  46.709  48.924  1.00  0.00    -0.292 N 
HETATM    3  C   UNL     1      22.480  47.127  48.246  1.00  0.00     0.262 A 
HETATM    4  O   UNL     1      21.777  46.384  47.565  1.00  0.00    -0.267 OA
HETATM    5  C   UNL     1      22.123  48.548  48.353  1.00  0.00     0.061 A 
HETATM    6  C   UNL     1      22.994  49.380  49.048  1.00  0.00     0.075 A 
HETATM    7  C   UNL     1      20.936  49.039  47.797  1.00  0.00     0.019 A 
HETATM    8  C   UNL     1      20.608  50.384  47.954  1.00  0.00     0.001 A 
HETATM    9  C   UNL     1      21.460  51.225  48.668  1.00  0.00     0.002 A 
HETATM   10  C   UNL     1      22.645  50.721  49.215  1.00  0.00     0.032 A 
HETATM   11  N   UNL     1      24.192  48.911  49.601  1.00  0.00    -0.224 NA
ENDROOT
BRANCH   1  12
HETATM   12  S   UNL     1      25.876  47.118  50.385  1.00  0.00    -0.082 SA
BRANCH  12  13
HETATM   13  C   UNL     1      25.208  46.888  52.042  1.00  0.00     0.185 C 
BRANCH  13  14
HETATM   14  C   UNL     1      25.868  45.755  52.806  1.00  0.00     0.231 C 
HETATM   15  N   UNL     1      26.830  46.172  53.709  1.00  0.00    -0.326 N 
HETATM   16  H   UNL     1      26.755  47.134  54.043  1.00  0.00     0.169 HD
HETATM   17  O   UNL     1      25.611  44.587  52.522  1.00  0.00    -0.272 OA
BRANCH  15  18
HETATM   18  C   UNL     1      27.876  45.398  54.255  1.00  0.00     0.036 A 
HETATM   19  C   UNL     1      28.455  44.303  53.613  1.00  0.00     0.053 A 
HETATM   20  C   UNL     1      29.551  43.642  54.184  1.00  0.00     0.042 A 
HETATM   21  C   UNL     1      30.084  44.057  55.412  1.00  0.00    -0.040 A 
HETATM   22 CL   UNL     1      30.239  42.317  53.309  1.00  0.00    -0.084 Cl
HETATM   23  C   UNL     1      31.287  43.397  56.024  1.00  0.00     0.050 C 
HETATM   24  C   UNL     1      29.492  45.150  56.056  1.00  0.00     0.011 A 
HETATM   25  C   UNL     1      28.401  45.810  55.483  1.00  0.00     0.030 A 
ENDBRANCH  15  18
ENDBRANCH  13  14
ENDBRANCH  12  13
ENDBRANCH   1  12
BRANCH   2  26
HETATM   26  C   UNL     1      23.910  45.264  48.845  1.00  0.00     0.144 C 
BRANCH  26  27
HETATM   27  C   UNL     1      23.288  44.493  50.013  1.00  0.00     0.123 C 
BRANCH  27  28
HETATM   28  C   UNL     1      23.496  43.008  49.823  1.00  0.00     0.219 C 
HETATM   29  N   UNL     1      24.785  42.593  50.076  1.00  0.00    -0.356 N 
HETATM   30  H   UNL     1      25.452  43.254  50.452  1.00  0.00     0.162 HD
HETATM   31  O   UNL     1      22.587  42.250  49.499  1.00  0.00    -0.274 OA
BRANCH  29  32
HETATM   32  C   UNL     1      25.194  41.200  49.922  1.00  0.00     0.084 C 
HETATM   33  C   UNL     1      25.724  40.939  48.506  1.00  0.00     0.025 C 
HETATM   34  C   UNL     1      27.116  41.526  48.270  1.00  0.00     0.002 C 
HETATM   35  C   UNL     1      28.106  41.074  49.338  1.00  0.00     0.000 C 
HETATM   36  C   UNL     1      27.600  41.395  50.741  1.00  0.00     0.002 C 
HETATM   37  C   UNL     1      26.218  40.795  50.990  1.00  0.00     0.025 C 
ENDBRANCH  29  32
ENDBRANCH  27  28
ENDBRANCH  26  27
ENDBRANCH   2  26
TORSDOF 8
ENDMDL
MODEL 3
REMARK VINA RESULT:      -9.7      4.567     10.588
REMARK  8 active torsions:
REMARK  status: ('A' for Active; 'I' for Inactive)
REMARK    1  A    between atoms: C_6  and  N_7 
REMARK       I    between atoms: N_7  and  C_8 
REMARK    2  A    between atoms: C_8  and  C_9 
REMARK    3  A    between atoms: C_9  and  S_10 
REMARK    4  A    between atoms: S_10  and  C_11 
REMARK    5  A    between atoms: N_12  and  C_13 
REMARK    6  A    between atoms: C_13  and  C_14 
REMARK    7  A    between atoms: C_14  and  C_15 
REMARK       I    between atoms: C_15  and  N_16 
REMARK    8  A    between atoms: N_16  and  C_17 
ROOT
HETATM    1  C   UNL     1      24.683  45.280  49.778  1.00  0.00     0.172 A 
HETATM    2  N   UNL     1      23.857  46.308  49.361  1.00  0.00    -0.292 N 
HETATM    3  C   UNL     1      22.848  46.052  48.428  1.00  0.00     0.262 A 
HETATM    4  O   UNL     1      22.005  46.878  48.087  1.00  0.00    -0.267 OA
HETATM    5  C   UNL     1      22.801  44.703  47.849  1.00  0.00     0.061 A 
HETATM    6  C   UNL     1      23.706  43.764  48.331  1.00  0.00     0.075 A 
HETATM    7  C   UNL     1      21.894  44.384  46.832  1.00  0.00     0.019 A 
HETATM    8  C   UNL     1      21.905  43.106  46.277  1.00  0.00     0.001 A 
HETATM    9  C   UNL     1      22.824  42.162  46.732  1.00  0.00     0.002 A 
HETATM   10  C   UNL     1      23.721  42.493  47.753  1.00  0.00     0.032 A 
HETATM   11  N   UNL     1      24.613  44.059  49.356  1.00  0.00    -0.224 NA
ENDROOT
BRANCH   1  12
HETATM   12  S   UNL     1      25.926  45.596  50.963  1.00  0.00    -0.082 SA
BRANCH  12  13
HETATM   13  C   UNL     1      25.558  44.279  52.137  1.00  0.00     0.185 C 
BRANCH  13  14
HETATM   14  C   UNL     1      26.328  44.401  53.439  1.00  0.00     0.231 C 
HETATM   15  N   UNL     1      27.660  44.739  53.274  1.00  0.00    -0.326 N 
HETATM   16  H   UNL     1      27.905  45.216  52.406  1.00  0.00     0.169 HD
HETATM   17  O   UNL     1      25.791  44.102  54.503  1.00  0.00    -0.272 OA
BRANCH  15  18
HETATM   18  C   UNL     1      28.708  44.540  54.198  1.00  0.00     0.036 A 
HETATM   19  C   UNL     1      28.919  45.337  55.323  1.00  0.00     0.053 A 
HETATM   20  C   UNL     1      29.929  45.018  56.241  1.00  0.00     0.042 A 
HETATM   21  C   UNL     1      30.752  43.900  56.048  1.00  0.00    -0.040 A 
HETATM   22 CL   UNL     1      30.104  46.032  57.632  1.00  0.00    -0.084 Cl
HETATM   23  C   UNL     1      31.810  43.507  57.039  1.00  0.00     0.050 C 
HETATM   24  C   UNL     1      30.541  43.109  54.912  1.00  0.00     0.011 A 
HETATM   25  C   UNL     1      29.532  43.428  53.999  1.00  0.00     0.030 A 
ENDBRANCH  15  18
ENDBRANCH  13  14
ENDBRANCH  12  13
ENDBRANCH   1  12
BRANCH   2  26
HETATM   26  C   UNL     1      23.908  47.692  49.863  1.00  0.00     0.144 C 
BRANCH  26  27
HETATM   27  C   UNL     1      24.699  48.613  48.930  1.00  0.00     0.123 C 
BRANCH  27  28
HETATM   28  C   UNL     1      23.827  49.759  48.471  1.00  0.00     0.219 C 
HETATM   29  N   UNL     1      22.607  49.816  49.108  1.00  0.00    -0.356 N 
HETATM   30  H   UNL     1      22.420  49.183  49.875  1.00  0.00     0.162 HD
HETATM   31  O   UNL     1      24.193  50.572  47.627  1.00  0.00    -0.274 OA
BRANCH  29  32
HETATM   32  C   UNL     1      21.611  50.833  48.785  1.00  0.00     0.084 C 
HETATM   33  C   UNL     1      20.808  50.436  47.539  1.00  0.00     0.025 C 
HETATM   34  C   UNL     1      19.795  49.322  47.808  1.00  0.00     0.002 C 
HETATM   35  C   UNL     1      18.886  49.661  48.984  1.00  0.00     0.000 C 
HETATM   36  C   UNL     1      19.691  49.992  50.237  1.00  0.00     0.002 C 
HETATM   37  C   UNL     1      20.691  51.117  49.980  1.00  0.00     0.025 C 
ENDBRANCH  29  32
ENDBRANCH  27  28
ENDBRANCH  26  27
ENDBRANCH   2  26
TORSDOF 8
ENDMDL
MODEL 4
REMARK VINA RESULT:      -9.7      3.647      8.116
REMARK  8 active torsions:
REMARK  status: ('A' for Active; 'I' for Inactive)
REMARK    1  A    between atoms: C_6  and  N_7 
REMARK       I    between atoms: N_7  and  C_8 
REMARK    2  A    between atoms: C_8  and  C_9 
REMARK    3  A    between atoms: C_9  and  S_10 
REMARK    4  A    between atoms: S_10  and  C_11 
REMARK    5  A    between atoms: N_12  and  C_13 
REMARK    6  A    between atoms: C_13  and  C_14 
REMARK    7  A    between atoms: C_14  and  C_15 
REMARK       I    between atoms: C_15  and  N_16 
REMARK    8  A    between atoms: N_16  and  C_17 
ROOT
HETATM    1  C   UNL     1      28.299  44.155  53.866  1.00  0.00     0.172 A 
HETATM    2  N   UNL     1      27.646  45.215  54.469  1.00  0.00    -0.292 N 
HETATM    3  C   UNL     1      28.191  45.808  55.610  1.00  0.00     0.262 A 
HETATM    4  O   UNL     1      27.736  46.818  56.142  1.00  0.00    -0.267 OA
HETATM    5  C   UNL     1      29.391  45.180  56.179  1.00  0.00     0.061 A 
HETATM    6  C   UNL     1      29.938  44.099  55.496  1.00  0.00     0.075 A 
HETATM    7  C   UNL     1      29.947  45.638  57.379  1.00  0.00     0.019 A 
HETATM    8  C   UNL     1      31.061  44.993  57.912  1.00  0.00     0.001 A 
HETATM    9  C   UNL     1      31.604  43.893  57.251  1.00  0.00     0.002 A 
HETATM   10  C   UNL     1      31.041  43.448  56.050  1.00  0.00     0.032 A 
HETATM   11  N   UNL     1      29.404  43.633  54.288  1.00  0.00    -0.224 NA
ENDROOT
BRANCH   1  12
HETATM   12  S   UNL     1      27.629  43.433  52.424  1.00  0.00    -0.082 SA
BRANCH  12  13
HETATM   13  C   UNL     1      28.562  41.891  52.404  1.00  0.00     0.185 C 
BRANCH  13  14
HETATM   14  C   UNL     1      28.013  40.868  51.426  1.00  0.00     0.231 C 
HETATM   15  N   UNL     1      28.927  40.458  50.472  1.00  0.00    -0.326 N 
HETATM   16  H   UNL     1      29.913  40.566  50.709  1.00  0.00     0.169 HD
HETATM   17  O   UNL     1      26.824  40.558  51.461  1.00  0.00    -0.272 OA
BRANCH  15  18
HETATM   18  C   UNL     1      28.643  39.860  49.225  1.00  0.00     0.036 A 
HETATM   19  C   UNL     1      28.149  40.556  48.121  1.00  0.00     0.053 A 
HETATM   20  C   UNL     1      27.979  39.906  46.890  1.00  0.00     0.042 A 
HETATM   21  C   UNL     1      28.292  38.548  46.742  1.00  0.00    -0.040 A 
HETATM   22 CL   UNL     1      27.400  40.844  45.557  1.00  0.00    -0.084 Cl
HETATM   23  C   UNL     1      28.164  37.838  45.424  1.00  0.00     0.050 C 
HETATM   24  C   UNL     1      28.777  37.854  47.857  1.00  0.00     0.011 A 
HETATM   25  C   UNL     1      28.948  38.504  49.083  1.00  0.00     0.030 A 
ENDBRANCH  15  18
ENDBRANCH  13  14
ENDBRANCH  12  13
ENDBRANCH   1  12
BRANCH   2  26
HETATM   26  C   UNL     1      26.405  45.837  53.973  1.00  0.00     0.144 C 
BRANCH  26  27
HETATM   27  C   UNL     1      26.686  47.033  53.060  1.00  0.00     0.123 C 
BRANCH  27  28
HETATM   28  C   UNL     1      25.847  46.938  51.807  1.00  0.00     0.219 C 
HETATM   29  N   UNL     1      25.287  45.695  51.609  1.00  0.00    -0.356 N 
HETATM   30  H   UNL     1      25.383  44.990  52.328  1.00  0.00     0.162 HD
HETATM   31  O   UNL     1      25.667  47.893  51.057  1.00  0.00    -0.274 OA
BRANCH  29  32
HETATM   32  C   UNL     1      24.465  45.393  50.441  1.00  0.00     0.084 C 
HETATM   33  C   UNL     1      25.342  45.112  49.213  1.00  0.00     0.025 C 
HETATM   34  C   UNL     1      26.027  43.747  49.265  1.00  0.00     0.002 C 
HETATM   35  C   UNL     1      25.026  42.624  49.515  1.00  0.00     0.000 C 
HETATM   36  C   UNL     1      24.202  42.879  50.773  1.00  0.00     0.002 C 
HETATM   37  C   UNL     1      23.499  44.234  50.719  1.00  0.00     0.025 C 
ENDBRANCH  29  32
ENDBRANCH  27  28
ENDBRANCH  26  27
ENDBRANCH   2  26
TORSDOF 8
ENDMDL
MODEL 5
REMARK VINA RESULT:      -9.6      3.584     10.275
REMARK  8 active torsions:
REMARK  status: ('A' for Active; 'I' for Inactive)
REMARK    1  A    between atoms: C_6  and  N_7 
REMARK       I    between atoms: N_7  and  C_8 
REMARK    2  A    between atoms: C_8  and  C_9 
REMARK    3  A    between atoms: C_9  and  S_10 
REMARK    4  A    between atoms: S_10  and  C_11 
REMARK    5  A    between atoms: N_12  and  C_13 
REMARK    6  A    between atoms: C_13  and  C_14 
REMARK    7  A    between atoms: C_14  and  C_15 
REMARK       I    between atoms: C_15  and  N_16 
REMARK    8  A    between atoms: N_16  and  C_17 
ROOT
HETATM    1  C   UNL     1      24.350  46.344  49.671  1.00  0.00     0.172 A 
HETATM    2  N   UNL     1      23.425  47.198  49.098  1.00  0.00    -0.292 N 
HETATM    3  C   UNL     1      23.848  48.414  48.552  1.00  0.00     0.262 A 
HETATM    4  O   UNL     1      23.114  49.178  47.929  1.00  0.00    -0.267 OA
HETATM    5  C   UNL     1      25.262  48.769  48.730  1.00  0.00     0.061 A 
HETATM    6  C   UNL     1      26.087  47.837  49.351  1.00  0.00     0.075 A 
HETATM    7  C   UNL     1      25.754  50.010  48.312  1.00  0.00     0.019 A 
HETATM    8  C   UNL     1      27.092  50.330  48.534  1.00  0.00     0.001 A 
HETATM    9  C   UNL     1      27.924  49.416  49.177  1.00  0.00     0.002 A 
HETATM   10  C   UNL     1      27.420  48.177  49.586  1.00  0.00     0.032 A 
HETATM   11  N   UNL     1      25.617  46.584  49.766  1.00  0.00    -0.224 NA
ENDROOT
BRANCH   1  12
HETATM   12  S   UNL     1      23.823  44.815  50.328  1.00  0.00    -0.082 SA
BRANCH  12  13
HETATM   13  C   UNL     1      24.809  43.700  49.312  1.00  0.00     0.185 C 
BRANCH  13  14
HETATM   14  C   UNL     1      26.146  43.342  49.934  1.00  0.00     0.231 C 
HETATM   15  N   UNL     1      26.121  43.269  51.316  1.00  0.00    -0.326 N 
HETATM   16  H   UNL     1      25.212  43.093  51.746  1.00  0.00     0.169 HD
HETATM   17  O   UNL     1      27.149  43.250  49.230  1.00  0.00    -0.272 OA
BRANCH  15  18
HETATM   18  C   UNL     1      27.223  43.363  52.192  1.00  0.00     0.036 A 
HETATM   19  C   UNL     1      27.462  44.452  53.031  1.00  0.00     0.053 A 
HETATM   20  C   UNL     1      28.530  44.428  53.939  1.00  0.00     0.042 A 
HETATM   21  C   UNL     1      29.384  43.319  54.020  1.00  0.00    -0.040 A 
HETATM   22 CL   UNL     1      28.740  45.799  54.973  1.00  0.00    -0.084 Cl
HETATM   23  C   UNL     1      30.507  43.246  55.015  1.00  0.00     0.050 C 
HETATM   24  C   UNL     1      29.143  42.234  53.169  1.00  0.00     0.011 A 
HETATM   25  C   UNL     1      28.076  42.258  52.266  1.00  0.00     0.030 A 
ENDBRANCH  15  18
ENDBRANCH  13  14
ENDBRANCH  12  13
ENDBRANCH   1  12
BRANCH   2  26
HETATM   26  C   UNL     1      21.986  46.916  48.955  1.00  0.00     0.144 C 
BRANCH  26  27
HETATM   27  C   UNL     1      21.599  46.621  47.503  1.00  0.00     0.123 C 
BRANCH  27  28
HETATM   28  C   UNL     1      20.387  47.436  47.114  1.00  0.00     0.219 C 
HETATM   29  N   UNL     1      20.211  48.567  47.880  1.00  0.00    -0.356 N 
HETATM   30  H   UNL     1      20.922  48.823  48.554  1.00  0.00     0.162 HD
HETATM   31  O   UNL     1      19.652  47.124  46.183  1.00  0.00    -0.274 OA
BRANCH  29  32
HETATM   32  C   UNL     1      19.084  49.471  47.679  1.00  0.00     0.084 C 
HETATM   33  C   UNL     1      18.146  49.456  48.894  1.00  0.00     0.025 C 
HETATM   34  C   UNL     1      18.717  50.202  50.101  1.00  0.00     0.002 C 
HETATM   35  C   UNL     1      19.146  51.618  49.735  1.00  0.00     0.000 C 
HETATM   36  C   UNL     1      20.128  51.621  48.567  1.00  0.00     0.002 C 
HETATM   37  C   UNL     1      19.556  50.894  47.352  1.00  0.00     0.025 C 
ENDBRANCH  29  32
ENDBRANCH  27  28
ENDBRANCH  26  27
ENDBRANCH   2  26
TORSDOF 8
ENDMDL
MODEL 6
REMARK VINA RESULT:      -9.5      3.761      9.793
REMARK  8 active torsions:
REMARK  status: ('A' for Active; 'I' for Inactive)
REMARK    1  A    between atoms: C_6  and  N_7 
REMARK       I    between atoms: N_7  and  C_8 
REMARK    2  A    between atoms: C_8  and  C_9 
REMARK    3  A    between atoms: C_9  and  S_10 
REMARK    4  A    between atoms: S_10  and  C_11 
REMARK    5  A    between atoms: N_12  and  C_13 
REMARK    6  A    between atoms: C_13  and  C_14 
REMARK    7  A    between atoms: C_14  and  C_15 
REMARK       I    between atoms: C_15  and  N_16 
REMARK    8  A    between atoms: N_16  and  C_17 
ROOT
HETATM    1  C   UNL     1      25.653  45.217  50.977  1.00  0.00     0.172 A 
HETATM    2  N   UNL     1      25.022  44.947  49.777  1.00  0.00    -0.292 N 
HETATM    3  C   UNL     1      24.983  43.637  49.292  1.00  0.00     0.262 A 
HETATM    4  O   UNL     1      24.352  43.293  48.295  1.00  0.00    -0.267 OA
HETATM    5  C   UNL     1      25.732  42.624  50.048  1.00  0.00     0.061 A 
HETATM    6  C   UNL     1      26.351  43.027  51.226  1.00  0.00     0.075 A 
HETATM    7  C   UNL     1      25.838  41.308  49.583  1.00  0.00     0.019 A 
HETATM    8  C   UNL     1      26.592  40.383  50.304  1.00  0.00     0.001 A 
HETATM    9  C   UNL     1      27.238  40.779  51.473  1.00  0.00     0.002 A 
HETATM   10  C   UNL     1      27.120  42.097  51.928  1.00  0.00     0.032 A 
HETATM   11  N   UNL     1      26.247  44.335  51.714  1.00  0.00    -0.224 NA
ENDROOT
BRANCH   1  12
HETATM   12  S   UNL     1      25.678  46.851  51.593  1.00  0.00    -0.082 SA
BRANCH  12  13
HETATM   13  C   UNL     1      25.712  46.501  53.361  1.00  0.00     0.185 C 
BRANCH  13  14
HETATM   14  C   UNL     1      27.107  46.555  53.958  1.00  0.00     0.231 C 
HETATM   15  N   UNL     1      27.754  45.332  53.981  1.00  0.00    -0.326 N 
HETATM   16  H   UNL     1      27.436  44.635  53.308  1.00  0.00     0.169 HD
HETATM   17  O   UNL     1      27.522  47.595  54.463  1.00  0.00    -0.272 OA
BRANCH  15  18
HETATM   18  C   UNL     1      28.841  44.961  54.802  1.00  0.00     0.036 A 
HETATM   19  C   UNL     1      29.188  45.620  55.982  1.00  0.00     0.053 A 
HETATM   20  C   UNL     1      30.226  45.134  56.788  1.00  0.00     0.042 A 
HETATM   21  C   UNL     1      30.943  43.985  56.426  1.00  0.00    -0.040 A 
HETATM   22 CL   UNL     1      30.573  45.982  58.256  1.00  0.00    -0.084 Cl
HETATM   23  C   UNL     1      32.029  43.414  57.294  1.00  0.00     0.050 C 
HETATM   24  C   UNL     1      30.596  43.334  55.236  1.00  0.00     0.011 A 
HETATM   25  C   UNL     1      29.558  43.820  54.435  1.00  0.00     0.030 A 
ENDBRANCH  15  18
ENDBRANCH  13  14
ENDBRANCH  12  13
ENDBRANCH   1  12
BRANCH   2  26
HETATM   26  C   UNL     1      24.314  45.941  48.950  1.00  0.00     0.144 C 
BRANCH  26  27
HETATM   27  C   UNL     1      22.853  46.107  49.377  1.00  0.00     0.123 C 
BRANCH  27  28
HETATM   28  C   UNL     1      22.126  47.005  48.402  1.00  0.00     0.219 C 
HETATM   29  N   UNL     1      21.441  48.037  49.005  1.00  0.00    -0.356 N 
HETATM   30  H   UNL     1      21.544  48.183  50.001  1.00  0.00     0.162 HD
HETATM   31  O   UNL     1      22.172  46.836  47.188  1.00  0.00    -0.274 OA
BRANCH  29  32
HETATM   32  C   UNL     1      20.655  48.997  48.238  1.00  0.00     0.084 C 
HETATM   33  C   UNL     1      19.218  49.078  48.771  1.00  0.00     0.025 C 
HETATM   34  C   UNL     1      19.113  49.831  50.098  1.00  0.00     0.002 C 
HETATM   35  C   UNL     1      19.765  51.207  50.017  1.00  0.00     0.000 C 
HETATM   36  C   UNL     1      21.213  51.113  49.547  1.00  0.00     0.002 C 
HETATM   37  C   UNL     1      21.323  50.378  48.212  1.00  0.00     0.025 C 
ENDBRANCH  29  32
ENDBRANCH  27  28
ENDBRANCH  26  27
ENDBRANCH   2  26
TORSDOF 8
ENDMDL
MODEL 7
REMARK VINA RESULT:      -9.4      3.431      7.929
REMARK  8 active torsions:
REMARK  status: ('A' for Active; 'I' for Inactive)
REMARK    1  A    between atoms: C_6  and  N_7 
REMARK       I    between atoms: N_7  and  C_8 
REMARK    2  A    between atoms: C_8  and  C_9 
REMARK    3  A    between atoms: C_9  and  S_10 
REMARK    4  A    between atoms: S_10  and  C_11 
REMARK    5  A    between atoms: N_12  and  C_13 
REMARK    6  A    between atoms: C_13  and  C_14 
REMARK    7  A    between atoms: C_14  and  C_15 
REMARK       I    between atoms: C_15  and  N_16 
REMARK    8  A    between atoms: N_16  and  C_17 
ROOT
HETATM    1  C   UNL     1      24.753  45.004  50.292  1.00  0.00     0.172 A 
HETATM    2  N   UNL     1      23.880  43.996  49.927  1.00  0.00    -0.292 N 
HETATM    3  C   UNL     1      22.799  44.282  49.089  1.00  0.00     0.262 A 
HETATM    4  O   UNL     1      22.043  43.430  48.630  1.00  0.00    -0.267 OA
HETATM    5  C   UNL     1      22.586  45.692  48.734  1.00  0.00     0.061 A 
HETATM    6  C   UNL     1      23.518  46.618  49.188  1.00  0.00     0.075 A 
HETATM    7  C   UNL     1      21.471  46.088  47.987  1.00  0.00     0.019 A 
HETATM    8  C   UNL     1      21.278  47.439  47.704  1.00  0.00     0.001 A 
HETATM    9  C   UNL     1      22.190  48.381  48.174  1.00  0.00     0.002 A 
HETATM   10  C   UNL     1      23.303  47.970  48.915  1.00  0.00     0.032 A 
HETATM   11  N   UNL     1      24.647  46.241  49.926  1.00  0.00    -0.224 NA
ENDROOT
BRANCH   1  12
HETATM   12  S   UNL     1      26.118  44.639  51.318  1.00  0.00    -0.082 SA
BRANCH  12  13
HETATM   13  C   UNL     1      25.493  45.279  52.882  1.00  0.00     0.185 C 
BRANCH  13  14
HETATM   14  C   UNL     1      26.321  44.853  54.081  1.00  0.00     0.231 C 
HETATM   15  N   UNL     1      27.526  45.523  54.197  1.00  0.00    -0.326 N 
HETATM   16  H   UNL     1      27.586  46.434  53.741  1.00  0.00     0.169 HD
HETATM   17  O   UNL     1      25.953  43.914  54.782  1.00  0.00    -0.272 OA
BRANCH  15  18
HETATM   18  C   UNL     1      28.665  45.106  54.918  1.00  0.00     0.036 A 
HETATM   19  C   UNL     1      29.129  45.734  56.074  1.00  0.00     0.053 A 
HETATM   20  C   UNL     1      30.215  45.203  56.784  1.00  0.00     0.042 A 
HETATM   21  C   UNL     1      30.862  44.038  56.348  1.00  0.00    -0.040 A 
HETATM   22 CL   UNL     1      30.709  46.016  58.229  1.00  0.00    -0.084 Cl
HETATM   23  C   UNL     1      31.997  43.420  57.114  1.00  0.00     0.050 C 
HETATM   24  C   UNL     1      30.396  43.418  55.182  1.00  0.00     0.011 A 
HETATM   25  C   UNL     1      29.312  43.948  54.477  1.00  0.00     0.030 A 
ENDBRANCH  15  18
ENDBRANCH  13  14
ENDBRANCH  12  13
ENDBRANCH   1  12
BRANCH   2  26
HETATM   26  C   UNL     1      24.015  42.579  50.312  1.00  0.00     0.144 C 
BRANCH  26  27
HETATM   27  C   UNL     1      24.803  41.774  49.275  1.00  0.00     0.123 C 
BRANCH  27  28
HETATM   28  C   UNL     1      25.769  40.842  49.968  1.00  0.00     0.219 C 
HETATM   29  N   UNL     1      26.056  39.704  49.245  1.00  0.00    -0.356 N 
HETATM   30  H   UNL     1      25.701  39.616  48.302  1.00  0.00     0.162 HD
HETATM   31  O   UNL     1      26.266  41.097  51.061  1.00  0.00    -0.274 OA
BRANCH  29  32
HETATM   32  C   UNL     1      26.946  38.667  49.755  1.00  0.00     0.084 C 
HETATM   33  C   UNL     1      26.550  37.288  49.208  1.00  0.00     0.025 C 
HETATM   34  C   UNL     1      26.927  37.095  47.739  1.00  0.00     0.002 C 
HETATM   35  C   UNL     1      28.400  37.400  47.492  1.00  0.00     0.000 C 
HETATM   36  C   UNL     1      28.773  38.796  47.981  1.00  0.00     0.002 C 
HETATM   37  C   UNL     1      28.416  38.990  49.453  1.00  0.00     0.025 C 
ENDBRANCH  29  32
ENDBRANCH  27  28
ENDBRANCH  26  27
ENDBRANCH   2  26
TORSDOF 8
ENDMDL
MODEL 8
REMARK VINA RESULT:      -9.3      3.423      7.083
REMARK  8 active torsions:
REMARK  status: ('A' for Active; 'I' for Inactive)
REMARK    1  A    between atoms: C_6  and  N_7 
REMARK       I    between atoms: N_7  and  C_8 
REMARK    2  A    between atoms: C_8  and  C_9 
REMARK    3  A    between atoms: C_9  and  S_10 
REMARK    4  A    between atoms: S_10  and  C_11 
REMARK    5  A    between atoms: N_12  and  C_13 
REMARK    6  A    between atoms: C_13  and  C_14 
REMARK    7  A    between atoms: C_14  and  C_15 
REMARK       I    between atoms: C_15  and  N_16 
REMARK    8  A    between atoms: N_16  and  C_17 
ROOT
HETATM    1  C   UNL     1      26.846  44.075  51.227  1.00  0.00     0.172 A 
HETATM    2  N   UNL     1      26.212  44.939  52.101  1.00  0.00    -0.292 N 
HETATM    3  C   UNL     1      26.809  45.252  53.325  1.00  0.00     0.262 A 
HETATM    4  O   UNL     1      26.370  46.090  54.108  1.00  0.00    -0.267 OA
HETATM    5  C   UNL     1      28.047  44.537  53.665  1.00  0.00     0.061 A 
HETATM    6  C   UNL     1      28.571  43.669  52.713  1.00  0.00     0.075 A 
HETATM    7  C   UNL     1      28.661  44.706  54.911  1.00  0.00     0.019 A 
HETATM    8  C   UNL     1      29.810  43.980  55.216  1.00  0.00     0.001 A 
HETATM    9  C   UNL     1      30.333  43.089  54.281  1.00  0.00     0.002 A 
HETATM   10  C   UNL     1      29.712  42.933  53.037  1.00  0.00     0.032 A 
HETATM   11  N   UNL     1      27.980  43.495  51.455  1.00  0.00    -0.224 NA
ENDROOT
BRANCH   1  12
HETATM   12  S   UNL     1      26.109  43.706  49.688  1.00  0.00    -0.082 SA
BRANCH  12  13
HETATM   13  C   UNL     1      24.565  42.978  50.265  1.00  0.00     0.185 C 
BRANCH  13  14
HETATM   14  C   UNL     1      23.459  43.009  49.226  1.00  0.00     0.231 C 
HETATM   15  N   UNL     1      23.403  44.186  48.501  1.00  0.00    -0.326 N 
HETATM   16  H   UNL     1      24.263  44.733  48.453  1.00  0.00     0.169 HD
HETATM   17  O   UNL     1      22.649  42.087  49.161  1.00  0.00    -0.272 OA
BRANCH  15  18
HETATM   18  C   UNL     1      22.299  44.688  47.781  1.00  0.00     0.036 A 
HETATM   19  C   UNL     1      21.061  44.983  48.354  1.00  0.00     0.053 A 
HETATM   20  C   UNL     1      20.043  45.565  47.587  1.00  0.00     0.042 A 
HETATM   21  C   UNL     1      20.239  45.856  46.229  1.00  0.00    -0.040 A 
HETATM   22 CL   UNL     1      18.550  45.938  48.377  1.00  0.00    -0.084 Cl
HETATM   23  C   UNL     1      19.183  46.522  45.394  1.00  0.00     0.050 C 
HETATM   24  C   UNL     1      21.479  45.548  45.658  1.00  0.00     0.011 A 
HETATM   25  C   UNL     1      22.495  44.970  46.426  1.00  0.00     0.030 A 
ENDBRANCH  15  18
ENDBRANCH  13  14
ENDBRANCH  12  13
ENDBRANCH   1  12
BRANCH   2  26
HETATM   26  C   UNL     1      24.937  45.629  51.833  1.00  0.00     0.144 C 
BRANCH  26  27
HETATM   27  C   UNL     1      25.152  47.067  51.352  1.00  0.00     0.123 C 
BRANCH  27  28
HETATM   28  C   UNL     1      24.572  47.242  49.968  1.00  0.00     0.219 C 
HETATM   29  N   UNL     1      23.503  48.111  49.922  1.00  0.00    -0.356 N 
HETATM   30  H   UNL     1      23.250  48.628  50.754  1.00  0.00     0.162 HD
HETATM   31  O   UNL     1      25.035  46.680  48.981  1.00  0.00    -0.274 OA
BRANCH  29  32
HETATM   32  C   UNL     1      22.787  48.393  48.682  1.00  0.00     0.084 C 
HETATM   33  C   UNL     1      21.295  48.625  48.952  1.00  0.00     0.025 C 
HETATM   34  C   UNL     1      21.006  49.981  49.598  1.00  0.00     0.002 C 
HETATM   35  C   UNL     1      21.622  51.125  48.801  1.00  0.00     0.000 C 
HETATM   36  C   UNL     1      23.119  50.919  48.591  1.00  0.00     0.002 C 
HETATM   37  C   UNL     1      23.413  49.575  47.929  1.00  0.00     0.025 C 
ENDBRANCH  29  32
ENDBRANCH  27  28
ENDBRANCH  26  27
ENDBRANCH   2  26
TORSDOF 8
ENDMDL
MODEL 9
REMARK VINA RESULT:      -9.2      3.216      9.279
REMARK  8 active torsions:
REMARK  status: ('A' for Active; 'I' for Inactive)
REMARK    1  A    between atoms: C_6  and  N_7 
REMARK       I    between atoms: N_7  and  C_8 
REMARK    2  A    between atoms: C_8  and  C_9 
REMARK    3  A    between atoms: C_9  and  S_10 
REMARK    4  A    between atoms: S_10  and  C_11 
REMARK    5  A    between atoms: N_12  and  C_13 
REMARK    6  A    between atoms: C_13  and  C_14 
REMARK    7  A    between atoms: C_14  and  C_15 
REMARK       I    between atoms: C_15  and  N_16 
REMARK    8  A    between atoms: N_16  and  C_17 
ROOT
HETATM    1  C   UNL     1      27.347  44.436  52.586  1.00  0.00     0.172 A 
HETATM    2  N   UNL     1      26.493  45.438  53.010  1.00  0.00    -0.292 N 
HETATM    3  C   UNL     1      26.804  46.178  54.153  1.00  0.00     0.262 A 
HETATM    4  O   UNL     1      26.161  47.153  54.535  1.00  0.00    -0.267 OA
HETATM    5  C   UNL     1      27.987  45.759  54.917  1.00  0.00     0.061 A 
HETATM    6  C   UNL     1      28.749  44.716  54.403  1.00  0.00     0.075 A 
HETATM    7  C   UNL     1      28.318  46.372  56.131  1.00  0.00     0.019 A 
HETATM    8  C   UNL     1      29.423  45.922  56.851  1.00  0.00     0.001 A 
HETATM    9  C   UNL     1      30.182  44.861  56.360  1.00  0.00     0.002 A 
HETATM   10  C   UNL     1      29.842  44.260  55.143  1.00  0.00     0.032 A 
HETATM   11  N   UNL     1      28.443  44.098  53.184  1.00  0.00    -0.224 NA
ENDROOT
BRANCH   1  12
HETATM   12  S   UNL     1      26.968  43.530  51.143  1.00  0.00    -0.082 SA
BRANCH  12  13
HETATM   13  C   UNL     1      27.465  41.885  51.686  1.00  0.00     0.185 C 
BRANCH  13  14
HETATM   14  C   UNL     1      27.295  40.821  50.617  1.00  0.00     0.231 C 
HETATM   15  N   UNL     1      28.327  40.781  49.696  1.00  0.00    -0.326 N 
HETATM   16  H   UNL     1      29.223  41.164  49.998  1.00  0.00     0.169 HD
HETATM   17  O   UNL     1      26.259  40.163  50.562  1.00  0.00    -0.272 OA
BRANCH  15  18
HETATM   18  C   UNL     1      28.288  40.221  48.401  1.00  0.00     0.036 A 
HETATM   19  C   UNL     1      28.452  38.862  48.133  1.00  0.00     0.053 A 
HETATM   20  C   UNL     1      28.309  38.373  46.827  1.00  0.00     0.042 A 
HETATM   21  C   UNL     1      28.009  39.235  45.763  1.00  0.00    -0.040 A 
HETATM   22 CL   UNL     1      28.488  36.670  46.579  1.00  0.00    -0.084 Cl
HETATM   23  C   UNL     1      27.803  38.733  44.362  1.00  0.00     0.050 C 
HETATM   24  C   UNL     1      27.855  40.599  46.037  1.00  0.00     0.011 A 
HETATM   25  C   UNL     1      27.995  41.084  47.341  1.00  0.00     0.030 A 
ENDBRANCH  15  18
ENDBRANCH  13  14
ENDBRANCH  12  13
ENDBRANCH   1  12
BRANCH   2  26
HETATM   26  C   UNL     1      25.261  45.851  52.314  1.00  0.00     0.144 C 
BRANCH  26  27
HETATM   27  C   UNL     1      25.454  47.148  51.524  1.00  0.00     0.123 C 
BRANCH  27  28
HETATM   28  C   UNL     1      24.693  47.079  50.220  1.00  0.00     0.219 C 
HETATM   29  N   UNL     1      24.107  48.272  49.858  1.00  0.00    -0.356 N 
HETATM   30  H   UNL     1      24.297  49.103  50.405  1.00  0.00     0.162 HD
HETATM   31  O   UNL     1      24.632  46.058  49.543  1.00  0.00    -0.274 OA
BRANCH  29  32
HETATM   32  C   UNL     1      23.305  48.405  48.646  1.00  0.00     0.084 C 
HETATM   33  C   UNL     1      21.808  48.428  48.980  1.00  0.00     0.025 C 
HETATM   34  C   UNL     1      21.352  49.749  49.601  1.00  0.00     0.002 C 
HETATM   35  C   UNL     1      21.759  50.942  48.744  1.00  0.00     0.000 C 
HETATM   36  C   UNL     1      23.260  50.948  48.469  1.00  0.00     0.002 C 
HETATM   37  C   UNL     1      23.718  49.638  47.831  1.00  0.00     0.025 C 
ENDBRANCH  29  32
ENDBRANCH  27  28
ENDBRANCH  26  27
ENDBRANCH   2  26
TORSDOF 8
ENDMDL
MODEL 10
REMARK VINA RESULT:      -9.1      2.447      3.333
REMARK  8 active torsions:
REMARK  status: ('A' for Active; 'I' for Inactive)
REMARK    1  A    between atoms: C_6  and  N_7 
REMARK       I    between atoms: N_7  and  C_8 
REMARK    2  A    between atoms: C_8  and  C_9 
REMARK    3  A    between atoms: C_9  and  S_10 
REMARK    4  A    between atoms: S_10  and  C_11 
REMARK    5  A    between atoms: N_12  and  C_13 
REMARK    6  A    between atoms: C_13  and  C_14 
REMARK    7  A    between atoms: C_14  and  C_15 
REMARK       I    between atoms: C_15  and  N_16 
REMARK    8  A    between atoms: N_16  and  C_17 
ROOT
HETATM    1  C   UNL     1      26.144  46.876  50.973  1.00  0.00     0.172 A 
HETATM    2  N   UNL     1      26.341  45.519  50.792  1.00  0.00    -0.292 N 
HETATM    3  C   UNL     1      26.678  44.715  51.884  1.00  0.00     0.262 A 
HETATM    4  O   UNL     1      26.763  43.490  51.833  1.00  0.00    -0.267 OA
HETATM    5  C   UNL     1      26.923  45.395  53.163  1.00  0.00     0.061 A 
HETATM    6  C   UNL     1      26.720  46.770  53.210  1.00  0.00     0.075 A 
HETATM    7  C   UNL     1      27.367  44.686  54.285  1.00  0.00     0.019 A 
HETATM    8  C   UNL     1      27.629  45.370  55.471  1.00  0.00     0.001 A 
HETATM    9  C   UNL     1      27.455  46.751  55.525  1.00  0.00     0.002 A 
HETATM   10  C   UNL     1      27.005  47.446  54.398  1.00  0.00     0.032 A 
HETATM   11  N   UNL     1      26.264  47.495  52.102  1.00  0.00    -0.224 NA
ENDROOT
BRANCH   1  12
HETATM   12  S   UNL     1      25.697  47.874  49.612  1.00  0.00    -0.082 SA
BRANCH  12  13
HETATM   13  C   UNL     1      23.911  47.918  49.850  1.00  0.00     0.185 C 
BRANCH  13  14
HETATM   14  C   UNL     1      23.211  48.936  48.969  1.00  0.00     0.231 C 
HETATM   15  N   UNL     1      22.016  49.401  49.490  1.00  0.00    -0.326 N 
HETATM   16  H   UNL     1      21.901  49.329  50.502  1.00  0.00     0.169 HD
HETATM   17  O   UNL     1      23.656  49.197  47.854  1.00  0.00    -0.272 OA
BRANCH  15  18
HETATM   18  C   UNL     1      20.959  50.010  48.781  1.00  0.00     0.036 A 
HETATM   19  C   UNL     1      20.167  49.349  47.841  1.00  0.00     0.053 A 
HETATM   20  C   UNL     1      19.078  50.000  47.246  1.00  0.00     0.042 A 
HETATM   21  C   UNL     1      18.765  51.327  47.572  1.00  0.00    -0.040 A 
HETATM   22 CL   UNL     1      18.120  49.103  46.119  1.00  0.00    -0.084 Cl
HETATM   23  C   UNL     1      17.576  52.034  46.986  1.00  0.00     0.050 C 
HETATM   24  C   UNL     1      19.569  51.988  48.508  1.00  0.00     0.011 A 
HETATM   25  C   UNL     1      20.653  51.335  49.103  1.00  0.00     0.030 A 
ENDBRANCH  15  18
ENDBRANCH  13  14
ENDBRANCH  12  13
ENDBRANCH   1  12
BRANCH   2  26
HETATM   26  C   UNL     1      26.172  44.802  49.516  1.00  0.00     0.144 C 
BRANCH  26  27
HETATM   27  C   UNL     1      24.711  44.425  49.257  1.00  0.00     0.123 C 
BRANCH  27  28
HETATM   28  C   UNL     1      24.550  42.922  49.281  1.00  0.00     0.219 C 
HETATM   29  N   UNL     1      25.718  42.237  49.026  1.00  0.00    -0.356 N 
HETATM   30  H   UNL     1      26.585  42.752  48.944  1.00  0.00     0.162 HD
HETATM   31  O   UNL     1      23.481  42.376  49.531  1.00  0.00    -0.274 OA
BRANCH  29  32
HETATM   32  C   UNL     1      25.765  40.779  48.977  1.00  0.00     0.084 C 
HETATM   33  C   UNL     1      26.555  40.298  47.753  1.00  0.00     0.025 C 
HETATM   34  C   UNL     1      28.065  40.488  47.901  1.00  0.00     0.002 C 
HETATM   35  C   UNL     1      28.586  39.865  49.191  1.00  0.00     0.000 C 
HETATM   36  C   UNL     1      27.839  40.396  50.410  1.00  0.00     0.002 C 
HETATM   37  C   UNL     1      26.331  40.192  50.277  1.00  0.00     0.025 C 
ENDBRANCH  29  32
ENDBRANCH  27  28
ENDBRANCH  26  27
ENDBRANCH   2  26
TORSDOF 8
ENDMDL
