MODEL 1
REMARK VINA RESULT:      -9.8      0.000      0.000
REMARK  7 active torsions:
REMARK  status: ('A' for Active; 'I' for Inactive)
REMARK    1  A    between atoms: O_2  and  C_3 
REMARK    2  A    between atoms: C_5  and  C_6 
REMARK    3  A    between atoms: C_6  and  O_7 
REMARK    4  A    between atoms: C_6  and  C_8 
REMARK    5  A    between atoms: C_8  and  N_9 
REMARK       I    between atoms: N_9  and  C_10 
REMARK    6  A    between atoms: C_10  and  C_11 
REMARK    7  A    between atoms: C_12  and  C_13 
ROOT
HETATM    1  C   UNL     1      27.338  43.580  53.623  1.00  0.00     0.089 C 
HETATM    2  C   UNL     1      28.163  42.283  53.749  1.00  0.00     0.068 C 
HETATM    3  C   UNL     1      29.656  42.496  54.058  1.00  0.00     0.013 C 
HETATM    4  C   UNL     1      29.878  43.487  55.193  1.00  0.00     0.001 C 
HETATM    5  C   UNL     1      29.181  44.810  54.911  1.00  0.00     0.001 C 
HETATM    6  C   UNL     1      27.684  44.611  54.709  1.00  0.00     0.015 C 
ENDROOT
BRANCH   1   7
HETATM    7  C   UNL     1      27.278  44.268  52.252  1.00  0.00     0.222 C 
HETATM    8  N   UNL     1      26.099  44.881  51.914  1.00  0.00    -0.358 N 
HETATM    9  H   UNL     1      25.640  45.354  52.686  1.00  0.00     0.162 HD
HETATM   10  O   UNL     1      28.223  44.163  51.470  1.00  0.00    -0.273 OA
BRANCH   8  11
HETATM   11  C   UNL     1      25.925  45.565  50.640  1.00  0.00     0.159 C 
BRANCH  11  12
HETATM   12  C   UNL     1      24.973  46.781  50.615  1.00  0.00     0.169 C 
BRANCH  12  13
HETATM   13  C   UNL     1      25.445  47.932  49.749  1.00  0.00    -0.025 A 
HETATM   14  C   UNL     1      24.536  48.722  49.022  1.00  0.00     0.046 A 
HETATM   15  C   UNL     1      24.985  49.795  48.247  1.00  0.00     0.068 A 
HETATM   16  C   UNL     1      26.353  50.069  48.186  1.00  0.00     0.037 A 
HETATM   17  C   UNL     1      27.267  49.291  48.894  1.00  0.00     0.003 A 
HETATM   18  C   UNL     1      26.814  48.229  49.673  1.00  0.00     0.010 A 
BRANCH  15  19
HETATM   19  O   UNL     1      24.202  50.641  47.512  1.00  0.00    -0.356 OA
HETATM   20  C   UNL     1      22.794  50.500  47.656  1.00  0.00     0.210 C 
ENDBRANCH  15  19
ENDBRANCH  12  13
BRANCH  12  21
HETATM   21  O   UNL     1      23.690  46.348  50.135  1.00  0.00    -0.389 OA
HETATM   22  H   UNL     1      23.853  45.923  49.274  1.00  0.00     0.210 HD
ENDBRANCH  12  21
ENDBRANCH  11  12
ENDBRANCH   8  11
ENDBRANCH   1   7
BRANCH   2  23
HETATM   23  C   UNL     1      27.984  41.393  52.555  1.00  0.00     0.110 A 
HETATM   24  N   UNL     1      28.915  40.651  51.990  1.00  0.00    -0.233 NA
HETATM   25  C   UNL     1      28.311  40.060  50.906  1.00  0.00     0.087 A 
HETATM   26  C   UNL     1      26.979  40.449  50.810  1.00  0.00     0.062 A 
HETATM   27  C   UNL     1      28.844  39.182  49.955  1.00  0.00     0.057 A 
HETATM   28  N   UNL     1      26.796  41.297  51.872  1.00  0.00    -0.342 N 
HETATM   29  C   UNL     1      26.121  40.010  49.801  1.00  0.00     0.034 A 
HETATM   30  H   UNL     1      25.939  41.782  52.100  1.00  0.00     0.167 HD
HETATM   31  C   UNL     1      26.666  39.133  48.857  1.00  0.00     0.026 A 
HETATM   32  C   UNL     1      28.001  38.729  48.934  1.00  0.00     0.036 A 
HETATM   33 CL   UNL     1      28.625  37.648  47.746  1.00  0.00    -0.084 Cl
ENDBRANCH   2  23
TORSDOF 7
ENDMDL
MODEL 2
REMARK VINA RESULT:      -9.5      3.545      7.455
REMARK  7 active torsions:
REMARK  status: ('A' for Active; 'I' for Inactive)
REMARK    1  A    between atoms: O_2  and  C_3 
REMARK    2  A    between atoms: C_5  and  C_6 
REMARK    3  A    between atoms: C_6  and  O_7 
REMARK    4  A    between atoms: C_6  and  C_8 
REMARK    5  A    between atoms: C_8  and  N_9 
REMARK       I    between atoms: N_9  and  C_10 
REMARK    6  A    between atoms: C_10  and  C_11 
REMARK    7  A    between atoms: C_12  and  C_13 
ROOT
HETATM    1  C   UNL     1      26.577  39.675  49.944  1.00  0.00     0.089 C 
HETATM    2  C   UNL     1      26.191  40.509  48.705  1.00  0.00     0.068 C 
HETATM    3  C   UNL     1      27.148  40.366  47.508  1.00  0.00     0.013 C 
HETATM    4  C   UNL     1      27.479  38.912  47.200  1.00  0.00     0.001 C 
HETATM    5  C   UNL     1      28.028  38.202  48.429  1.00  0.00     0.001 C 
HETATM    6  C   UNL     1      27.033  38.252  49.583  1.00  0.00     0.015 C 
ENDROOT
BRANCH   1   7
HETATM    7  C   UNL     1      27.551  40.293  50.956  1.00  0.00     0.222 C 
HETATM    8  N   UNL     1      27.008  40.839  52.090  1.00  0.00    -0.358 N 
HETATM    9  H   UNL     1      26.223  40.317  52.467  1.00  0.00     0.162 HD
HETATM   10  O   UNL     1      28.749  40.376  50.683  1.00  0.00    -0.273 OA
BRANCH   8  11
HETATM   11  C   UNL     1      27.834  41.453  53.120  1.00  0.00     0.159 C 
BRANCH  11  12
HETATM   12  C   UNL     1      28.078  42.975  53.016  1.00  0.00     0.169 C 
BRANCH  12  13
HETATM   13  C   UNL     1      28.933  43.553  54.127  1.00  0.00    -0.025 A 
HETATM   14  C   UNL     1      28.520  44.685  54.854  1.00  0.00     0.046 A 
HETATM   15  C   UNL     1      29.308  45.191  55.892  1.00  0.00     0.068 A 
HETATM   16  C   UNL     1      30.523  44.572  56.193  1.00  0.00     0.037 A 
HETATM   17  C   UNL     1      30.949  43.455  55.476  1.00  0.00     0.003 A 
HETATM   18  C   UNL     1      30.156  42.947  54.449  1.00  0.00     0.010 A 
BRANCH  15  19
HETATM   19  O   UNL     1      29.010  46.270  56.677  1.00  0.00    -0.356 OA
HETATM   20  C   UNL     1      29.256  46.135  58.072  1.00  0.00     0.210 C 
ENDBRANCH  15  19
ENDBRANCH  12  13
BRANCH  12  21
HETATM   21  O   UNL     1      28.717  43.251  51.760  1.00  0.00    -0.389 OA
HETATM   22  H   UNL     1      28.300  42.659  51.109  1.00  0.00     0.210 HD
ENDBRANCH  12  21
ENDBRANCH  11  12
ENDBRANCH   8  11
ENDBRANCH   1   7
BRANCH   2  23
HETATM   23  C   UNL     1      25.977  41.952  49.053  1.00  0.00     0.110 A 
HETATM   24  N   UNL     1      26.899  42.894  49.069  1.00  0.00    -0.233 NA
HETATM   25  C   UNL     1      26.259  44.031  49.498  1.00  0.00     0.087 A 
HETATM   26  C   UNL     1      24.914  43.778  49.746  1.00  0.00     0.062 A 
HETATM   27  C   UNL     1      26.768  45.320  49.705  1.00  0.00     0.057 A 
HETATM   28  N   UNL     1      24.760  42.447  49.453  1.00  0.00    -0.342 N 
HETATM   29  C   UNL     1      24.019  44.748  50.200  1.00  0.00     0.034 A 
HETATM   30  H   UNL     1      23.903  41.919  49.538  1.00  0.00     0.167 HD
HETATM   31  C   UNL     1      24.541  46.031  50.402  1.00  0.00     0.026 A 
HETATM   32  C   UNL     1      25.889  46.308  50.159  1.00  0.00     0.036 A 
HETATM   33 CL   UNL     1      26.483  47.904  50.425  1.00  0.00    -0.084 Cl
ENDBRANCH   2  23
TORSDOF 7
ENDMDL
MODEL 3
REMARK VINA RESULT:      -9.1      2.918      6.486
REMARK  7 active torsions:
REMARK  status: ('A' for Active; 'I' for Inactive)
REMARK    1  A    between atoms: O_2  and  C_3 
REMARK    2  A    between atoms: C_5  and  C_6 
REMARK    3  A    between atoms: C_6  and  O_7 
REMARK    4  A    between atoms: C_6  and  C_8 
REMARK    5  A    between atoms: C_8  and  N_9 
REMARK       I    between atoms: N_9  and  C_10 
REMARK    6  A    between atoms: C_10  and  C_11 
REMARK    7  A    between atoms: C_12  and  C_13 
ROOT
HETATM    1  C   UNL     1      25.413  44.328  49.047  1.00  0.00     0.089 C 
HETATM    2  C   UNL     1      24.840  42.903  48.905  1.00  0.00     0.068 C 
HETATM    3  C   UNL     1      23.638  42.598  49.817  1.00  0.00     0.013 C 
HETATM    4  C   UNL     1      22.587  43.698  49.779  1.00  0.00     0.001 C 
HETATM    5  C   UNL     1      23.196  45.053  50.110  1.00  0.00     0.001 C 
HETATM    6  C   UNL     1      24.318  45.402  49.139  1.00  0.00     0.015 C 
ENDROOT
BRANCH   1   7
HETATM    7  C   UNL     1      26.476  44.574  50.126  1.00  0.00     0.222 C 
HETATM    8  N   UNL     1      26.084  44.430  51.432  1.00  0.00    -0.358 N 
HETATM    9  H   UNL     1      25.438  43.663  51.589  1.00  0.00     0.162 HD
HETATM   10  O   UNL     1      27.592  44.987  49.807  1.00  0.00    -0.273 OA
BRANCH   8  11
HETATM   11  C   UNL     1      27.005  44.639  52.540  1.00  0.00     0.159 C 
BRANCH  11  12
HETATM   12  C   UNL     1      27.967  43.481  52.887  1.00  0.00     0.169 C 
BRANCH  12  13
HETATM   13  C   UNL     1      28.923  43.777  54.026  1.00  0.00    -0.025 A 
HETATM   14  C   UNL     1      28.730  44.883  54.874  1.00  0.00     0.046 A 
HETATM   15  C   UNL     1      29.607  45.128  55.935  1.00  0.00     0.068 A 
HETATM   16  C   UNL     1      30.692  44.273  56.138  1.00  0.00     0.037 A 
HETATM   17  C   UNL     1      30.900  43.178  55.302  1.00  0.00     0.003 A 
HETATM   18  C   UNL     1      30.018  42.930  54.252  1.00  0.00     0.010 A 
BRANCH  15  19
HETATM   19  O   UNL     1      29.517  46.156  56.832  1.00  0.00    -0.356 OA
HETATM   20  C   UNL     1      30.277  46.031  58.028  1.00  0.00     0.210 C 
ENDBRANCH  15  19
ENDBRANCH  12  13
BRANCH  12  21
HETATM   21  O   UNL     1      27.186  42.327  53.237  1.00  0.00    -0.389 OA
HETATM   22  H   UNL     1      27.513  41.599  52.678  1.00  0.00     0.210 HD
ENDBRANCH  12  21
ENDBRANCH  11  12
ENDBRANCH   8  11
ENDBRANCH   1   7
BRANCH   2  23
HETATM   23  C   UNL     1      25.906  41.859  49.053  1.00  0.00     0.110 A 
HETATM   24  N   UNL     1      26.391  41.397  50.188  1.00  0.00    -0.233 NA
HETATM   25  C   UNL     1      27.377  40.507  49.835  1.00  0.00     0.087 A 
HETATM   26  C   UNL     1      27.493  40.422  48.452  1.00  0.00     0.062 A 
HETATM   27  C   UNL     1      28.219  39.738  50.647  1.00  0.00     0.057 A 
HETATM   28  N   UNL     1      26.544  41.291  47.978  1.00  0.00    -0.342 N 
HETATM   29  C   UNL     1      28.419  39.600  47.807  1.00  0.00     0.034 A 
HETATM   30  H   UNL     1      26.362  41.493  47.004  1.00  0.00     0.167 HD
HETATM   31  C   UNL     1      29.255  38.837  48.630  1.00  0.00     0.026 A 
HETATM   32  C   UNL     1      29.155  38.907  50.022  1.00  0.00     0.036 A 
HETATM   33 CL   UNL     1      30.209  37.948  50.992  1.00  0.00    -0.084 Cl
ENDBRANCH   2  23
TORSDOF 7
ENDMDL
MODEL 4
REMARK VINA RESULT:      -8.9      3.483      7.802
REMARK  7 active torsions:
REMARK  status: ('A' for Active; 'I' for Inactive)
REMARK    1  A    between atoms: O_2  and  C_3 
REMARK    2  A    between atoms: C_5  and  C_6 
REMARK    3  A    between atoms: C_6  and  O_7 
REMARK    4  A    between atoms: C_6  and  C_8 
REMARK    5  A    between atoms: C_8  and  N_9 
REMARK       I    between atoms: N_9  and  C_10 
REMARK    6  A    between atoms: C_10  and  C_11 
REMARK    7  A    between atoms: C_12  and  C_13 
ROOT
HETATM    1  C   UNL     1      25.789  44.289  52.189  1.00  0.00     0.089 C 
HETATM    2  C   UNL     1      26.024  45.518  53.092  1.00  0.00     0.068 C 
HETATM    3  C   UNL     1      26.101  46.862  52.345  1.00  0.00     0.013 C 
HETATM    4  C   UNL     1      24.967  47.033  51.343  1.00  0.00     0.001 C 
HETATM    5  C   UNL     1      24.914  45.866  50.368  1.00  0.00     0.001 C 
HETATM    6  C   UNL     1      24.731  44.544  51.104  1.00  0.00     0.015 C 
ENDROOT
BRANCH   1   7
HETATM    7  C   UNL     1      27.015  43.602  51.571  1.00  0.00     0.222 C 
HETATM    8  N   UNL     1      27.298  42.331  51.998  1.00  0.00    -0.358 N 
HETATM    9  H   UNL     1      26.479  41.753  52.156  1.00  0.00     0.162 HD
HETATM   10  O   UNL     1      27.752  44.230  50.810  1.00  0.00    -0.273 OA
BRANCH   8  11
HETATM   11  C   UNL     1      28.435  41.581  51.483  1.00  0.00     0.159 C 
BRANCH  11  12
HETATM   12  C   UNL     1      28.210  40.087  51.162  1.00  0.00     0.169 C 
BRANCH  12  13
HETATM   13  C   UNL     1      28.115  39.769  49.682  1.00  0.00    -0.025 A 
HETATM   14  C   UNL     1      28.243  40.776  48.707  1.00  0.00     0.046 A 
HETATM   15  C   UNL     1      28.177  40.463  47.347  1.00  0.00     0.068 A 
HETATM   16  C   UNL     1      27.966  39.138  46.959  1.00  0.00     0.037 A 
HETATM   17  C   UNL     1      27.830  38.131  47.912  1.00  0.00     0.003 A 
HETATM   18  C   UNL     1      27.906  38.446  49.268  1.00  0.00     0.010 A 
BRANCH  15  19
HETATM   19  O   UNL     1      28.302  41.346  46.310  1.00  0.00    -0.356 OA
HETATM   20  C   UNL     1      28.089  40.832  45.002  1.00  0.00     0.210 C 
ENDBRANCH  15  19
ENDBRANCH  12  13
BRANCH  12  21
HETATM   21  O   UNL     1      29.295  39.330  51.721  1.00  0.00    -0.389 OA
HETATM   22  H   UNL     1      30.106  39.673  51.305  1.00  0.00     0.210 HD
ENDBRANCH  12  21
ENDBRANCH  11  12
ENDBRANCH   8  11
ENDBRANCH   1   7
BRANCH   2  23
HETATM   23  C   UNL     1      27.215  45.331  53.984  1.00  0.00     0.110 A 
HETATM   24  N   UNL     1      28.103  44.361  53.904  1.00  0.00    -0.233 NA
HETATM   25  C   UNL     1      28.969  44.563  54.952  1.00  0.00     0.087 A 
HETATM   26  C   UNL     1      28.601  45.685  55.687  1.00  0.00     0.062 A 
HETATM   27  C   UNL     1      30.092  43.821  55.340  1.00  0.00     0.057 A 
HETATM   28  N   UNL     1      27.482  46.156  55.049  1.00  0.00    -0.342 N 
HETATM   29  C   UNL     1      29.296  46.128  56.813  1.00  0.00     0.034 A 
HETATM   30  H   UNL     1      26.938  46.960  55.328  1.00  0.00     0.167 HD
HETATM   31  C   UNL     1      30.415  45.378  57.190  1.00  0.00     0.026 A 
HETATM   32  C   UNL     1      30.803  44.247  56.466  1.00  0.00     0.036 A 
HETATM   33 CL   UNL     1      32.189  43.356  56.972  1.00  0.00    -0.084 Cl
ENDBRANCH   2  23
TORSDOF 7
ENDMDL
MODEL 5
REMARK VINA RESULT:      -8.9      4.081      6.607
REMARK  7 active torsions:
REMARK  status: ('A' for Active; 'I' for Inactive)
REMARK    1  A    between atoms: O_2  and  C_3 
REMARK    2  A    between atoms: C_5  and  C_6 
REMARK    3  A    between atoms: C_6  and  O_7 
REMARK    4  A    between atoms: C_6  and  C_8 
REMARK    5  A    between atoms: C_8  and  N_9 
REMARK       I    between atoms: N_9  and  C_10 
REMARK    6  A    between atoms: C_10  and  C_11 
REMARK    7  A    between atoms: C_12  and  C_13 
ROOT
HETATM    1  C   UNL     1      29.239  42.890  52.341  1.00  0.00     0.089 C 
HETATM    2  C   UNL     1      28.261  44.061  52.572  1.00  0.00     0.068 C 
HETATM    3  C   UNL     1      27.850  44.277  54.040  1.00  0.00     0.013 C 
HETATM    4  C   UNL     1      29.044  44.268  54.984  1.00  0.00     0.001 C 
HETATM    5  C   UNL     1      29.860  42.993  54.825  1.00  0.00     0.001 C 
HETATM    6  C   UNL     1      30.357  42.835  53.393  1.00  0.00     0.015 C 
ENDROOT
BRANCH   1   7
HETATM    7  C   UNL     1      28.650  41.489  52.132  1.00  0.00     0.222 C 
HETATM    8  N   UNL     1      28.702  40.974  50.862  1.00  0.00    -0.358 N 
HETATM    9  H   UNL     1      29.556  41.193  50.360  1.00  0.00     0.162 HD
HETATM   10  O   UNL     1      28.067  40.923  53.057  1.00  0.00    -0.273 OA
BRANCH   8  11
HETATM   11  C   UNL     1      28.175  39.654  50.544  1.00  0.00     0.159 C 
BRANCH  11  12
HETATM   12  C   UNL     1      26.698  39.572  50.096  1.00  0.00     0.169 C 
BRANCH  12  13
HETATM   13  C   UNL     1      26.454  39.977  48.655  1.00  0.00    -0.025 A 
HETATM   14  C   UNL     1      27.343  39.603  47.630  1.00  0.00     0.046 A 
HETATM   15  C   UNL     1      27.091  39.963  46.304  1.00  0.00     0.068 A 
HETATM   16  C   UNL     1      25.954  40.715  46.002  1.00  0.00     0.037 A 
HETATM   17  C   UNL     1      25.069  41.099  47.008  1.00  0.00     0.003 A 
HETATM   18  C   UNL     1      25.318  40.730  48.328  1.00  0.00     0.010 A 
BRANCH  15  19
HETATM   19  O   UNL     1      27.867  39.648  45.222  1.00  0.00    -0.356 OA
HETATM   20  C   UNL     1      28.307  40.730  44.412  1.00  0.00     0.210 C 
ENDBRANCH  15  19
ENDBRANCH  12  13
BRANCH  12  21
HETATM   21  O   UNL     1      26.241  38.222  50.273  1.00  0.00    -0.389 OA
HETATM   22  H   UNL     1      26.977  37.741  50.693  1.00  0.00     0.210 HD
ENDBRANCH  12  21
ENDBRANCH  11  12
ENDBRANCH   8  11
ENDBRANCH   1   7
BRANCH   2  23
HETATM   23  C   UNL     1      27.056  43.961  51.686  1.00  0.00     0.110 A 
HETATM   24  N   UNL     1      26.891  44.562  50.525  1.00  0.00    -0.233 NA
HETATM   25  C   UNL     1      25.625  44.227  50.110  1.00  0.00     0.087 A 
HETATM   26  C   UNL     1      25.004  43.398  51.038  1.00  0.00     0.062 A 
HETATM   27  C   UNL     1      24.936  44.599  48.948  1.00  0.00     0.057 A 
HETATM   28  N   UNL     1      25.937  43.243  52.031  1.00  0.00    -0.342 N 
HETATM   29  C   UNL     1      23.708  42.904  50.883  1.00  0.00     0.034 A 
HETATM   30  H   UNL     1      25.813  42.709  52.880  1.00  0.00     0.167 HD
HETATM   31  C   UNL     1      23.031  43.285  49.718  1.00  0.00     0.026 A 
HETATM   32  C   UNL     1      23.636  44.116  48.772  1.00  0.00     0.036 A 
HETATM   33 CL   UNL     1      22.760  44.557  47.355  1.00  0.00    -0.084 Cl
ENDBRANCH   2  23
TORSDOF 7
ENDMDL
MODEL 6
REMARK VINA RESULT:      -8.9     12.034     15.306
REMARK  7 active torsions:
REMARK  status: ('A' for Active; 'I' for Inactive)
REMARK    1  A    between atoms: O_2  and  C_3 
REMARK    2  A    between atoms: C_5  and  C_6 
REMARK    3  A    between atoms: C_6  and  O_7 
REMARK    4  A    between atoms: C_6  and  C_8 
REMARK    5  A    between atoms: C_8  and  N_9 
REMARK       I    between atoms: N_9  and  C_10 
REMARK    6  A    between atoms: C_10  and  C_11 
REMARK    7  A    between atoms: C_12  and  C_13 
ROOT
HETATM    1  C   UNL     1      33.417  50.580  41.896  1.00  0.00     0.089 C 
HETATM    2  C   UNL     1      34.737  51.080  42.521  1.00  0.00     0.068 C 
HETATM    3  C   UNL     1      34.572  52.192  43.572  1.00  0.00     0.013 C 
HETATM    4  C   UNL     1      33.484  51.874  44.588  1.00  0.00     0.001 C 
HETATM    5  C   UNL     1      32.162  51.569  43.900  1.00  0.00     0.001 C 
HETATM    6  C   UNL     1      32.301  50.396  42.936  1.00  0.00     0.015 C 
ENDROOT
BRANCH   1   7
HETATM    7  C   UNL     1      32.871  51.326  40.671  1.00  0.00     0.222 C 
HETATM    8  N   UNL     1      32.755  50.611  39.507  1.00  0.00    -0.358 N 
HETATM    9  H   UNL     1      32.446  49.653  39.637  1.00  0.00     0.162 HD
HETATM   10  O   UNL     1      32.658  52.537  40.734  1.00  0.00    -0.273 OA
BRANCH   8  11
HETATM   11  C   UNL     1      32.249  51.213  38.282  1.00  0.00     0.159 C 
BRANCH  11  12
HETATM   12  C   UNL     1      30.742  51.049  37.984  1.00  0.00     0.169 C 
BRANCH  12  13
HETATM   13  C   UNL     1      29.829  51.386  39.147  1.00  0.00    -0.025 A 
HETATM   14  C   UNL     1      29.373  50.392  40.031  1.00  0.00     0.046 A 
HETATM   15  C   UNL     1      28.552  50.722  41.113  1.00  0.00     0.068 A 
HETATM   16  C   UNL     1      28.172  52.053  41.302  1.00  0.00     0.037 A 
HETATM   17  C   UNL     1      28.610  53.048  40.430  1.00  0.00     0.003 A 
HETATM   18  C   UNL     1      29.436  52.716  39.359  1.00  0.00     0.010 A 
BRANCH  15  19
HETATM   19  O   UNL     1      28.059  49.852  42.046  1.00  0.00    -0.356 OA
HETATM   20  C   UNL     1      28.699  48.586  42.143  1.00  0.00     0.210 C 
ENDBRANCH  15  19
ENDBRANCH  12  13
BRANCH  12  21
HETATM   21  O   UNL     1      30.399  51.897  36.876  1.00  0.00    -0.389 OA
HETATM   22  H   UNL     1      29.495  51.647  36.614  1.00  0.00     0.210 HD
ENDBRANCH  12  21
ENDBRANCH  11  12
ENDBRANCH   8  11
ENDBRANCH   1   7
BRANCH   2  23
HETATM   23  C   UNL     1      35.733  51.475  41.472  1.00  0.00     0.110 A 
HETATM   24  N   UNL     1      36.159  52.697  41.224  1.00  0.00    -0.233 NA
HETATM   25  C   UNL     1      37.010  52.582  40.151  1.00  0.00     0.087 A 
HETATM   26  C   UNL     1      37.108  51.258  39.737  1.00  0.00     0.062 A 
HETATM   27  C   UNL     1      37.732  53.573  39.473  1.00  0.00     0.057 A 
HETATM   28  N   UNL     1      36.286  50.574  40.595  1.00  0.00    -0.342 N 
HETATM   29  C   UNL     1      37.897  50.844  38.663  1.00  0.00     0.034 A 
HETATM   30  H   UNL     1      36.104  49.580  40.572  1.00  0.00     0.167 HD
HETATM   31  C   UNL     1      38.613  51.844  37.994  1.00  0.00     0.026 A 
HETATM   32  C   UNL     1      38.530  53.180  38.393  1.00  0.00     0.036 A 
HETATM   33 CL   UNL     1      39.430  54.374  37.535  1.00  0.00    -0.084 Cl
ENDBRANCH   2  23
TORSDOF 7
ENDMDL
MODEL 7
REMARK VINA RESULT:      -8.8     11.266     13.458
REMARK  7 active torsions:
REMARK  status: ('A' for Active; 'I' for Inactive)
REMARK    1  A    between atoms: O_2  and  C_3 
REMARK    2  A    between atoms: C_5  and  C_6 
REMARK    3  A    between atoms: C_6  and  O_7 
REMARK    4  A    between atoms: C_6  and  C_8 
REMARK    5  A    between atoms: C_8  and  N_9 
REMARK       I    between atoms: N_9  and  C_10 
REMARK    6  A    between atoms: C_10  and  C_11 
REMARK    7  A    between atoms: C_12  and  C_13 
ROOT
HETATM    1  C   UNL     1      27.591  47.234  38.464  1.00  0.00     0.089 C 
HETATM    2  C   UNL     1      28.418  46.405  39.469  1.00  0.00     0.068 C 
HETATM    3  C   UNL     1      27.584  45.648  40.519  1.00  0.00     0.013 C 
HETATM    4  C   UNL     1      26.419  44.890  39.898  1.00  0.00     0.001 C 
HETATM    5  C   UNL     1      25.543  45.815  39.066  1.00  0.00     0.001 C 
HETATM    6  C   UNL     1      26.348  46.485  37.958  1.00  0.00     0.015 C 
ENDROOT
BRANCH   1   7
HETATM    7  C   UNL     1      27.213  48.670  38.850  1.00  0.00     0.222 C 
HETATM    8  N   UNL     1      27.818  49.683  38.152  1.00  0.00    -0.358 N 
HETATM    9  H   UNL     1      27.941  49.490  37.163  1.00  0.00     0.162 HD
HETATM   10  O   UNL     1      26.479  48.873  39.818  1.00  0.00    -0.273 OA
BRANCH   8  11
HETATM   11  C   UNL     1      27.538  51.084  38.430  1.00  0.00     0.159 C 
BRANCH  11  12
HETATM   12  C   UNL     1      28.698  52.087  38.246  1.00  0.00     0.169 C 
BRANCH  12  13
HETATM   13  C   UNL     1      29.514  52.342  39.499  1.00  0.00    -0.025 A 
HETATM   14  C   UNL     1      30.916  52.442  39.451  1.00  0.00     0.046 A 
HETATM   15  C   UNL     1      31.652  52.702  40.610  1.00  0.00     0.068 A 
HETATM   16  C   UNL     1      30.983  52.845  41.828  1.00  0.00     0.037 A 
HETATM   17  C   UNL     1      29.595  52.741  41.893  1.00  0.00     0.003 A 
HETATM   18  C   UNL     1      28.864  52.492  40.733  1.00  0.00     0.010 A 
BRANCH  15  19
HETATM   19  O   UNL     1      33.011  52.836  40.689  1.00  0.00    -0.356 OA
HETATM   20  C   UNL     1      33.751  52.578  39.503  1.00  0.00     0.210 C 
ENDBRANCH  15  19
ENDBRANCH  12  13
BRANCH  12  21
HETATM   21  O   UNL     1      29.577  51.589  37.225  1.00  0.00    -0.389 OA
HETATM   22  H   UNL     1      29.648  52.297  36.561  1.00  0.00     0.210 HD
ENDBRANCH  12  21
ENDBRANCH  11  12
ENDBRANCH   8  11
ENDBRANCH   1   7
BRANCH   2  23
HETATM   23  C   UNL     1      29.484  47.231  40.124  1.00  0.00     0.110 A 
HETATM   24  N   UNL     1      30.723  47.382  39.700  1.00  0.00    -0.233 NA
HETATM   25  C   UNL     1      31.343  48.169  40.639  1.00  0.00     0.087 A 
HETATM   26  C   UNL     1      30.461  48.511  41.658  1.00  0.00     0.062 A 
HETATM   27  C   UNL     1      32.665  48.629  40.688  1.00  0.00     0.057 A 
HETATM   28  N   UNL     1      29.284  47.902  41.306  1.00  0.00    -0.342 N 
HETATM   29  C   UNL     1      30.818  49.300  42.753  1.00  0.00     0.034 A 
HETATM   30  H   UNL     1      28.424  47.927  41.836  1.00  0.00     0.167 HD
HETATM   31  C   UNL     1      32.142  49.752  42.789  1.00  0.00     0.026 A 
HETATM   32  C   UNL     1      33.045  49.422  41.776  1.00  0.00     0.036 A 
HETATM   33 CL   UNL     1      34.665  50.003  41.868  1.00  0.00    -0.084 Cl
ENDBRANCH   2  23
TORSDOF 7
ENDMDL
MODEL 8
REMARK VINA RESULT:      -8.7     11.803     13.679
REMARK  7 active torsions:
REMARK  status: ('A' for Active; 'I' for Inactive)
REMARK    1  A    between atoms: O_2  and  C_3 
REMARK    2  A    between atoms: C_5  and  C_6 
REMARK    3  A    between atoms: C_6  and  O_7 
REMARK    4  A    between atoms: C_6  and  C_8 
REMARK    5  A    between atoms: C_8  and  N_9 
REMARK       I    between atoms: N_9  and  C_10 
REMARK    6  A    between atoms: C_10  and  C_11 
REMARK    7  A    between atoms: C_12  and  C_13 
ROOT
HETATM    1  C   UNL     1      29.496  51.270  39.104  1.00  0.00     0.089 C 
HETATM    2  C   UNL     1      28.031  51.191  39.585  1.00  0.00     0.068 C 
HETATM    3  C   UNL     1      27.823  51.519  41.074  1.00  0.00     0.013 C 
HETATM    4  C   UNL     1      28.549  52.790  41.495  1.00  0.00     0.001 C 
HETATM    5  C   UNL     1      30.029  52.717  41.151  1.00  0.00     0.001 C 
HETATM    6  C   UNL     1      30.236  52.498  39.657  1.00  0.00     0.015 C 
ENDROOT
BRANCH   1   7
HETATM    7  C   UNL     1      30.373  50.020  39.255  1.00  0.00     0.222 C 
HETATM    8  N   UNL     1      30.387  49.413  40.485  1.00  0.00    -0.358 N 
HETATM    9  H   UNL     1      29.487  49.401  40.952  1.00  0.00     0.162 HD
HETATM   10  O   UNL     1      31.104  49.666  38.329  1.00  0.00    -0.273 OA
BRANCH   8  11
HETATM   11  C   UNL     1      31.183  48.222  40.746  1.00  0.00     0.159 C 
BRANCH  11  12
HETATM   12  C   UNL     1      32.673  48.430  41.095  1.00  0.00     0.169 C 
BRANCH  12  13
HETATM   13  C   UNL     1      32.946  49.601  42.019  1.00  0.00    -0.025 A 
HETATM   14  C   UNL     1      34.129  50.356  41.914  1.00  0.00     0.046 A 
HETATM   15  C   UNL     1      34.354  51.447  42.757  1.00  0.00     0.068 A 
HETATM   16  C   UNL     1      33.400  51.775  43.722  1.00  0.00     0.037 A 
HETATM   17  C   UNL     1      32.227  51.032  43.844  1.00  0.00     0.003 A 
HETATM   18  C   UNL     1      32.001  49.951  42.995  1.00  0.00     0.010 A 
BRANCH  15  19
HETATM   19  O   UNL     1      35.451  52.264  42.742  1.00  0.00    -0.356 OA
HETATM   20  C   UNL     1      36.075  52.523  43.993  1.00  0.00     0.210 C 
ENDBRANCH  15  19
ENDBRANCH  12  13
BRANCH  12  21
HETATM   21  O   UNL     1      33.168  47.234  41.718  1.00  0.00    -0.389 OA
HETATM   22  H   UNL     1      32.418  46.856  42.211  1.00  0.00     0.210 HD
ENDBRANCH  12  21
ENDBRANCH  11  12
ENDBRANCH   8  11
ENDBRANCH   1   7
BRANCH   2  23
HETATM   23  C   UNL     1      27.401  49.877  39.231  1.00  0.00     0.110 A 
HETATM   24  N   UNL     1      27.125  48.896  40.066  1.00  0.00    -0.233 NA
HETATM   25  C   UNL     1      26.616  47.882  39.292  1.00  0.00     0.087 A 
HETATM   26  C   UNL     1      26.577  48.255  37.952  1.00  0.00     0.062 A 
HETATM   27  C   UNL     1      26.169  46.608  39.667  1.00  0.00     0.057 A 
HETATM   28  N   UNL     1      27.081  49.530  37.941  1.00  0.00    -0.342 N 
HETATM   29  C   UNL     1      26.112  47.421  36.935  1.00  0.00     0.034 A 
HETATM   30  H   UNL     1      27.214  50.105  37.121  1.00  0.00     0.167 HD
HETATM   31  C   UNL     1      25.669  46.151  37.323  1.00  0.00     0.026 A 
HETATM   32  C   UNL     1      25.698  45.755  38.663  1.00  0.00     0.036 A 
HETATM   33 CL   UNL     1      25.143  44.181  39.090  1.00  0.00    -0.084 Cl
ENDBRANCH   2  23
TORSDOF 7
ENDMDL
MODEL 9
REMARK VINA RESULT:      -8.6      5.318      9.951
REMARK  7 active torsions:
REMARK  status: ('A' for Active; 'I' for Inactive)
REMARK    1  A    between atoms: O_2  and  C_3 
REMARK    2  A    between atoms: C_5  and  C_6 
REMARK    3  A    between atoms: C_6  and  O_7 
REMARK    4  A    between atoms: C_6  and  C_8 
REMARK    5  A    between atoms: C_8  and  N_9 
REMARK       I    between atoms: N_9  and  C_10 
REMARK    6  A    between atoms: C_10  and  C_11 
REMARK    7  A    between atoms: C_12  and  C_13 
ROOT
HETATM    1  C   UNL     1      19.247  51.449  48.167  1.00  0.00     0.089 C 
HETATM    2  C   UNL     1      18.255  50.302  47.880  1.00  0.00     0.068 C 
HETATM    3  C   UNL     1      17.109  50.172  48.899  1.00  0.00     0.013 C 
HETATM    4  C   UNL     1      16.444  51.508  49.199  1.00  0.00     0.001 C 
HETATM    5  C   UNL     1      17.466  52.541  49.653  1.00  0.00     0.001 C 
HETATM    6  C   UNL     1      18.544  52.747  48.596  1.00  0.00     0.015 C 
ENDROOT
BRANCH   1   7
HETATM    7  C   UNL     1      20.430  51.164  49.102  1.00  0.00     0.222 C 
HETATM    8  N   UNL     1      21.678  51.134  48.535  1.00  0.00    -0.358 N 
HETATM    9  H   UNL     1      21.822  51.830  47.810  1.00  0.00     0.162 HD
HETATM   10  O   UNL     1      20.226  50.872  50.280  1.00  0.00    -0.273 OA
BRANCH   8  11
HETATM   11  C   UNL     1      22.875  50.873  49.323  1.00  0.00     0.159 C 
BRANCH  11  12
HETATM   12  C   UNL     1      24.058  50.188  48.604  1.00  0.00     0.169 C 
BRANCH  12  13
HETATM   13  C   UNL     1      24.265  48.733  48.980  1.00  0.00    -0.025 A 
HETATM   14  C   UNL     1      25.509  48.266  49.441  1.00  0.00     0.046 A 
HETATM   15  C   UNL     1      25.677  46.927  49.806  1.00  0.00     0.068 A 
HETATM   16  C   UNL     1      24.598  46.047  49.693  1.00  0.00     0.037 A 
HETATM   17  C   UNL     1      23.362  46.493  49.230  1.00  0.00     0.003 A 
HETATM   18  C   UNL     1      23.196  47.830  48.877  1.00  0.00     0.010 A 
BRANCH  15  19
HETATM   19  O   UNL     1      26.827  46.360  50.281  1.00  0.00    -0.356 OA
HETATM   20  C   UNL     1      27.009  44.972  50.028  1.00  0.00     0.210 C 
ENDBRANCH  15  19
ENDBRANCH  12  13
BRANCH  12  21
HETATM   21  O   UNL     1      23.840  50.265  47.186  1.00  0.00    -0.389 OA
HETATM   22  H   UNL     1      23.002  50.748  47.068  1.00  0.00     0.210 HD
ENDBRANCH  12  21
ENDBRANCH  11  12
ENDBRANCH   8  11
ENDBRANCH   1   7
BRANCH   2  23
HETATM   23  C   UNL     1      18.961  48.993  47.695  1.00  0.00     0.110 A 
HETATM   24  N   UNL     1      19.731  48.660  46.679  1.00  0.00    -0.233 NA
HETATM   25  C   UNL     1      20.106  47.358  46.908  1.00  0.00     0.087 A 
HETATM   26  C   UNL     1      19.555  46.887  48.095  1.00  0.00     0.062 A 
HETATM   27  C   UNL     1      20.916  46.512  46.139  1.00  0.00     0.057 A 
HETATM   28  N   UNL     1      18.832  47.947  48.577  1.00  0.00    -0.342 N 
HETATM   29  C   UNL     1      19.761  45.594  48.579  1.00  0.00     0.034 A 
HETATM   30  H   UNL     1      18.282  47.951  49.425  1.00  0.00     0.167 HD
HETATM   31  C   UNL     1      20.571  44.759  47.800  1.00  0.00     0.026 A 
HETATM   32  C   UNL     1      21.135  45.212  46.605  1.00  0.00     0.036 A 
HETATM   33 CL   UNL     1      22.125  44.144  45.682  1.00  0.00    -0.084 Cl
ENDBRANCH   2  23
TORSDOF 7
ENDMDL
MODEL 10
REMARK VINA RESULT:      -8.6     17.441     19.493
REMARK  7 active torsions:
REMARK  status: ('A' for Active; 'I' for Inactive)
REMARK    1  A    between atoms: O_2  and  C_3 
REMARK    2  A    between atoms: C_5  and  C_6 
REMARK    3  A    between atoms: C_6  and  O_7 
REMARK    4  A    between atoms: C_6  and  C_8 
REMARK    5  A    between atoms: C_8  and  N_9 
REMARK       I    between atoms: N_9  and  C_10 
REMARK    6  A    between atoms: C_10  and  C_11 
REMARK    7  A    between atoms: C_12  and  C_13 
ROOT
HETATM    1  C   UNL     1      39.526  40.709  65.385  1.00  0.00     0.089 C 
HETATM    2  C   UNL     1      38.463  40.994  64.304  1.00  0.00     0.068 C 
HETATM    3  C   UNL     1      38.908  40.683  62.864  1.00  0.00     0.013 C 
HETATM    4  C   UNL     1      39.567  39.315  62.743  1.00  0.00     0.001 C 
HETATM    5  C   UNL     1      40.727  39.176  63.718  1.00  0.00     0.001 C 
HETATM    6  C   UNL     1      40.264  39.380  65.155  1.00  0.00     0.015 C 
ENDROOT
BRANCH   1   7
HETATM    7  C   UNL     1      40.537  41.816  65.713  1.00  0.00     0.222 C 
HETATM    8  N   UNL     1      40.862  42.683  64.701  1.00  0.00    -0.358 N 
HETATM    9  H   UNL     1      40.082  42.935  64.104  1.00  0.00     0.162 HD
HETATM   10  O   UNL     1      41.095  41.833  66.811  1.00  0.00    -0.273 OA
BRANCH   8  11
HETATM   11  C   UNL     1      41.809  43.771  64.896  1.00  0.00     0.159 C 
BRANCH  11  12
HETATM   12  C   UNL     1      41.520  45.099  64.161  1.00  0.00     0.169 C 
BRANCH  12  13
HETATM   13  C   UNL     1      40.792  46.135  64.996  1.00  0.00    -0.025 A 
HETATM   14  C   UNL     1      40.633  47.458  64.545  1.00  0.00     0.046 A 
HETATM   15  C   UNL     1      39.939  48.395  65.316  1.00  0.00     0.068 A 
HETATM   16  C   UNL     1      39.415  48.010  66.552  1.00  0.00     0.037 A 
HETATM   17  C   UNL     1      39.571  46.706  67.016  1.00  0.00     0.003 A 
HETATM   18  C   UNL     1      40.255  45.772  66.240  1.00  0.00     0.010 A 
BRANCH  15  19
HETATM   19  O   UNL     1      39.706  49.700  64.980  1.00  0.00    -0.356 OA
HETATM   20  C   UNL     1      39.219  50.550  66.012  1.00  0.00     0.210 C 
ENDBRANCH  15  19
ENDBRANCH  12  13
BRANCH  12  21
HETATM   21  O   UNL     1      42.768  45.662  63.725  1.00  0.00    -0.389 OA
HETATM   22  H   UNL     1      43.452  45.287  64.308  1.00  0.00     0.210 HD
ENDBRANCH  12  21
ENDBRANCH  11  12
ENDBRANCH   8  11
ENDBRANCH   1   7
BRANCH   2  23
HETATM   23  C   UNL     1      37.924  42.389  64.410  1.00  0.00     0.110 A 
HETATM   24  N   UNL     1      38.111  43.364  63.544  1.00  0.00    -0.233 NA
HETATM   25  C   UNL     1      37.486  44.463  64.082  1.00  0.00     0.087 A 
HETATM   26  C   UNL     1      36.901  44.150  65.304  1.00  0.00     0.062 A 
HETATM   27  C   UNL     1      37.383  45.767  63.581  1.00  0.00     0.057 A 
HETATM   28  N   UNL     1      37.193  42.823  65.489  1.00  0.00    -0.342 N 
HETATM   29  C   UNL     1      36.203  45.075  66.082  1.00  0.00     0.034 A 
HETATM   30  H   UNL     1      36.933  42.268  66.292  1.00  0.00     0.167 HD
HETATM   31  C   UNL     1      36.108  46.374  65.570  1.00  0.00     0.026 A 
HETATM   32  C   UNL     1      36.687  46.711  64.344  1.00  0.00     0.036 A 
HETATM   33 CL   UNL     1      36.543  48.325  63.758  1.00  0.00    -0.084 Cl
ENDBRANCH   2  23
TORSDOF 7
ENDMDL
