MODEL 1
REMARK VINA RESULT:      -9.8      0.000      0.000
REMARK  6 active torsions:
REMARK  status: ('A' for Active; 'I' for Inactive)
REMARK    1  A    between atoms: C_4  and  C_5 
REMARK    2  A    between atoms: C_5  and  C_6 
REMARK    3  A    between atoms: C_8  and  C_9 
REMARK    4  A    between atoms: C_9  and  C_10 
REMARK       I    between atoms: C_10  and  N_11 
REMARK    5  A    between atoms: N_11  and  N_12 
REMARK       I    between atoms: N_12  and  C_13 
REMARK       I    between atoms: C_13  and  N_14 
REMARK    6  A    between atoms: N_14  and  C_15 
ROOT
HETATM    1  C   UNL     1      24.328  43.733  49.878  1.00  0.00     0.238 C 
HETATM    2  N   UNL     1      24.831  43.381  51.113  1.00  0.00    -0.266 N 
HETATM    3  O   UNL     1      25.014  44.257  49.003  1.00  0.00    -0.272 OA
HETATM    4  H   UNL     1      24.259  43.050  51.891  1.00  0.00     0.190 HD
ENDROOT
BRANCH   1   5
HETATM    5  C   UNL     1      22.868  43.395  49.723  1.00  0.00     0.139 C 
BRANCH   5   6
HETATM    6  C   UNL     1      22.053  44.585  49.220  1.00  0.00     0.185 C 
HETATM    7  N   UNL     1      22.733  45.837  49.548  1.00  0.00    -0.363 N 
HETATM    8  C   UNL     1      22.664  46.897  48.674  1.00  0.00     0.125 C 
HETATM    9  H   UNL     1      22.686  46.075  50.539  1.00  0.00     0.161 HD
HETATM   10  N   UNL     1      22.302  46.806  47.428  1.00  0.00    -0.159 NA
HETATM   11  N   UNL     1      21.945  45.578  46.962  1.00  0.00    -0.244 N 
HETATM   12  C   UNL     1      21.837  44.432  47.713  1.00  0.00     0.261 C 
HETATM   13  H   UNL     1      21.762  45.508  45.967  1.00  0.00     0.192 HD
HETATM   14  O   UNL     1      21.532  43.360  47.189  1.00  0.00    -0.269 OA
BRANCH   8  15
HETATM   15  C   UNL     1      23.040  48.281  49.197  1.00  0.00     0.118 C 
BRANCH  15  16
HETATM   16  C   UNL     1      24.514  48.586  49.066  1.00  0.00    -0.051 A 
HETATM   17  C   UNL     1      24.948  49.653  48.266  1.00  0.00     0.007 A 
HETATM   18  C   UNL     1      26.306  49.969  48.180  1.00  0.00     0.001 A 
HETATM   19  C   UNL     1      27.244  49.227  48.895  1.00  0.00     0.000 A 
HETATM   20  C   UNL     1      26.824  48.170  49.700  1.00  0.00     0.001 A 
HETATM   21  C   UNL     1      25.467  47.857  49.791  1.00  0.00     0.007 A 
ENDBRANCH  15  16
ENDBRANCH   8  15
ENDBRANCH   5   6
ENDBRANCH   1   5
BRANCH   2  22
HETATM   22  N   UNL     1      26.177  43.653  51.400  1.00  0.00    -0.249 N 
HETATM   23  C   UNL     1      26.480  43.964  52.717  1.00  0.00     0.339 C 
HETATM   24  N   UNL     1      27.813  44.275  52.871  1.00  0.00    -0.308 N 
HETATM   25  O   UNL     1      25.626  43.909  53.597  1.00  0.00    -0.245 OA
HETATM   26  H   UNL     1      28.389  44.122  52.055  1.00  0.00     0.170 HD
HETATM   27  H   UNL     1      26.690  44.096  50.642  1.00  0.00     0.192 HD
BRANCH  24  28
HETATM   28  C   UNL     1      28.479  44.639  54.059  1.00  0.00     0.038 A 
HETATM   29  C   UNL     1      29.491  43.880  54.652  1.00  0.00     0.055 A 
HETATM   30  C   UNL     1      30.110  44.315  55.831  1.00  0.00     0.058 A 
HETATM   31 CL   UNL     1      31.358  43.321  56.500  1.00  0.00    -0.082 Cl
HETATM   32  C   UNL     1      29.716  45.515  56.428  1.00  0.00     0.055 A 
HETATM   33 CL   UNL     1      30.436  46.116  57.880  1.00  0.00    -0.083 Cl
HETATM   34  C   UNL     1      28.700  46.273  55.845  1.00  0.00     0.028 A 
HETATM   35  C   UNL     1      28.085  45.836  54.669  1.00  0.00     0.031 A 
ENDBRANCH  24  28
ENDBRANCH   2  22
TORSDOF 6
ENDMDL
MODEL 2
REMARK VINA RESULT:      -9.7      5.277      9.466
REMARK  6 active torsions:
REMARK  status: ('A' for Active; 'I' for Inactive)
REMARK    1  A    between atoms: C_4  and  C_5 
REMARK    2  A    between atoms: C_5  and  C_6 
REMARK    3  A    between atoms: C_8  and  C_9 
REMARK    4  A    between atoms: C_9  and  C_10 
REMARK       I    between atoms: C_10  and  N_11 
REMARK    5  A    between atoms: N_11  and  N_12 
REMARK       I    between atoms: N_12  and  C_13 
REMARK       I    between atoms: C_13  and  N_14 
REMARK    6  A    between atoms: N_14  and  C_15 
ROOT
HETATM    1  C   UNL     1      25.756  46.955  50.134  1.00  0.00     0.238 C 
HETATM    2  N   UNL     1      24.481  46.831  49.625  1.00  0.00    -0.266 N 
HETATM    3  O   UNL     1      26.079  47.847  50.915  1.00  0.00    -0.272 OA
HETATM    4  H   UNL     1      24.217  46.172  48.892  1.00  0.00     0.190 HD
ENDROOT
BRANCH   1   5
HETATM    5  C   UNL     1      26.690  45.881  49.639  1.00  0.00     0.139 C 
BRANCH   5   6
HETATM    6  C   UNL     1      26.910  44.786  50.680  1.00  0.00     0.185 C 
HETATM    7  N   UNL     1      26.966  45.366  52.020  1.00  0.00    -0.363 N 
HETATM    8  C   UNL     1      26.443  44.670  53.085  1.00  0.00     0.125 C 
HETATM    9  H   UNL     1      27.830  45.876  52.204  1.00  0.00     0.161 HD
HETATM   10  N   UNL     1      25.624  43.665  52.981  1.00  0.00    -0.159 NA
HETATM   11  N   UNL     1      25.276  43.260  51.728  1.00  0.00    -0.244 N 
HETATM   12  C   UNL     1      25.787  43.754  50.552  1.00  0.00     0.261 C 
HETATM   13  H   UNL     1      24.563  42.542  51.667  1.00  0.00     0.192 HD
HETATM   14  O   UNL     1      25.385  43.337  49.465  1.00  0.00    -0.269 OA
BRANCH   8  15
HETATM   15  C   UNL     1      26.847  45.103  54.491  1.00  0.00     0.118 C 
BRANCH  15  16
HETATM   16  C   UNL     1      28.256  44.698  54.857  1.00  0.00    -0.051 A 
HETATM   17  C   UNL     1      29.019  45.492  55.725  1.00  0.00     0.007 A 
HETATM   18  C   UNL     1      30.304  45.097  56.104  1.00  0.00     0.001 A 
HETATM   19  C   UNL     1      30.839  43.904  55.624  1.00  0.00     0.000 A 
HETATM   20  C   UNL     1      30.088  43.101  54.768  1.00  0.00     0.001 A 
HETATM   21  C   UNL     1      28.801  43.492  54.392  1.00  0.00     0.007 A 
ENDBRANCH  15  16
ENDBRANCH   8  15
ENDBRANCH   5   6
ENDBRANCH   1   5
BRANCH   2  22
HETATM   22  N   UNL     1      23.509  47.775  49.991  1.00  0.00    -0.249 N 
HETATM   23  C   UNL     1      22.658  48.213  48.986  1.00  0.00     0.339 C 
HETATM   24  N   UNL     1      21.792  49.181  49.442  1.00  0.00    -0.308 N 
HETATM   25  O   UNL     1      22.698  47.723  47.862  1.00  0.00    -0.245 OA
HETATM   26  H   UNL     1      21.815  49.348  50.438  1.00  0.00     0.170 HD
HETATM   27  H   UNL     1      23.798  48.415  50.727  1.00  0.00     0.192 HD
BRANCH  24  28
HETATM   28  C   UNL     1      20.793  49.854  48.709  1.00  0.00     0.038 A 
HETATM   29  C   UNL     1      20.044  49.264  47.687  1.00  0.00     0.055 A 
HETATM   30  C   UNL     1      19.061  49.999  47.009  1.00  0.00     0.058 A 
HETATM   31 CL   UNL     1      18.174  49.196  45.760  1.00  0.00    -0.082 Cl
HETATM   32  C   UNL     1      18.825  51.334  47.349  1.00  0.00     0.055 A 
HETATM   33 CL   UNL     1      17.629  52.299  46.560  1.00  0.00    -0.083 Cl
HETATM   34  C   UNL     1      19.576  51.930  48.363  1.00  0.00     0.028 A 
HETATM   35  C   UNL     1      20.555  51.194  49.037  1.00  0.00     0.031 A 
ENDBRANCH  24  28
ENDBRANCH   2  22
TORSDOF 6
ENDMDL
MODEL 3
REMARK VINA RESULT:      -9.5      3.487      4.480
REMARK  6 active torsions:
REMARK  status: ('A' for Active; 'I' for Inactive)
REMARK    1  A    between atoms: C_4  and  C_5 
REMARK    2  A    between atoms: C_5  and  C_6 
REMARK    3  A    between atoms: C_8  and  C_9 
REMARK    4  A    between atoms: C_9  and  C_10 
REMARK       I    between atoms: C_10  and  N_11 
REMARK    5  A    between atoms: N_11  and  N_12 
REMARK       I    between atoms: N_12  and  C_13 
REMARK       I    between atoms: C_13  and  N_14 
REMARK    6  A    between atoms: N_14  and  C_15 
ROOT
HETATM    1  C   UNL     1      22.237  46.110  48.624  1.00  0.00     0.238 C 
HETATM    2  N   UNL     1      23.009  45.480  49.576  1.00  0.00    -0.266 N 
HETATM    3  O   UNL     1      22.493  47.231  48.191  1.00  0.00    -0.272 OA
HETATM    4  H   UNL     1      22.756  44.602  50.032  1.00  0.00     0.190 HD
ENDROOT
BRANCH   1   5
HETATM    5  C   UNL     1      21.067  45.273  48.173  1.00  0.00     0.139 C 
BRANCH   5   6
HETATM    6  C   UNL     1      19.814  45.543  49.003  1.00  0.00     0.185 C 
HETATM    7  N   UNL     1      19.849  46.901  49.543  1.00  0.00    -0.363 N 
HETATM    8  C   UNL     1      18.679  47.616  49.662  1.00  0.00     0.125 C 
HETATM    9  H   UNL     1      20.518  47.017  50.303  1.00  0.00     0.161 HD
HETATM   10  N   UNL     1      17.566  47.317  49.057  1.00  0.00    -0.159 NA
HETATM   11  N   UNL     1      17.552  46.207  48.270  1.00  0.00    -0.244 N 
HETATM   12  C   UNL     1      18.583  45.310  48.125  1.00  0.00     0.261 C 
HETATM   13  H   UNL     1      16.708  46.047  47.731  1.00  0.00     0.192 HD
HETATM   14  O   UNL     1      18.479  44.348  47.363  1.00  0.00    -0.269 OA
BRANCH   8  15
HETATM   15  C   UNL     1      18.681  48.847  50.562  1.00  0.00     0.118 C 
BRANCH  15  16
HETATM   16  C   UNL     1      18.811  50.144  49.798  1.00  0.00    -0.051 A 
HETATM   17  C   UNL     1      17.780  51.094  49.835  1.00  0.00     0.007 A 
HETATM   18  C   UNL     1      17.917  52.314  49.169  1.00  0.00     0.001 A 
HETATM   19  C   UNL     1      19.083  52.601  48.464  1.00  0.00     0.000 A 
HETATM   20  C   UNL     1      20.118  51.668  48.427  1.00  0.00     0.001 A 
HETATM   21  C   UNL     1      19.986  50.450  49.096  1.00  0.00     0.007 A 
ENDBRANCH  15  16
ENDBRANCH   8  15
ENDBRANCH   5   6
ENDBRANCH   1   5
BRANCH   2  22
HETATM   22  N   UNL     1      24.125  46.153  50.097  1.00  0.00    -0.249 N 
HETATM   23  C   UNL     1      24.618  45.691  51.310  1.00  0.00     0.339 C 
HETATM   24  N   UNL     1      25.668  46.462  51.756  1.00  0.00    -0.308 N 
HETATM   25  O   UNL     1      24.156  44.688  51.844  1.00  0.00    -0.245 OA
HETATM   26  H   UNL     1      26.000  47.159  51.105  1.00  0.00     0.170 HD
HETATM   27  H   UNL     1      24.161  47.145  49.878  1.00  0.00     0.192 HD
BRANCH  24  28
HETATM   28  C   UNL     1      26.412  46.296  52.942  1.00  0.00     0.038 A 
HETATM   29  C   UNL     1      27.238  45.199  53.199  1.00  0.00     0.055 A 
HETATM   30  C   UNL     1      27.952  45.110  54.402  1.00  0.00     0.058 A 
HETATM   31 CL   UNL     1      28.957  43.723  54.642  1.00  0.00    -0.082 Cl
HETATM   32  C   UNL     1      27.841  46.122  55.359  1.00  0.00     0.055 A 
HETATM   33 CL   UNL     1      28.692  46.083  56.862  1.00  0.00    -0.083 Cl
HETATM   34  C   UNL     1      27.010  47.216  55.111  1.00  0.00     0.028 A 
HETATM   35  C   UNL     1      26.300  47.301  53.911  1.00  0.00     0.031 A 
ENDBRANCH  24  28
ENDBRANCH   2  22
TORSDOF 6
ENDMDL
MODEL 4
REMARK VINA RESULT:      -9.1      4.192      5.884
REMARK  6 active torsions:
REMARK  status: ('A' for Active; 'I' for Inactive)
REMARK    1  A    between atoms: C_4  and  C_5 
REMARK    2  A    between atoms: C_5  and  C_6 
REMARK    3  A    between atoms: C_8  and  C_9 
REMARK    4  A    between atoms: C_9  and  C_10 
REMARK       I    between atoms: C_10  and  N_11 
REMARK    5  A    between atoms: N_11  and  N_12 
REMARK       I    between atoms: N_12  and  C_13 
REMARK       I    between atoms: C_13  and  N_14 
REMARK    6  A    between atoms: N_14  and  C_15 
ROOT
HETATM    1  C   UNL     1      23.029  47.632  48.903  1.00  0.00     0.238 C 
HETATM    2  N   UNL     1      23.983  47.752  49.891  1.00  0.00    -0.266 N 
HETATM    3  O   UNL     1      22.388  46.601  48.715  1.00  0.00    -0.272 OA
HETATM    4  H   UNL     1      24.605  48.555  49.994  1.00  0.00     0.190 HD
ENDROOT
BRANCH   1   5
HETATM    5  C   UNL     1      22.858  48.895  48.098  1.00  0.00     0.139 C 
BRANCH   5   6
HETATM    6  C   UNL     1      21.603  49.666  48.498  1.00  0.00     0.185 C 
HETATM    7  N   UNL     1      20.506  48.739  48.770  1.00  0.00    -0.363 N 
HETATM    8  C   UNL     1      19.602  49.029  49.766  1.00  0.00     0.125 C 
HETATM    9  H   UNL     1      20.117  48.315  47.928  1.00  0.00     0.161 HD
HETATM   10  N   UNL     1      19.794  49.907  50.707  1.00  0.00    -0.159 NA
HETATM   11  N   UNL     1      20.963  50.604  50.691  1.00  0.00    -0.244 N 
HETATM   12  C   UNL     1      21.927  50.537  49.714  1.00  0.00     0.261 C 
HETATM   13  H   UNL     1      21.138  51.211  51.485  1.00  0.00     0.192 HD
HETATM   14  O   UNL     1      22.966  51.191  49.808  1.00  0.00    -0.269 OA
BRANCH   8  15
HETATM   15  C   UNL     1      18.280  48.268  49.775  1.00  0.00     0.118 C 
BRANCH  15  16
HETATM   16  C   UNL     1      17.265  48.825  48.804  1.00  0.00    -0.051 A 
HETATM   17  C   UNL     1      16.390  47.966  48.123  1.00  0.00     0.007 A 
HETATM   18  C   UNL     1      15.419  48.481  47.262  1.00  0.00     0.001 A 
HETATM   19  C   UNL     1      15.309  49.857  47.072  1.00  0.00     0.000 A 
HETATM   20  C   UNL     1      16.167  50.721  47.750  1.00  0.00     0.001 A 
HETATM   21  C   UNL     1      17.134  50.209  48.616  1.00  0.00     0.007 A 
ENDBRANCH  15  16
ENDBRANCH   8  15
ENDBRANCH   5   6
ENDBRANCH   1   5
BRANCH   2  22
HETATM   22  N   UNL     1      24.256  46.645  50.708  1.00  0.00    -0.249 N 
HETATM   23  C   UNL     1      25.465  46.658  51.389  1.00  0.00     0.339 C 
HETATM   24  N   UNL     1      25.656  45.498  52.105  1.00  0.00    -0.308 N 
HETATM   25  O   UNL     1      26.206  47.635  51.348  1.00  0.00    -0.245 OA
HETATM   26  H   UNL     1      24.865  44.871  52.131  1.00  0.00     0.170 HD
HETATM   27  H   UNL     1      23.873  45.765  50.370  1.00  0.00     0.192 HD
BRANCH  24  28
HETATM   28  C   UNL     1      26.762  45.159  52.912  1.00  0.00     0.038 A 
HETATM   29  C   UNL     1      27.730  44.218  52.553  1.00  0.00     0.055 A 
HETATM   30  C   UNL     1      28.806  43.941  53.409  1.00  0.00     0.058 A 
HETATM   31 CL   UNL     1      29.966  42.768  52.890  1.00  0.00    -0.082 Cl
HETATM   32  C   UNL     1      28.916  44.605  54.634  1.00  0.00     0.055 A 
HETATM   33 CL   UNL     1      30.215  44.318  55.736  1.00  0.00    -0.083 Cl
HETATM   34  C   UNL     1      27.946  45.540  55.000  1.00  0.00     0.028 A 
HETATM   35  C   UNL     1      26.876  45.813  54.144  1.00  0.00     0.031 A 
ENDBRANCH  24  28
ENDBRANCH   2  22
TORSDOF 6
ENDMDL
MODEL 5
REMARK VINA RESULT:      -9.1      1.757      3.104
REMARK  6 active torsions:
REMARK  status: ('A' for Active; 'I' for Inactive)
REMARK    1  A    between atoms: C_4  and  C_5 
REMARK    2  A    between atoms: C_5  and  C_6 
REMARK    3  A    between atoms: C_8  and  C_9 
REMARK    4  A    between atoms: C_9  and  C_10 
REMARK       I    between atoms: C_10  and  N_11 
REMARK    5  A    between atoms: N_11  and  N_12 
REMARK       I    between atoms: N_12  and  C_13 
REMARK       I    between atoms: C_13  and  N_14 
REMARK    6  A    between atoms: N_14  and  C_15 
ROOT
HETATM    1  C   UNL     1      23.928  44.147  49.749  1.00  0.00     0.238 C 
HETATM    2  N   UNL     1      24.515  43.966  50.983  1.00  0.00    -0.266 N 
HETATM    3  O   UNL     1      24.560  44.495  48.754  1.00  0.00    -0.272 OA
HETATM    4  H   UNL     1      23.996  43.789  51.844  1.00  0.00     0.190 HD
ENDROOT
BRANCH   1   5
HETATM    5  C   UNL     1      22.448  43.865  49.757  1.00  0.00     0.139 C 
BRANCH   5   6
HETATM    6  C   UNL     1      21.655  44.934  49.010  1.00  0.00     0.185 C 
HETATM    7  N   UNL     1      22.342  46.221  49.090  1.00  0.00    -0.363 N 
HETATM    8  C   UNL     1      22.299  47.083  48.018  1.00  0.00     0.125 C 
HETATM    9  H   UNL     1      22.282  46.655  50.011  1.00  0.00     0.161 HD
HETATM   10  N   UNL     1      21.956  46.744  46.810  1.00  0.00    -0.159 NA
HETATM   11  N   UNL     1      21.593  45.450  46.596  1.00  0.00    -0.244 N 
HETATM   12  C   UNL     1      21.461  44.481  47.561  1.00  0.00     0.261 C 
HETATM   13  H   UNL     1      21.425  45.181  45.633  1.00  0.00     0.192 HD
HETATM   14  O   UNL     1      21.153  43.327  47.259  1.00  0.00    -0.269 OA
BRANCH   8  15
HETATM   15  C   UNL     1      22.681  48.541  48.257  1.00  0.00     0.118 C 
BRANCH  15  16
HETATM   16  C   UNL     1      21.497  49.421  48.583  1.00  0.00    -0.051 A 
HETATM   17  C   UNL     1      20.398  48.900  49.281  1.00  0.00     0.007 A 
HETATM   18  C   UNL     1      19.323  49.722  49.627  1.00  0.00     0.001 A 
HETATM   19  C   UNL     1      19.335  51.072  49.284  1.00  0.00     0.000 A 
HETATM   20  C   UNL     1      20.425  51.603  48.598  1.00  0.00     0.001 A 
HETATM   21  C   UNL     1      21.503  50.785  48.256  1.00  0.00     0.007 A 
ENDBRANCH  15  16
ENDBRANCH   8  15
ENDBRANCH   5   6
ENDBRANCH   1   5
BRANCH   2  22
HETATM   22  N   UNL     1      25.890  44.209  51.123  1.00  0.00    -0.249 N 
HETATM   23  C   UNL     1      26.434  43.990  52.380  1.00  0.00     0.339 C 
HETATM   24  N   UNL     1      27.770  44.322  52.418  1.00  0.00    -0.308 N 
HETATM   25  O   UNL     1      25.762  43.516  53.291  1.00  0.00    -0.245 OA
HETATM   26  H   UNL     1      28.183  44.557  51.527  1.00  0.00     0.170 HD
HETATM   27  H   UNL     1      26.248  44.960  50.538  1.00  0.00     0.192 HD
BRANCH  24  28
HETATM   28  C   UNL     1      28.646  44.232  53.520  1.00  0.00     0.038 A 
HETATM   29  C   UNL     1      28.578  45.063  54.641  1.00  0.00     0.055 A 
HETATM   30  C   UNL     1      29.482  44.906  55.701  1.00  0.00     0.058 A 
HETATM   31 CL   UNL     1      29.328  45.970  57.055  1.00  0.00    -0.082 Cl
HETATM   32  C   UNL     1      30.466  43.915  55.641  1.00  0.00     0.055 A 
HETATM   33 CL   UNL     1      31.612  43.661  56.909  1.00  0.00    -0.083 Cl
HETATM   34  C   UNL     1      30.544  43.088  54.519  1.00  0.00     0.028 A 
HETATM   35  C   UNL     1      29.640  43.248  53.465  1.00  0.00     0.031 A 
ENDBRANCH  24  28
ENDBRANCH   2  22
TORSDOF 6
ENDMDL
MODEL 6
REMARK VINA RESULT:      -9.0      3.722      4.878
REMARK  6 active torsions:
REMARK  status: ('A' for Active; 'I' for Inactive)
REMARK    1  A    between atoms: C_4  and  C_5 
REMARK    2  A    between atoms: C_5  and  C_6 
REMARK    3  A    between atoms: C_8  and  C_9 
REMARK    4  A    between atoms: C_9  and  C_10 
REMARK       I    between atoms: C_10  and  N_11 
REMARK    5  A    between atoms: N_11  and  N_12 
REMARK       I    between atoms: N_12  and  C_13 
REMARK       I    between atoms: C_13  and  N_14 
REMARK    6  A    between atoms: N_14  and  C_15 
ROOT
HETATM    1  C   UNL     1      28.271  39.371  49.149  1.00  0.00     0.238 C 
HETATM    2  N   UNL     1      28.314  39.077  50.495  1.00  0.00    -0.266 N 
HETATM    3  O   UNL     1      28.961  40.248  48.634  1.00  0.00    -0.272 OA
HETATM    4  H   UNL     1      27.672  38.435  50.963  1.00  0.00     0.190 HD
ENDROOT
BRANCH   1   5
HETATM    5  C   UNL     1      27.302  38.501  48.390  1.00  0.00     0.139 C 
BRANCH   5   6
HETATM    6  C   UNL     1      25.980  39.215  48.118  1.00  0.00     0.185 C 
HETATM    7  N   UNL     1      25.727  40.221  49.147  1.00  0.00    -0.363 N 
HETATM    8  C   UNL     1      25.106  41.400  48.807  1.00  0.00     0.125 C 
HETATM    9  H   UNL     1      25.459  39.821  50.046  1.00  0.00     0.161 HD
HETATM   10  N   UNL     1      24.984  41.848  47.592  1.00  0.00    -0.159 NA
HETATM   11  N   UNL     1      25.488  41.086  46.583  1.00  0.00    -0.244 N 
HETATM   12  C   UNL     1      26.034  39.832  46.718  1.00  0.00     0.261 C 
HETATM   13  H   UNL     1      25.473  41.496  45.656  1.00  0.00     0.192 HD
HETATM   14  O   UNL     1      26.490  39.234  45.743  1.00  0.00    -0.269 OA
BRANCH   8  15
HETATM   15  C   UNL     1      24.517  42.248  49.930  1.00  0.00     0.118 C 
BRANCH  15  16
HETATM   16  C   UNL     1      25.096  43.642  49.991  1.00  0.00    -0.051 A 
HETATM   17  C   UNL     1      26.485  43.834  49.964  1.00  0.00     0.007 A 
HETATM   18  C   UNL     1      27.023  45.122  49.971  1.00  0.00     0.001 A 
HETATM   19  C   UNL     1      26.182  46.233  50.002  1.00  0.00     0.000 A 
HETATM   20  C   UNL     1      24.800  46.055  50.020  1.00  0.00     0.001 A 
HETATM   21  C   UNL     1      24.260  44.768  50.007  1.00  0.00     0.007 A 
ENDBRANCH  15  16
ENDBRANCH   8  15
ENDBRANCH   5   6
ENDBRANCH   1   5
BRANCH   2  22
HETATM   22  N   UNL     1      29.164  39.823  51.325  1.00  0.00    -0.249 N 
HETATM   23  C   UNL     1      28.599  40.909  51.978  1.00  0.00     0.339 C 
HETATM   24  N   UNL     1      29.535  41.604  52.710  1.00  0.00    -0.308 N 
HETATM   25  O   UNL     1      27.396  41.141  51.902  1.00  0.00    -0.245 OA
HETATM   26  H   UNL     1      30.447  41.173  52.766  1.00  0.00     0.170 HD
HETATM   27  H   UNL     1      30.131  39.865  51.012  1.00  0.00     0.192 HD
BRANCH  24  28
HETATM   28  C   UNL     1      29.329  42.756  53.497  1.00  0.00     0.038 A 
HETATM   29  C   UNL     1      28.316  43.689  53.264  1.00  0.00     0.055 A 
HETATM   30  C   UNL     1      28.171  44.807  54.098  1.00  0.00     0.058 A 
HETATM   31 CL   UNL     1      26.889  45.913  53.747  1.00  0.00    -0.082 Cl
HETATM   32  C   UNL     1      29.046  44.999  55.170  1.00  0.00     0.055 A 
HETATM   33 CL   UNL     1      28.927  46.350  56.241  1.00  0.00    -0.083 Cl
HETATM   34  C   UNL     1      30.065  44.074  55.402  1.00  0.00     0.028 A 
HETATM   35  C   UNL     1      30.206  42.961  54.569  1.00  0.00     0.031 A 
ENDBRANCH  24  28
ENDBRANCH   2  22
TORSDOF 6
ENDMDL
MODEL 7
REMARK VINA RESULT:      -8.9      4.521      6.224
REMARK  6 active torsions:
REMARK  status: ('A' for Active; 'I' for Inactive)
REMARK    1  A    between atoms: C_4  and  C_5 
REMARK    2  A    between atoms: C_5  and  C_6 
REMARK    3  A    between atoms: C_8  and  C_9 
REMARK    4  A    between atoms: C_9  and  C_10 
REMARK       I    between atoms: C_10  and  N_11 
REMARK    5  A    between atoms: N_11  and  N_12 
REMARK       I    between atoms: N_12  and  C_13 
REMARK       I    between atoms: C_13  and  N_14 
REMARK    6  A    between atoms: N_14  and  C_15 
ROOT
HETATM    1  C   UNL     1      22.751  47.969  48.833  1.00  0.00     0.238 C 
HETATM    2  N   UNL     1      23.834  48.008  49.685  1.00  0.00    -0.266 N 
HETATM    3  O   UNL     1      21.937  47.048  48.829  1.00  0.00    -0.272 OA
HETATM    4  H   UNL     1      24.582  48.700  49.631  1.00  0.00     0.190 HD
ENDROOT
BRANCH   1   5
HETATM    5  C   UNL     1      22.676  49.172  47.927  1.00  0.00     0.139 C 
BRANCH   5   6
HETATM    6  C   UNL     1      21.589  50.152  48.364  1.00  0.00     0.185 C 
HETATM    7  N   UNL     1      20.293  49.479  48.417  1.00  0.00    -0.363 N 
HETATM    8  C   UNL     1      19.384  49.831  49.388  1.00  0.00     0.125 C 
HETATM    9  H   UNL     1      19.904  49.277  47.496  1.00  0.00     0.161 HD
HETATM   10  N   UNL     1      19.674  50.501  50.464  1.00  0.00    -0.159 NA
HETATM   11  N   UNL     1      20.964  50.902  50.631  1.00  0.00    -0.244 N 
HETATM   12  C   UNL     1      21.979  50.747  49.718  1.00  0.00     0.261 C 
HETATM   13  H   UNL     1      21.191  51.335  51.519  1.00  0.00     0.192 HD
HETATM   14  O   UNL     1      23.124  51.121  49.978  1.00  0.00    -0.269 OA
BRANCH   8  15
HETATM   15  C   UNL     1      17.931  49.406  49.194  1.00  0.00     0.118 C 
BRANCH  15  16
HETATM   16  C   UNL     1      17.067  50.494  48.601  1.00  0.00    -0.051 A 
HETATM   17  C   UNL     1      16.759  50.487  47.232  1.00  0.00     0.007 A 
HETATM   18  C   UNL     1      15.921  51.463  46.689  1.00  0.00     0.001 A 
HETATM   19  C   UNL     1      15.379  52.454  47.504  1.00  0.00     0.000 A 
HETATM   20  C   UNL     1      15.671  52.467  48.867  1.00  0.00     0.001 A 
HETATM   21  C   UNL     1      16.503  51.489  49.413  1.00  0.00     0.007 A 
ENDBRANCH  15  16
ENDBRANCH   8  15
ENDBRANCH   5   6
ENDBRANCH   1   5
BRANCH   2  22
HETATM   22  N   UNL     1      24.036  46.942  50.574  1.00  0.00    -0.249 N 
HETATM   23  C   UNL     1      25.270  46.885  51.206  1.00  0.00     0.339 C 
HETATM   24  N   UNL     1      25.381  45.768  52.003  1.00  0.00    -0.308 N 
HETATM   25  O   UNL     1      26.100  47.778  51.062  1.00  0.00    -0.245 OA
HETATM   26  H   UNL     1      24.535  45.226  52.107  1.00  0.00     0.170 HD
HETATM   27  H   UNL     1      23.555  46.082  50.321  1.00  0.00     0.192 HD
BRANCH  24  28
HETATM   28  C   UNL     1      26.484  45.380  52.791  1.00  0.00     0.038 A 
HETATM   29  C   UNL     1      26.838  45.994  53.995  1.00  0.00     0.055 A 
HETATM   30  C   UNL     1      27.947  45.545  54.725  1.00  0.00     0.058 A 
HETATM   31 CL   UNL     1      28.316  46.353  56.209  1.00  0.00    -0.082 Cl
HETATM   32  C   UNL     1      28.713  44.477  54.250  1.00  0.00     0.055 A 
HETATM   33 CL   UNL     1      30.091  43.868  55.096  1.00  0.00    -0.083 Cl
HETATM   34  C   UNL     1      28.369  43.866  53.043  1.00  0.00     0.028 A 
HETATM   35  C   UNL     1      27.263  44.317  52.318  1.00  0.00     0.031 A 
ENDBRANCH  24  28
ENDBRANCH   2  22
TORSDOF 6
ENDMDL
MODEL 8
REMARK VINA RESULT:      -8.6      5.974      8.866
REMARK  6 active torsions:
REMARK  status: ('A' for Active; 'I' for Inactive)
REMARK    1  A    between atoms: C_4  and  C_5 
REMARK    2  A    between atoms: C_5  and  C_6 
REMARK    3  A    between atoms: C_8  and  C_9 
REMARK    4  A    between atoms: C_9  and  C_10 
REMARK       I    between atoms: C_10  and  N_11 
REMARK    5  A    between atoms: N_11  and  N_12 
REMARK       I    between atoms: N_12  and  C_13 
REMARK       I    between atoms: C_13  and  N_14 
REMARK    6  A    between atoms: N_14  and  C_15 
ROOT
HETATM    1  C   UNL     1      27.576  42.201  53.449  1.00  0.00     0.238 C 
HETATM    2  N   UNL     1      27.369  41.035  52.743  1.00  0.00    -0.266 N 
HETATM    3  O   UNL     1      28.508  42.966  53.215  1.00  0.00    -0.272 OA
HETATM    4  H   UNL     1      26.673  40.330  52.989  1.00  0.00     0.190 HD
ENDROOT
BRANCH   1   5
HETATM    5  C   UNL     1      26.536  42.431  54.516  1.00  0.00     0.139 C 
BRANCH   5   6
HETATM    6  C   UNL     1      26.267  43.916  54.745  1.00  0.00     0.185 C 
HETATM    7  N   UNL     1      27.494  44.593  55.161  1.00  0.00    -0.363 N 
HETATM    8  C   UNL     1      27.733  45.883  54.746  1.00  0.00     0.125 C 
HETATM    9  H   UNL     1      27.771  44.377  56.118  1.00  0.00     0.161 HD
HETATM   10  N   UNL     1      27.114  46.470  53.763  1.00  0.00    -0.159 NA
HETATM   11  N   UNL     1      26.148  45.765  53.113  1.00  0.00    -0.244 N 
HETATM   12  C   UNL     1      25.693  44.516  53.460  1.00  0.00     0.261 C 
HETATM   13  H   UNL     1      25.748  46.201  52.290  1.00  0.00     0.192 HD
HETATM   14  O   UNL     1      24.830  43.950  52.787  1.00  0.00    -0.269 OA
BRANCH   8  15
HETATM   15  C   UNL     1      28.797  46.687  55.486  1.00  0.00     0.118 C 
BRANCH  15  16
HETATM   16  C   UNL     1      29.739  45.826  56.294  1.00  0.00    -0.051 A 
HETATM   17  C   UNL     1      29.838  45.994  57.683  1.00  0.00     0.007 A 
HETATM   18  C   UNL     1      30.671  45.168  58.440  1.00  0.00     0.001 A 
HETATM   19  C   UNL     1      31.412  44.164  57.821  1.00  0.00     0.000 A 
HETATM   20  C   UNL     1      31.316  43.981  56.443  1.00  0.00     0.001 A 
HETATM   21  C   UNL     1      30.479  44.802  55.685  1.00  0.00     0.007 A 
ENDBRANCH  15  16
ENDBRANCH   8  15
ENDBRANCH   5   6
ENDBRANCH   1   5
BRANCH   2  22
HETATM   22  N   UNL     1      28.273  40.688  51.727  1.00  0.00    -0.249 N 
HETATM   23  C   UNL     1      27.727  40.376  50.490  1.00  0.00     0.339 C 
HETATM   24  N   UNL     1      28.696  39.990  49.591  1.00  0.00    -0.308 N 
HETATM   25  O   UNL     1      26.524  40.494  50.278  1.00  0.00    -0.245 OA
HETATM   26  H   UNL     1      29.649  40.097  49.910  1.00  0.00     0.170 HD
HETATM   27  H   UNL     1      29.108  40.205  52.050  1.00  0.00     0.192 HD
BRANCH  24  28
HETATM   28  C   UNL     1      28.516  39.602  48.248  1.00  0.00     0.038 A 
HETATM   29  C   UNL     1      28.601  38.282  47.798  1.00  0.00     0.055 A 
HETATM   30  C   UNL     1      28.401  37.976  46.444  1.00  0.00     0.058 A 
HETATM   31 CL   UNL     1      28.518  36.318  45.968  1.00  0.00    -0.082 Cl
HETATM   32  C   UNL     1      28.118  38.994  45.530  1.00  0.00     0.055 A 
HETATM   33 CL   UNL     1      27.858  38.693  43.849  1.00  0.00    -0.083 Cl
HETATM   34  C   UNL     1      28.041  40.316  45.973  1.00  0.00     0.028 A 
HETATM   35  C   UNL     1      28.240  40.616  47.323  1.00  0.00     0.031 A 
ENDBRANCH  24  28
ENDBRANCH   2  22
TORSDOF 6
ENDMDL
MODEL 9
REMARK VINA RESULT:      -8.6      2.820      4.208
REMARK  6 active torsions:
REMARK  status: ('A' for Active; 'I' for Inactive)
REMARK    1  A    between atoms: C_4  and  C_5 
REMARK    2  A    between atoms: C_5  and  C_6 
REMARK    3  A    between atoms: C_8  and  C_9 
REMARK    4  A    between atoms: C_9  and  C_10 
REMARK       I    between atoms: C_10  and  N_11 
REMARK    5  A    between atoms: N_11  and  N_12 
REMARK       I    between atoms: N_12  and  C_13 
REMARK       I    between atoms: C_13  and  N_14 
REMARK    6  A    between atoms: N_14  and  C_15 
ROOT
HETATM    1  C   UNL     1      24.511  44.850  49.779  1.00  0.00     0.238 C 
HETATM    2  N   UNL     1      24.811  44.490  51.075  1.00  0.00    -0.266 N 
HETATM    3  O   UNL     1      25.284  44.673  48.840  1.00  0.00    -0.272 OA
HETATM    4  H   UNL     1      24.236  44.728  51.884  1.00  0.00     0.190 HD
ENDROOT
BRANCH   1   5
HETATM    5  C   UNL     1      23.142  45.466  49.645  1.00  0.00     0.139 C 
BRANCH   5   6
HETATM    6  C   UNL     1      23.183  46.801  48.904  1.00  0.00     0.185 C 
HETATM    7  N   UNL     1      21.834  47.198  48.503  1.00  0.00    -0.363 N 
HETATM    8  C   UNL     1      21.487  48.529  48.511  1.00  0.00     0.125 C 
HETATM    9  H   UNL     1      21.464  46.647  47.729  1.00  0.00     0.161 HD
HETATM   10  N   UNL     1      22.147  49.462  49.132  1.00  0.00    -0.159 NA
HETATM   11  N   UNL     1      23.274  49.099  49.803  1.00  0.00    -0.244 N 
HETATM   12  C   UNL     1      23.839  47.846  49.809  1.00  0.00     0.261 C 
HETATM   13  H   UNL     1      23.720  49.819  50.361  1.00  0.00     0.192 HD
HETATM   14  O   UNL     1      24.849  47.612  50.474  1.00  0.00    -0.269 OA
BRANCH   8  15
HETATM   15  C   UNL     1      20.238  48.947  47.740  1.00  0.00     0.118 C 
BRANCH  15  16
HETATM   16  C   UNL     1      19.512  50.113  48.369  1.00  0.00    -0.051 A 
HETATM   17  C   UNL     1      19.652  51.404  47.840  1.00  0.00     0.007 A 
HETATM   18  C   UNL     1      18.945  52.476  48.389  1.00  0.00     0.001 A 
HETATM   19  C   UNL     1      18.089  52.271  49.469  1.00  0.00     0.000 A 
HETATM   20  C   UNL     1      17.934  50.991  49.998  1.00  0.00     0.001 A 
HETATM   21  C   UNL     1      18.636  49.917  49.447  1.00  0.00     0.007 A 
ENDBRANCH  15  16
ENDBRANCH   8  15
ENDBRANCH   5   6
ENDBRANCH   1   5
BRANCH   2  22
HETATM   22  N   UNL     1      26.063  43.917  51.347  1.00  0.00    -0.249 N 
HETATM   23  C   UNL     1      26.652  44.258  52.556  1.00  0.00     0.339 C 
HETATM   24  N   UNL     1      27.900  43.693  52.688  1.00  0.00    -0.308 N 
HETATM   25  O   UNL     1      26.060  44.948  53.380  1.00  0.00    -0.245 OA
HETATM   26  H   UNL     1      28.156  43.035  51.966  1.00  0.00     0.170 HD
HETATM   27  H   UNL     1      26.642  43.757  50.526  1.00  0.00     0.192 HD
BRANCH  24  28
HETATM   28  C   UNL     1      28.789  43.818  53.776  1.00  0.00     0.038 A 
HETATM   29  C   UNL     1      28.671  44.789  54.774  1.00  0.00     0.055 A 
HETATM   30  C   UNL     1      29.593  44.843  55.828  1.00  0.00     0.058 A 
HETATM   31 CL   UNL     1      29.375  46.071  57.026  1.00  0.00    -0.082 Cl
HETATM   32  C   UNL     1      30.644  43.923  55.889  1.00  0.00     0.055 A 
HETATM   33 CL   UNL     1      31.814  43.927  57.159  1.00  0.00    -0.083 Cl
HETATM   34  C   UNL     1      30.771  42.956  54.890  1.00  0.00     0.028 A 
HETATM   35  C   UNL     1      29.850  42.906  53.840  1.00  0.00     0.031 A 
ENDBRANCH  24  28
ENDBRANCH   2  22
TORSDOF 6
ENDMDL
MODEL 10
REMARK VINA RESULT:      -8.5      2.978      4.110
REMARK  6 active torsions:
REMARK  status: ('A' for Active; 'I' for Inactive)
REMARK    1  A    between atoms: C_4  and  C_5 
REMARK    2  A    between atoms: C_5  and  C_6 
REMARK    3  A    between atoms: C_8  and  C_9 
REMARK    4  A    between atoms: C_9  and  C_10 
REMARK       I    between atoms: C_10  and  N_11 
REMARK    5  A    between atoms: N_11  and  N_12 
REMARK       I    between atoms: N_12  and  C_13 
REMARK       I    between atoms: C_13  and  N_14 
REMARK    6  A    between atoms: N_14  and  C_15 
ROOT
HETATM    1  C   UNL     1      21.713  45.958  48.188  1.00  0.00     0.238 C 
HETATM    2  N   UNL     1      22.311  45.458  49.325  1.00  0.00    -0.266 N 
HETATM    3  O   UNL     1      22.277  46.739  47.425  1.00  0.00    -0.272 OA
HETATM    4  H   UNL     1      21.828  44.901  50.030  1.00  0.00     0.190 HD
ENDROOT
BRANCH   1   5
HETATM    5  C   UNL     1      20.313  45.437  47.986  1.00  0.00     0.139 C 
BRANCH   5   6
HETATM    6  C   UNL     1      19.257  46.411  48.504  1.00  0.00     0.185 C 
HETATM    7  N   UNL     1      19.655  47.787  48.217  1.00  0.00    -0.363 N 
HETATM    8  C   UNL     1      18.695  48.720  47.899  1.00  0.00     0.125 C 
HETATM    9  H   UNL     1      20.418  48.119  48.807  1.00  0.00     0.161 HD
HETATM   10  N   UNL     1      17.481  48.435  47.529  1.00  0.00    -0.159 NA
HETATM   11  N   UNL     1      17.129  47.121  47.474  1.00  0.00    -0.244 N 
HETATM   12  C   UNL     1      17.911  46.062  47.866  1.00  0.00     0.261 C 
HETATM   13  H   UNL     1      16.214  46.914  47.089  1.00  0.00     0.192 HD
HETATM   14  O   UNL     1      17.509  44.903  47.750  1.00  0.00    -0.269 OA
BRANCH   8  15
HETATM   15  C   UNL     1      19.076  50.195  47.982  1.00  0.00     0.118 C 
BRANCH  15  16
HETATM   16  C   UNL     1      20.513  50.417  48.391  1.00  0.00    -0.051 A 
HETATM   17  C   UNL     1      21.545  50.294  47.449  1.00  0.00     0.007 A 
HETATM   18  C   UNL     1      22.870  50.545  47.812  1.00  0.00     0.001 A 
HETATM   19  C   UNL     1      23.179  50.925  49.117  1.00  0.00     0.000 A 
HETATM   20  C   UNL     1      22.161  51.060  50.059  1.00  0.00     0.001 A 
HETATM   21  C   UNL     1      20.836  50.815  49.697  1.00  0.00     0.007 A 
ENDBRANCH  15  16
ENDBRANCH   8  15
ENDBRANCH   5   6
ENDBRANCH   1   5
BRANCH   2  22
HETATM   22  N   UNL     1      23.613  45.872  49.644  1.00  0.00    -0.249 N 
HETATM   23  C   UNL     1      24.293  45.114  50.587  1.00  0.00     0.339 C 
HETATM   24  N   UNL     1      25.530  45.647  50.870  1.00  0.00    -0.308 N 
HETATM   25  O   UNL     1      23.809  44.081  51.040  1.00  0.00    -0.245 OA
HETATM   26  H   UNL     1      25.811  46.421  50.286  1.00  0.00     0.170 HD
HETATM   27  H   UNL     1      23.760  46.878  49.600  1.00  0.00     0.192 HD
BRANCH  24  28
HETATM   28  C   UNL     1      26.493  45.151  51.772  1.00  0.00     0.038 A 
HETATM   29  C   UNL     1      26.668  45.634  53.071  1.00  0.00     0.055 A 
HETATM   30  C   UNL     1      27.645  45.082  53.912  1.00  0.00     0.058 A 
HETATM   31 CL   UNL     1      27.795  45.732  55.508  1.00  0.00    -0.082 Cl
HETATM   32  C   UNL     1      28.457  44.041  53.454  1.00  0.00     0.055 A 
HETATM   33 CL   UNL     1      29.678  43.310  54.433  1.00  0.00    -0.083 Cl
HETATM   34  C   UNL     1      28.292  43.560  52.154  1.00  0.00     0.028 A 
HETATM   35  C   UNL     1      27.317  44.114  51.319  1.00  0.00     0.031 A 
ENDBRANCH  24  28
ENDBRANCH   2  22
TORSDOF 6
ENDMDL
