MODEL 1
REMARK VINA RESULT:      -8.4      0.000      0.000
REMARK  4 active torsions:
REMARK  status: ('A' for Active; 'I' for Inactive)
REMARK    1  A    between atoms: C_5  and  C_6 
REMARK    2  A    between atoms: C_6  and  N_7 
REMARK    3  A    between atoms: C_6  and  C_18 
REMARK    4  A    between atoms: N_7  and  C_8 
ROOT
HETATM    1  C   UNL     1      25.294  46.441  51.141  1.00  0.00     0.290 C 
ENDROOT
BRANCH   1   2
HETATM    2  C   UNL     1      25.548  47.610  50.205  1.00  0.00     0.021 A 
HETATM    3  C   UNL     1      26.829  48.114  49.925  1.00  0.00     0.055 A 
HETATM    4  C   UNL     1      26.987  49.177  49.038  1.00  0.00     0.117 A 
HETATM    5  C   UNL     1      25.896  49.756  48.403  1.00  0.00     0.045 A 
HETATM    6  F   UNL     1      28.218  49.647  48.797  1.00  0.00    -0.206 F 
HETATM    7  C   UNL     1      24.619  49.264  48.661  1.00  0.00     0.046 A 
HETATM    8  C   UNL     1      24.457  48.203  49.550  1.00  0.00     0.125 A 
HETATM    9  F   UNL     1      23.215  47.756  49.794  1.00  0.00    -0.205 F 
ENDBRANCH   1   2
BRANCH   1  10
HETATM   10  N   UNL     1      26.305  46.248  52.206  1.00  0.00     0.101 N 
HETATM   11  H   UNL     1      26.805  47.133  52.313  1.00  0.00     0.317 HD
BRANCH  10  12
HETATM   12  C   UNL     1      25.819  45.774  53.510  1.00  0.00     0.225 C 
HETATM   13  C   UNL     1      26.895  46.131  54.565  1.00  0.00     0.069 C 
HETATM   14  C   UNL     1      28.136  45.273  54.371  1.00  0.00     0.190 C 
HETATM   15  N   UNL     1      27.742  43.823  54.504  1.00  0.00    -0.067 N 
HETATM   16  C   UNL     1      29.221  45.375  55.424  1.00  0.00     0.035 C 
HETATM   17  H   UNL     1      27.272  43.698  55.411  1.00  0.00     0.280 HD
HETATM   18  C   UNL     1      26.785  43.400  53.435  1.00  0.00     0.237 C 
HETATM   19  C   UNL     1      29.044  43.073  54.598  1.00  0.00     0.235 C 
HETATM   20  C   UNL     1      25.528  44.258  53.568  1.00  0.00     0.063 C 
HETATM   21  C   UNL     1      30.008  44.077  55.232  1.00  0.00     0.030 C 
ENDBRANCH  10  12
ENDBRANCH   1  10
BRANCH   1  22
HETATM   22  C   UNL     1      25.090  45.116  50.411  1.00  0.00    -0.018 A 
HETATM   23  C   UNL     1      23.807  44.555  50.329  1.00  0.00     0.029 A 
HETATM   24  C   UNL     1      23.644  43.336  49.689  1.00  0.00     0.116 A 
HETATM   25  N   UNL     1      24.656  42.641  49.137  1.00  0.00    -0.273 NA
HETATM   26  C   UNL     1      25.885  43.189  49.214  1.00  0.00     0.116 A 
HETATM   27  C   UNL     1      26.150  44.401  49.836  1.00  0.00     0.029 A 
ENDBRANCH   1  22
TORSDOF 4
ENDMDL
MODEL 2
REMARK VINA RESULT:      -7.7     11.116     12.348
REMARK  4 active torsions:
REMARK  status: ('A' for Active; 'I' for Inactive)
REMARK    1  A    between atoms: C_5  and  C_6 
REMARK    2  A    between atoms: C_6  and  N_7 
REMARK    3  A    between atoms: C_6  and  C_18 
REMARK    4  A    between atoms: N_7  and  C_8 
ROOT
HETATM    1  C   UNL     1      29.458  49.571  40.671  1.00  0.00     0.290 C 
ENDROOT
BRANCH   1   2
HETATM    2  C   UNL     1      29.340  50.999  40.167  1.00  0.00     0.021 A 
HETATM    3  C   UNL     1      29.331  51.340  38.803  1.00  0.00     0.055 A 
HETATM    4  C   UNL     1      29.198  52.672  38.414  1.00  0.00     0.117 A 
HETATM    5  C   UNL     1      29.061  53.688  39.351  1.00  0.00     0.045 A 
HETATM    6  F   UNL     1      29.205  52.973  37.109  1.00  0.00    -0.206 F 
HETATM    7  C   UNL     1      29.057  53.368  40.706  1.00  0.00     0.046 A 
HETATM    8  C   UNL     1      29.193  52.037  41.100  1.00  0.00     0.125 A 
HETATM    9  F   UNL     1      29.202  51.755  42.411  1.00  0.00    -0.205 F 
ENDBRANCH   1   2
BRANCH   1  10
HETATM   10  N   UNL     1      30.754  48.906  40.401  1.00  0.00     0.101 N 
HETATM   11  H   UNL     1      31.390  49.619  40.041  1.00  0.00     0.317 HD
BRANCH  10  12
HETATM   12  C   UNL     1      31.376  48.180  41.517  1.00  0.00     0.225 C 
HETATM   13  C   UNL     1      31.266  49.077  42.774  1.00  0.00     0.069 C 
HETATM   14  C   UNL     1      32.181  50.286  42.647  1.00  0.00     0.190 C 
HETATM   15  N   UNL     1      33.599  49.798  42.481  1.00  0.00    -0.067 N 
HETATM   16  C   UNL     1      32.324  51.179  43.863  1.00  0.00     0.035 C 
HETATM   17  H   UNL     1      33.820  49.174  43.270  1.00  0.00     0.280 HD
HETATM   18  C   UNL     1      33.781  49.016  41.219  1.00  0.00     0.237 C 
HETATM   19  C   UNL     1      34.456  51.023  42.662  1.00  0.00     0.235 C 
HETATM   20  C   UNL     1      32.856  47.803  41.285  1.00  0.00     0.063 C 
HETATM   21  C   UNL     1      33.637  51.916  43.596  1.00  0.00     0.030 C 
ENDBRANCH  10  12
ENDBRANCH   1  10
BRANCH   1  22
HETATM   22  C   UNL     1      28.329  48.665  40.187  1.00  0.00    -0.018 A 
HETATM   23  C   UNL     1      27.053  48.772  40.761  1.00  0.00     0.029 A 
HETATM   24  C   UNL     1      26.047  47.920  40.331  1.00  0.00     0.116 A 
HETATM   25  N   UNL     1      26.220  46.976  39.387  1.00  0.00    -0.273 NA
HETATM   26  C   UNL     1      27.447  46.883  38.836  1.00  0.00     0.116 A 
HETATM   27  C   UNL     1      28.518  47.686  39.201  1.00  0.00     0.029 A 
ENDBRANCH   1  22
TORSDOF 4
ENDMDL
MODEL 3
REMARK VINA RESULT:      -7.7      1.865      2.788
REMARK  4 active torsions:
REMARK  status: ('A' for Active; 'I' for Inactive)
REMARK    1  A    between atoms: C_5  and  C_6 
REMARK    2  A    between atoms: C_6  and  N_7 
REMARK    3  A    between atoms: C_6  and  C_18 
REMARK    4  A    between atoms: N_7  and  C_8 
ROOT
HETATM    1  C   UNL     1      26.443  43.519  51.020  1.00  0.00     0.290 C 
ENDROOT
BRANCH   1   2
HETATM    2  C   UNL     1      26.280  44.999  50.718  1.00  0.00     0.021 A 
HETATM    3  C   UNL     1      27.128  45.710  49.851  1.00  0.00     0.055 A 
HETATM    4  C   UNL     1      26.904  47.063  49.604  1.00  0.00     0.117 A 
HETATM    5  C   UNL     1      25.842  47.738  50.193  1.00  0.00     0.045 A 
HETATM    6  F   UNL     1      27.733  47.722  48.784  1.00  0.00    -0.206 F 
HETATM    7  C   UNL     1      24.986  47.048  51.046  1.00  0.00     0.046 A 
HETATM    8  C   UNL     1      25.208  45.695  51.298  1.00  0.00     0.125 A 
HETATM    9  F   UNL     1      24.379  45.055  52.136  1.00  0.00    -0.205 F 
ENDBRANCH   1   2
BRANCH   1  10
HETATM   10  N   UNL     1      27.694  43.148  51.722  1.00  0.00     0.101 N 
HETATM   11  H   UNL     1      28.239  44.003  51.844  1.00  0.00     0.317 HD
BRANCH  10  12
HETATM   12  C   UNL     1      27.556  42.442  53.004  1.00  0.00     0.225 C 
HETATM   13  C   UNL     1      27.083  43.477  54.054  1.00  0.00     0.069 C 
HETATM   14  C   UNL     1      28.196  44.465  54.368  1.00  0.00     0.190 C 
HETATM   15  N   UNL     1      29.383  43.698  54.895  1.00  0.00    -0.067 N 
HETATM   16  C   UNL     1      27.957  45.442  55.502  1.00  0.00     0.035 C 
HETATM   17  H   UNL     1      29.072  43.133  55.698  1.00  0.00     0.280 HD
HETATM   18  C   UNL     1      29.947  42.762  53.873  1.00  0.00     0.237 C 
HETATM   19  C   UNL     1      30.308  44.747  55.452  1.00  0.00     0.235 C 
HETATM   20  C   UNL     1      28.852  41.764  53.501  1.00  0.00     0.063 C 
HETATM   21  C   UNL     1      29.373  45.879  55.882  1.00  0.00     0.030 C 
ENDBRANCH  10  12
ENDBRANCH   1  10
BRANCH   1  22
HETATM   22  C   UNL     1      26.288  42.631  49.789  1.00  0.00    -0.018 A 
HETATM   23  C   UNL     1      25.078  42.628  49.079  1.00  0.00     0.029 A 
HETATM   24  C   UNL     1      24.942  41.793  47.981  1.00  0.00     0.116 A 
HETATM   25  N   UNL     1      25.911  40.964  47.549  1.00  0.00    -0.273 NA
HETATM   26  C   UNL     1      27.072  40.976  48.232  1.00  0.00     0.116 A 
HETATM   27  C   UNL     1      27.304  41.773  49.344  1.00  0.00     0.029 A 
ENDBRANCH   1  22
TORSDOF 4
ENDMDL
MODEL 4
REMARK VINA RESULT:      -7.6      3.263      6.211
REMARK  4 active torsions:
REMARK  status: ('A' for Active; 'I' for Inactive)
REMARK    1  A    between atoms: C_5  and  C_6 
REMARK    2  A    between atoms: C_6  and  N_7 
REMARK    3  A    between atoms: C_6  and  C_18 
REMARK    4  A    between atoms: N_7  and  C_8 
ROOT
HETATM    1  C   UNL     1      26.145  43.828  51.260  1.00  0.00     0.290 C 
ENDROOT
BRANCH   1   2
HETATM    2  C   UNL     1      27.218  43.807  52.335  1.00  0.00     0.021 A 
HETATM    3  C   UNL     1      28.518  43.318  52.121  1.00  0.00     0.055 A 
HETATM    4  C   UNL     1      29.458  43.350  53.150  1.00  0.00     0.117 A 
HETATM    5  C   UNL     1      29.144  43.870  54.399  1.00  0.00     0.045 A 
HETATM    6  F   UNL     1      30.686  42.866  52.925  1.00  0.00    -0.206 F 
HETATM    7  C   UNL     1      27.864  44.368  54.626  1.00  0.00     0.046 A 
HETATM    8  C   UNL     1      26.920  44.335  53.601  1.00  0.00     0.125 A 
HETATM    9  F   UNL     1      25.689  44.807  53.848  1.00  0.00    -0.205 F 
ENDBRANCH   1   2
BRANCH   1  10
HETATM   10  N   UNL     1      26.361  42.898  50.127  1.00  0.00     0.101 N 
HETATM   11  H   UNL     1      27.362  42.702  50.083  1.00  0.00     0.317 HD
BRANCH  10  12
HETATM   12  C   UNL     1      25.593  41.645  50.138  1.00  0.00     0.225 C 
HETATM   13  C   UNL     1      26.514  40.541  50.714  1.00  0.00     0.069 C 
HETATM   14  C   UNL     1      27.628  40.210  49.731  1.00  0.00     0.190 C 
HETATM   15  N   UNL     1      27.004  39.742  48.440  1.00  0.00    -0.067 N 
HETATM   16  C   UNL     1      28.520  39.031  50.065  1.00  0.00     0.035 C 
HETATM   17  H   UNL     1      26.372  38.957  48.653  1.00  0.00     0.280 HD
HETATM   18  C   UNL     1      26.191  40.814  47.787  1.00  0.00     0.237 C 
HETATM   19  C   UNL     1      28.143  39.161  47.645  1.00  0.00     0.235 C 
HETATM   20  C   UNL     1      25.073  41.205  48.751  1.00  0.00     0.063 C 
HETATM   21  C   UNL     1      29.124  38.664  48.709  1.00  0.00     0.030 C 
ENDBRANCH  10  12
ENDBRANCH   1  10
BRANCH   1  22
HETATM   22  C   UNL     1      25.874  45.224  50.706  1.00  0.00    -0.018 A 
HETATM   23  C   UNL     1      26.890  45.915  50.029  1.00  0.00     0.029 A 
HETATM   24  C   UNL     1      26.638  47.194  49.558  1.00  0.00     0.116 A 
HETATM   25  N   UNL     1      25.462  47.831  49.717  1.00  0.00    -0.273 NA
HETATM   26  C   UNL     1      24.488  47.158  50.363  1.00  0.00     0.116 A 
HETATM   27  C   UNL     1      24.645  45.878  50.874  1.00  0.00     0.029 A 
ENDBRANCH   1  22
TORSDOF 4
ENDMDL
MODEL 5
REMARK VINA RESULT:      -7.6      4.717      7.756
REMARK  4 active torsions:
REMARK  status: ('A' for Active; 'I' for Inactive)
REMARK    1  A    between atoms: C_5  and  C_6 
REMARK    2  A    between atoms: C_6  and  N_7 
REMARK    3  A    between atoms: C_6  and  C_18 
REMARK    4  A    between atoms: N_7  and  C_8 
ROOT
HETATM    1  C   UNL     1      22.070  47.767  48.383  1.00  0.00     0.290 C 
ENDROOT
BRANCH   1   2
HETATM    2  C   UNL     1      23.471  48.308  48.605  1.00  0.00     0.021 A 
HETATM    3  C   UNL     1      24.439  47.655  49.386  1.00  0.00     0.055 A 
HETATM    4  C   UNL     1      25.714  48.202  49.527  1.00  0.00     0.117 A 
HETATM    5  C   UNL     1      26.063  49.390  48.897  1.00  0.00     0.045 A 
HETATM    6  F   UNL     1      26.615  47.567  50.287  1.00  0.00    -0.206 F 
HETATM    7  C   UNL     1      25.120  50.046  48.111  1.00  0.00     0.046 A 
HETATM    8  C   UNL     1      23.844  49.504  47.970  1.00  0.00     0.125 A 
HETATM    9  F   UNL     1      22.948  50.163  47.220  1.00  0.00    -0.205 F 
ENDBRANCH   1   2
BRANCH   1  10
HETATM   10  N   UNL     1      21.103  48.042  49.472  1.00  0.00     0.101 N 
HETATM   11  H   UNL     1      21.313  48.973  49.836  1.00  0.00     0.317 HD
BRANCH  10  12
HETATM   12  C   UNL     1      19.675  47.934  49.139  1.00  0.00     0.225 C 
HETATM   13  C   UNL     1      19.394  48.915  47.975  1.00  0.00     0.069 C 
HETATM   14  C   UNL     1      19.487  50.354  48.457  1.00  0.00     0.190 C 
HETATM   15  N   UNL     1      18.478  50.557  49.560  1.00  0.00    -0.067 N 
HETATM   16  C   UNL     1      19.073  51.440  47.485  1.00  0.00     0.035 C 
HETATM   17  H   UNL     1      17.551  50.283  49.204  1.00  0.00     0.280 HD
HETATM   18  C   UNL     1      18.773  49.707  50.756  1.00  0.00     0.237 C 
HETATM   19  C   UNL     1      18.424  52.046  49.770  1.00  0.00     0.235 C 
HETATM   20  C   UNL     1      18.722  48.246  50.314  1.00  0.00     0.063 C 
HETATM   21  C   UNL     1      18.781  52.629  48.402  1.00  0.00     0.030 C 
ENDBRANCH  10  12
ENDBRANCH   1  10
BRANCH   1  22
HETATM   22  C   UNL     1      22.042  46.274  48.067  1.00  0.00    -0.018 A 
HETATM   23  C   UNL     1      21.827  45.844  46.749  1.00  0.00     0.029 A 
HETATM   24  C   UNL     1      21.774  44.485  46.483  1.00  0.00     0.116 A 
HETATM   25  N   UNL     1      21.912  43.533  47.425  1.00  0.00    -0.273 NA
HETATM   26  C   UNL     1      22.125  43.954  48.688  1.00  0.00     0.116 A 
HETATM   27  C   UNL     1      22.190  45.290  49.055  1.00  0.00     0.029 A 
ENDBRANCH   1  22
TORSDOF 4
ENDMDL
MODEL 6
REMARK VINA RESULT:      -7.5      4.649      8.094
REMARK  4 active torsions:
REMARK  status: ('A' for Active; 'I' for Inactive)
REMARK    1  A    between atoms: C_5  and  C_6 
REMARK    2  A    between atoms: C_6  and  N_7 
REMARK    3  A    between atoms: C_6  and  C_18 
REMARK    4  A    between atoms: N_7  and  C_8 
ROOT
HETATM    1  C   UNL     1      22.448  48.523  48.833  1.00  0.00     0.290 C 
ENDROOT
BRANCH   1   2
HETATM    2  C   UNL     1      23.896  48.362  49.264  1.00  0.00     0.021 A 
HETATM    3  C   UNL     1      24.316  47.438  50.237  1.00  0.00     0.055 A 
HETATM    4  C   UNL     1      25.666  47.331  50.566  1.00  0.00     0.117 A 
HETATM    5  C   UNL     1      26.626  48.118  49.942  1.00  0.00     0.045 A 
HETATM    6  F   UNL     1      26.040  46.453  51.505  1.00  0.00    -0.206 F 
HETATM    7  C   UNL     1      26.230  49.032  48.969  1.00  0.00     0.046 A 
HETATM    8  C   UNL     1      24.880  49.144  48.639  1.00  0.00     0.125 A 
HETATM    9  F   UNL     1      24.521  50.042  47.710  1.00  0.00    -0.205 F 
ENDBRANCH   1   2
BRANCH   1  10
HETATM   10  N   UNL     1      21.585  49.275  49.773  1.00  0.00     0.101 N 
HETATM   11  H   UNL     1      21.953  49.119  50.713  1.00  0.00     0.317 HD
BRANCH  10  12
HETATM   12  C   UNL     1      21.419  50.714  49.522  1.00  0.00     0.225 C 
HETATM   13  C   UNL     1      20.091  51.151  50.187  1.00  0.00     0.069 C 
HETATM   14  C   UNL     1      18.902  50.570  49.437  1.00  0.00     0.190 C 
HETATM   15  N   UNL     1      18.951  51.057  48.011  1.00  0.00    -0.067 N 
HETATM   16  C   UNL     1      17.522  51.038  49.855  1.00  0.00     0.035 C 
HETATM   17  H   UNL     1      18.990  52.086  48.022  1.00  0.00     0.280 HD
HETATM   18  C   UNL     1      20.166  50.566  47.289  1.00  0.00     0.237 C 
HETATM   19  C   UNL     1      17.611  50.694  47.428  1.00  0.00     0.235 C 
HETATM   20  C   UNL     1      21.393  51.100  48.026  1.00  0.00     0.063 C 
HETATM   21  C   UNL     1      16.665  50.713  48.630  1.00  0.00     0.030 C 
ENDBRANCH  10  12
ENDBRANCH   1  10
BRANCH   1  22
HETATM   22  C   UNL     1      21.769  47.199  48.494  1.00  0.00    -0.018 A 
HETATM   23  C   UNL     1      20.414  47.010  48.806  1.00  0.00     0.029 A 
HETATM   24  C   UNL     1      19.820  45.791  48.519  1.00  0.00     0.116 A 
HETATM   25  N   UNL     1      20.472  44.756  47.956  1.00  0.00    -0.273 NA
HETATM   26  C   UNL     1      21.771  44.947  47.653  1.00  0.00     0.116 A 
HETATM   27  C   UNL     1      22.456  46.128  47.905  1.00  0.00     0.029 A 
ENDBRANCH   1  22
TORSDOF 4
ENDMDL
MODEL 7
REMARK VINA RESULT:      -7.3     16.975     18.478
REMARK  4 active torsions:
REMARK  status: ('A' for Active; 'I' for Inactive)
REMARK    1  A    between atoms: C_5  and  C_6 
REMARK    2  A    between atoms: C_6  and  N_7 
REMARK    3  A    between atoms: C_6  and  C_18 
REMARK    4  A    between atoms: N_7  and  C_8 
ROOT
HETATM    1  C   UNL     1      36.167  44.399  64.947  1.00  0.00     0.290 C 
ENDROOT
BRANCH   1   2
HETATM    2  C   UNL     1      37.115  43.328  64.437  1.00  0.00     0.021 A 
HETATM    3  C   UNL     1      37.235  42.056  65.024  1.00  0.00     0.055 A 
HETATM    4  C   UNL     1      38.112  41.116  64.487  1.00  0.00     0.117 A 
HETATM    5  C   UNL     1      38.877  41.400  63.363  1.00  0.00     0.045 A 
HETATM    6  F   UNL     1      38.218  39.916  65.072  1.00  0.00    -0.206 F 
HETATM    7  C   UNL     1      38.764  42.652  62.762  1.00  0.00     0.046 A 
HETATM    8  C   UNL     1      37.890  43.596  63.298  1.00  0.00     0.125 A 
HETATM    9  F   UNL     1      37.810  44.799  62.710  1.00  0.00    -0.205 F 
ENDBRANCH   1   2
BRANCH   1  10
HETATM   10  N   UNL     1      36.808  45.665  65.374  1.00  0.00     0.101 N 
HETATM   11  H   UNL     1      37.741  45.686  64.960  1.00  0.00     0.317 HD
BRANCH  10  12
HETATM   12  C   UNL     1      36.087  46.911  65.075  1.00  0.00     0.225 C 
HETATM   13  C   UNL     1      37.060  47.835  64.302  1.00  0.00     0.069 C 
HETATM   14  C   UNL     1      38.165  48.333  65.221  1.00  0.00     0.190 C 
HETATM   15  N   UNL     1      37.533  49.087  66.365  1.00  0.00    -0.067 N 
HETATM   16  C   UNL     1      39.106  49.384  64.668  1.00  0.00     0.035 C 
HETATM   17  H   UNL     1      36.935  49.828  65.972  1.00  0.00     0.280 HD
HETATM   18  C   UNL     1      36.668  48.206  67.210  1.00  0.00     0.237 C 
HETATM   19  C   UNL     1      38.677  49.788  67.048  1.00  0.00     0.235 C 
HETATM   20  C   UNL     1      35.556  47.654  66.320  1.00  0.00     0.063 C 
HETATM   21  C   UNL     1      39.697  50.015  65.930  1.00  0.00     0.030 C 
ENDBRANCH  10  12
ENDBRANCH   1  10
BRANCH   1  22
HETATM   22  C   UNL     1      35.251  43.910  66.066  1.00  0.00    -0.018 A 
HETATM   23  C   UNL     1      35.497  44.302  67.391  1.00  0.00     0.029 A 
HETATM   24  C   UNL     1      34.675  43.825  68.399  1.00  0.00     0.116 A 
HETATM   25  N   UNL     1      33.640  42.990  68.187  1.00  0.00    -0.273 NA
HETATM   26  C   UNL     1      33.405  42.623  66.912  1.00  0.00     0.116 A 
HETATM   27  C   UNL     1      34.173  43.043  65.835  1.00  0.00     0.029 A 
ENDBRANCH   1  22
TORSDOF 4
ENDMDL
MODEL 8
REMARK VINA RESULT:      -7.2     11.249     13.664
REMARK  4 active torsions:
REMARK  status: ('A' for Active; 'I' for Inactive)
REMARK    1  A    between atoms: C_5  and  C_6 
REMARK    2  A    between atoms: C_6  and  N_7 
REMARK    3  A    between atoms: C_6  and  C_18 
REMARK    4  A    between atoms: N_7  and  C_8 
ROOT
HETATM    1  C   UNL     1      30.545  50.366  41.087  1.00  0.00     0.290 C 
ENDROOT
BRANCH   1   2
HETATM    2  C   UNL     1      31.778  50.816  41.851  1.00  0.00     0.021 A 
HETATM    3  C   UNL     1      31.774  51.108  43.225  1.00  0.00     0.055 A 
HETATM    4  C   UNL     1      32.952  51.494  43.864  1.00  0.00     0.117 A 
HETATM    5  C   UNL     1      34.151  51.591  43.170  1.00  0.00     0.045 A 
HETATM    6  F   UNL     1      32.919  51.780  45.172  1.00  0.00    -0.206 F 
HETATM    7  C   UNL     1      34.177  51.295  41.810  1.00  0.00     0.046 A 
HETATM    8  C   UNL     1      33.001  50.911  41.167  1.00  0.00     0.125 A 
HETATM    9  F   UNL     1      33.047  50.647  39.853  1.00  0.00    -0.205 F 
ENDBRANCH   1   2
BRANCH   1  10
HETATM   10  N   UNL     1      30.689  49.097  40.337  1.00  0.00     0.101 N 
HETATM   11  H   UNL     1      31.688  48.940  40.195  1.00  0.00     0.317 HD
BRANCH  10  12
HETATM   12  C   UNL     1      30.061  47.903  40.919  1.00  0.00     0.225 C 
HETATM   13  C   UNL     1      29.955  46.840  39.799  1.00  0.00     0.069 C 
HETATM   14  C   UNL     1      28.920  47.256  38.765  1.00  0.00     0.190 C 
HETATM   15  N   UNL     1      27.589  47.413  39.457  1.00  0.00    -0.067 N 
HETATM   16  C   UNL     1      28.569  46.248  37.689  1.00  0.00     0.035 C 
HETATM   17  H   UNL     1      27.374  46.533  39.949  1.00  0.00     0.280 HD
HETATM   18  C   UNL     1      27.609  48.508  40.476  1.00  0.00     0.237 C 
HETATM   19  C   UNL     1      26.582  47.527  38.344  1.00  0.00     0.235 C 
HETATM   20  C   UNL     1      28.661  48.149  41.524  1.00  0.00     0.063 C 
HETATM   21  C   UNL     1      27.207  46.736  37.193  1.00  0.00     0.030 C 
ENDBRANCH  10  12
ENDBRANCH   1  10
BRANCH   1  22
HETATM   22  C   UNL     1      29.996  51.435  40.145  1.00  0.00    -0.018 A 
HETATM   23  C   UNL     1      29.729  52.723  40.632  1.00  0.00     0.029 A 
HETATM   24  C   UNL     1      29.202  53.673  39.771  1.00  0.00     0.116 A 
HETATM   25  N   UNL     1      28.918  53.434  38.477  1.00  0.00    -0.273 NA
HETATM   26  C   UNL     1      29.182  52.195  38.015  1.00  0.00     0.116 A 
HETATM   27  C   UNL     1      29.706  51.176  38.798  1.00  0.00     0.029 A 
ENDBRANCH   1  22
TORSDOF 4
ENDMDL
MODEL 9
REMARK VINA RESULT:      -7.1     17.164     19.887
REMARK  4 active torsions:
REMARK  status: ('A' for Active; 'I' for Inactive)
REMARK    1  A    between atoms: C_5  and  C_6 
REMARK    2  A    between atoms: C_6  and  N_7 
REMARK    3  A    between atoms: C_6  and  C_18 
REMARK    4  A    between atoms: N_7  and  C_8 
ROOT
HETATM    1  C   UNL     1      39.582  42.923  64.877  1.00  0.00     0.290 C 
ENDROOT
BRANCH   1   2
HETATM    2  C   UNL     1      39.662  41.510  64.324  1.00  0.00     0.021 A 
HETATM    3  C   UNL     1      39.446  41.195  62.972  1.00  0.00     0.055 A 
HETATM    4  C   UNL     1      39.557  39.877  62.532  1.00  0.00     0.117 A 
HETATM    5  C   UNL     1      39.891  38.850  63.406  1.00  0.00     0.045 A 
HETATM    6  F   UNL     1      39.335  39.600  61.241  1.00  0.00    -0.206 F 
HETATM    7  C   UNL     1      40.118  39.145  64.748  1.00  0.00     0.046 A 
HETATM    8  C   UNL     1      40.005  40.461  65.192  1.00  0.00     0.125 A 
HETATM    9  F   UNL     1      40.213  40.718  66.492  1.00  0.00    -0.205 F 
ENDBRANCH   1   2
BRANCH   1  10
HETATM   10  N   UNL     1      38.566  43.797  64.246  1.00  0.00     0.101 N 
HETATM   11  H   UNL     1      38.332  43.384  63.341  1.00  0.00     0.317 HD
BRANCH  10  12
HETATM   12  C   UNL     1      37.344  44.065  65.017  1.00  0.00     0.225 C 
HETATM   13  C   UNL     1      36.626  45.262  64.349  1.00  0.00     0.069 C 
HETATM   14  C   UNL     1      37.413  46.545  64.567  1.00  0.00     0.190 C 
HETATM   15  N   UNL     1      37.541  46.782  66.052  1.00  0.00    -0.067 N 
HETATM   16  C   UNL     1      36.765  47.841  64.124  1.00  0.00     0.035 C 
HETATM   17  H   UNL     1      36.597  46.783  66.461  1.00  0.00     0.280 HD
HETATM   18  C   UNL     1      38.327  45.702  66.728  1.00  0.00     0.237 C 
HETATM   19  C   UNL     1      38.057  48.191  66.179  1.00  0.00     0.235 C 
HETATM   20  C   UNL     1      37.590  44.383  66.509  1.00  0.00     0.063 C 
HETATM   21  C   UNL     1      37.521  48.897  64.932  1.00  0.00     0.030 C 
ENDBRANCH  10  12
ENDBRANCH   1  10
BRANCH   1  22
HETATM   22  C   UNL     1      40.925  43.648  64.874  1.00  0.00    -0.018 A 
HETATM   23  C   UNL     1      41.276  44.462  63.786  1.00  0.00     0.029 A 
HETATM   24  C   UNL     1      42.512  45.090  63.784  1.00  0.00     0.116 A 
HETATM   25  N   UNL     1      43.417  44.961  64.773  1.00  0.00    -0.273 NA
HETATM   26  C   UNL     1      43.070  44.183  65.817  1.00  0.00     0.116 A 
HETATM   27  C   UNL     1      41.860  43.511  65.910  1.00  0.00     0.029 A 
ENDBRANCH   1  22
TORSDOF 4
ENDMDL
MODEL 10
REMARK VINA RESULT:      -7.0      2.589      4.438
REMARK  4 active torsions:
REMARK  status: ('A' for Active; 'I' for Inactive)
REMARK    1  A    between atoms: C_5  and  C_6 
REMARK    2  A    between atoms: C_6  and  N_7 
REMARK    3  A    between atoms: C_6  and  C_18 
REMARK    4  A    between atoms: N_7  and  C_8 
ROOT
HETATM    1  C   UNL     1      26.678  42.250  51.084  1.00  0.00     0.290 C 
ENDROOT
BRANCH   1   2
HETATM    2  C   UNL     1      25.723  43.306  50.554  1.00  0.00     0.021 A 
HETATM    3  C   UNL     1      24.325  43.168  50.579  1.00  0.00     0.055 A 
HETATM    4  C   UNL     1      23.510  44.190  50.094  1.00  0.00     0.117 A 
HETATM    5  C   UNL     1      24.050  45.365  49.587  1.00  0.00     0.045 A 
HETATM    6  F   UNL     1      22.181  44.029  50.117  1.00  0.00    -0.206 F 
HETATM    7  C   UNL     1      25.433  45.524  49.564  1.00  0.00     0.046 A 
HETATM    8  C   UNL     1      26.251  44.503  50.046  1.00  0.00     0.125 A 
HETATM    9  F   UNL     1      27.581  44.673  49.999  1.00  0.00    -0.205 F 
ENDBRANCH   1   2
BRANCH   1  10
HETATM   10  N   UNL     1      27.747  42.751  51.978  1.00  0.00     0.101 N 
HETATM   11  H   UNL     1      27.753  43.770  51.902  1.00  0.00     0.317 HD
BRANCH  10  12
HETATM   12  C   UNL     1      27.683  42.343  53.389  1.00  0.00     0.225 C 
HETATM   13  C   UNL     1      26.906  43.441  54.155  1.00  0.00     0.069 C 
HETATM   14  C   UNL     1      27.731  44.716  54.242  1.00  0.00     0.190 C 
HETATM   15  N   UNL     1      29.022  44.403  54.956  1.00  0.00    -0.067 N 
HETATM   16  C   UNL     1      27.188  45.837  55.106  1.00  0.00     0.035 C 
HETATM   17  H   UNL     1      28.794  43.977  55.866  1.00  0.00     0.280 HD
HETATM   18  C   UNL     1      29.863  43.426  54.196  1.00  0.00     0.237 C 
HETATM   19  C   UNL     1      29.634  45.744  55.263  1.00  0.00     0.235 C 
HETATM   20  C   UNL     1      29.061  42.133  54.054  1.00  0.00     0.063 C 
HETATM   21  C   UNL     1      28.431  46.680  55.395  1.00  0.00     0.030 C 
ENDBRANCH  10  12
ENDBRANCH   1  10
BRANCH   1  22
HETATM   22  C   UNL     1      27.312  41.404  49.984  1.00  0.00    -0.018 A 
HETATM   23  C   UNL     1      28.147  40.329  50.324  1.00  0.00     0.029 A 
HETATM   24  C   UNL     1      28.741  39.590  49.313  1.00  0.00     0.116 A 
HETATM   25  N   UNL     1      28.571  39.846  48.002  1.00  0.00    -0.273 NA
HETATM   26  C   UNL     1      27.763  40.876  47.682  1.00  0.00     0.116 A 
HETATM   27  C   UNL     1      27.127  41.677  48.621  1.00  0.00     0.029 A 
ENDBRANCH   1  22
TORSDOF 4
ENDMDL
