MODEL 1
REMARK VINA RESULT:      -9.4      0.000      0.000
REMARK  6 active torsions:
REMARK  status: ('A' for Active; 'I' for Inactive)
REMARK    1  A    between atoms: C_2  and  O_3 
REMARK    2  A    between atoms: O_3  and  C_4 
REMARK    3  A    between atoms: C_13  and  C_14 
REMARK       I    between atoms: C_14  and  N_15 
REMARK    4  A    between atoms: N_15  and  N_16 
REMARK       I    between atoms: N_16  and  C_17 
REMARK    5  A    between atoms: C_17  and  C_18 
REMARK    6  A    between atoms: C_18  and  C_19 
ROOT
HETATM    1  C   UNL     1      29.627  42.983  54.443  1.00  0.00     0.069 A 
HETATM    2  C   UNL     1      28.743  44.061  54.475  1.00  0.00     0.050 A 
HETATM    3  C   UNL     1      28.005  44.426  53.334  1.00  0.00    -0.004 A 
HETATM    4  C   UNL     1      28.151  43.706  52.133  1.00  0.00     0.068 A 
HETATM    5  N   UNL     1      27.478  43.983  51.012  1.00  0.00    -0.240 NA
HETATM    6  C   UNL     1      26.622  45.021  51.086  1.00  0.00     0.111 A 
HETATM    7  C   UNL     1      26.386  45.822  52.194  1.00  0.00     0.028 A 
HETATM    8  C   UNL     1      27.110  45.503  53.362  1.00  0.00     0.030 A 
HETATM    9  S   UNL     1      25.689  45.472  49.738  1.00  0.00    -0.062 SA
HETATM   10  C   UNL     1      24.947  46.767  50.586  1.00  0.00     0.103 A 
HETATM   11  C   UNL     1      25.417  46.835  51.887  1.00  0.00     0.062 A 
HETATM   12  N   UNL     1      25.004  47.760  52.781  1.00  0.00    -0.397 N 
HETATM   13  C   UNL     1      29.047  42.648  52.121  1.00  0.00     0.035 A 
HETATM   14  C   UNL     1      29.785  42.278  53.256  1.00  0.00     0.039 A 
HETATM   15  H   UNL     1      24.395  48.529  52.489  1.00  0.00     0.156 HD
HETATM   16  H   UNL     1      25.457  47.914  53.675  1.00  0.00     0.156 HD
ENDROOT
BRANCH  10  17
HETATM   17  C   UNL     1      23.980  47.646  49.941  1.00  0.00     0.279 C 
HETATM   18  N   UNL     1      22.932  47.030  49.277  1.00  0.00    -0.263 N 
HETATM   19  H   UNL     1      22.841  46.018  49.205  1.00  0.00     0.190 HD
HETATM   20  O   UNL     1      24.059  48.878  49.963  1.00  0.00    -0.265 OA
BRANCH  18  21
HETATM   21  N   UNL     1      22.034  47.808  48.542  1.00  0.00    -0.267 N 
HETATM   22  C   UNL     1      20.745  47.345  48.375  1.00  0.00     0.240 C 
HETATM   23  O   UNL     1      20.367  46.260  48.815  1.00  0.00    -0.272 OA
HETATM   24  H   UNL     1      22.314  48.766  48.336  1.00  0.00     0.190 HD
BRANCH  22  25
HETATM   25  C   UNL     1      19.858  48.251  47.545  1.00  0.00     0.143 C 
BRANCH  25  26
HETATM   26  C   UNL     1      19.501  49.545  48.232  1.00  0.00    -0.049 A 
HETATM   27  C   UNL     1      18.776  49.541  49.432  1.00  0.00     0.007 A 
HETATM   28  C   UNL     1      18.468  50.741  50.075  1.00  0.00     0.001 A 
HETATM   29  C   UNL     1      18.881  51.954  49.527  1.00  0.00     0.000 A 
HETATM   30  C   UNL     1      19.602  51.969  48.334  1.00  0.00     0.001 A 
HETATM   31  C   UNL     1      19.911  50.771  47.689  1.00  0.00     0.007 A 
ENDBRANCH  25  26
ENDBRANCH  22  25
ENDBRANCH  18  21
ENDBRANCH  10  17
BRANCH   1  32
HETATM   32  O   UNL     1      30.267  42.731  55.623  1.00  0.00    -0.351 OA
BRANCH  32  33
HETATM   33  C   UNL     1      31.204  43.707  56.077  1.00  0.00     0.171 C 
HETATM   34  C   UNL     1      31.697  43.280  57.448  1.00  0.00     0.034 C 
ENDBRANCH  32  33
ENDBRANCH   1  32
TORSDOF 6
ENDMDL
MODEL 2
REMARK VINA RESULT:      -9.3      1.342      1.790
REMARK  6 active torsions:
REMARK  status: ('A' for Active; 'I' for Inactive)
REMARK    1  A    between atoms: C_2  and  O_3 
REMARK    2  A    between atoms: O_3  and  C_4 
REMARK    3  A    between atoms: C_13  and  C_14 
REMARK       I    between atoms: C_14  and  N_15 
REMARK    4  A    between atoms: N_15  and  N_16 
REMARK       I    between atoms: N_16  and  C_17 
REMARK    5  A    between atoms: C_17  and  C_18 
REMARK    6  A    between atoms: C_18  and  C_19 
ROOT
HETATM    1  C   UNL     1      29.976  43.933  55.310  1.00  0.00     0.069 A 
HETATM    2  C   UNL     1      28.982  44.866  55.018  1.00  0.00     0.050 A 
HETATM    3  C   UNL     1      28.262  44.804  53.811  1.00  0.00    -0.004 A 
HETATM    4  C   UNL     1      28.539  43.795  52.870  1.00  0.00     0.068 A 
HETATM    5  N   UNL     1      27.892  43.663  51.707  1.00  0.00    -0.240 NA
HETATM    6  C   UNL     1      26.928  44.573  51.469  1.00  0.00     0.111 A 
HETATM    7  C   UNL     1      26.557  45.623  52.296  1.00  0.00     0.028 A 
HETATM    8  C   UNL     1      27.257  45.735  53.516  1.00  0.00     0.030 A 
HETATM    9  S   UNL     1      26.014  44.512  50.036  1.00  0.00    -0.062 SA
HETATM   10  C   UNL     1      25.101  45.900  50.466  1.00  0.00     0.103 A 
HETATM   11  C   UNL     1      25.502  46.388  51.698  1.00  0.00     0.062 A 
HETATM   12  N   UNL     1      24.951  47.476  52.283  1.00  0.00    -0.397 N 
HETATM   13  C   UNL     1      29.542  42.887  53.175  1.00  0.00     0.035 A 
HETATM   14  C   UNL     1      30.261  42.942  54.378  1.00  0.00     0.039 A 
HETATM   15  H   UNL     1      24.278  48.055  51.774  1.00  0.00     0.156 HD
HETATM   16  H   UNL     1      25.345  47.928  53.101  1.00  0.00     0.156 HD
ENDROOT
BRANCH  10  17
HETATM   17  C   UNL     1      24.077  46.442  49.582  1.00  0.00     0.279 C 
HETATM   18  N   UNL     1      24.246  47.753  49.170  1.00  0.00    -0.263 N 
HETATM   19  H   UNL     1      25.022  48.335  49.481  1.00  0.00     0.190 HD
HETATM   20  O   UNL     1      23.095  45.795  49.202  1.00  0.00    -0.265 OA
BRANCH  18  21
HETATM   21  N   UNL     1      23.244  48.369  48.415  1.00  0.00    -0.267 N 
HETATM   22  C   UNL     1      22.985  49.706  48.633  1.00  0.00     0.240 C 
HETATM   23  O   UNL     1      23.573  50.366  49.489  1.00  0.00    -0.272 OA
HETATM   24  H   UNL     1      22.893  47.856  47.607  1.00  0.00     0.190 HD
BRANCH  22  25
HETATM   25  C   UNL     1      21.866  50.272  47.782  1.00  0.00     0.143 C 
BRANCH  25  26
HETATM   26  C   UNL     1      20.637  50.651  48.571  1.00  0.00    -0.049 A 
HETATM   27  C   UNL     1      20.094  49.770  49.516  1.00  0.00     0.007 A 
HETATM   28  C   UNL     1      18.970  50.135  50.258  1.00  0.00     0.001 A 
HETATM   29  C   UNL     1      18.379  51.382  50.065  1.00  0.00     0.000 A 
HETATM   30  C   UNL     1      18.911  52.266  49.127  1.00  0.00     0.001 A 
HETATM   31  C   UNL     1      20.034  51.903  48.383  1.00  0.00     0.007 A 
ENDBRANCH  25  26
ENDBRANCH  22  25
ENDBRANCH  18  21
ENDBRANCH  10  17
BRANCH   1  32
HETATM   32  O   UNL     1      30.584  44.101  56.521  1.00  0.00    -0.351 OA
BRANCH  32  33
HETATM   33  C   UNL     1      30.331  45.325  57.211  1.00  0.00     0.171 C 
HETATM   34  C   UNL     1      31.021  45.252  58.561  1.00  0.00     0.034 C 
ENDBRANCH  32  33
ENDBRANCH   1  32
TORSDOF 6
ENDMDL
MODEL 3
REMARK VINA RESULT:      -9.2      2.166     11.170
REMARK  6 active torsions:
REMARK  status: ('A' for Active; 'I' for Inactive)
REMARK    1  A    between atoms: C_2  and  O_3 
REMARK    2  A    between atoms: O_3  and  C_4 
REMARK    3  A    between atoms: C_13  and  C_14 
REMARK       I    between atoms: C_14  and  N_15 
REMARK    4  A    between atoms: N_15  and  N_16 
REMARK       I    between atoms: N_16  and  C_17 
REMARK    5  A    between atoms: C_17  and  C_18 
REMARK    6  A    between atoms: C_18  and  C_19 
ROOT
HETATM    1  C   UNL     1      19.858  49.923  47.808  1.00  0.00     0.069 A 
HETATM    2  C   UNL     1      20.366  48.637  47.988  1.00  0.00     0.050 A 
HETATM    3  C   UNL     1      21.667  48.435  48.484  1.00  0.00    -0.004 A 
HETATM    4  C   UNL     1      22.483  49.536  48.806  1.00  0.00     0.068 A 
HETATM    5  N   UNL     1      23.724  49.428  49.292  1.00  0.00    -0.240 NA
HETATM    6  C   UNL     1      24.173  48.170  49.467  1.00  0.00     0.111 A 
HETATM    7  C   UNL     1      23.487  46.998  49.185  1.00  0.00     0.028 A 
HETATM    8  C   UNL     1      22.181  47.146  48.674  1.00  0.00     0.030 A 
HETATM    9  S   UNL     1      25.728  47.886  50.096  1.00  0.00    -0.062 SA
HETATM   10  C   UNL     1      25.543  46.182  49.996  1.00  0.00     0.103 A 
HETATM   11  C   UNL     1      24.297  45.853  49.490  1.00  0.00     0.062 A 
HETATM   12  N   UNL     1      23.881  44.581  49.303  1.00  0.00    -0.397 N 
HETATM   13  C   UNL     1      21.962  50.806  48.604  1.00  0.00     0.035 A 
HETATM   14  C   UNL     1      20.665  51.013  48.111  1.00  0.00     0.039 A 
HETATM   15  H   UNL     1      24.528  43.798  49.430  1.00  0.00     0.156 HD
HETATM   16  H   UNL     1      23.041  44.337  48.789  1.00  0.00     0.156 HD
ENDROOT
BRANCH  10  17
HETATM   17  C   UNL     1      26.613  45.275  50.388  1.00  0.00     0.279 C 
HETATM   18  N   UNL     1      26.831  45.128  51.748  1.00  0.00    -0.263 N 
HETATM   19  H   UNL     1      26.303  45.641  52.452  1.00  0.00     0.190 HD
HETATM   20  O   UNL     1      27.311  44.654  49.579  1.00  0.00    -0.265 OA
BRANCH  18  21
HETATM   21  N   UNL     1      27.914  44.363  52.190  1.00  0.00    -0.267 N 
HETATM   22  C   UNL     1      27.890  43.872  53.479  1.00  0.00     0.240 C 
HETATM   23  O   UNL     1      26.973  44.111  54.265  1.00  0.00    -0.272 OA
HETATM   24  H   UNL     1      28.571  44.039  51.482  1.00  0.00     0.190 HD
BRANCH  22  25
HETATM   25  C   UNL     1      29.119  43.076  53.868  1.00  0.00     0.143 C 
BRANCH  25  26
HETATM   26  C   UNL     1      29.836  43.620  55.078  1.00  0.00    -0.049 A 
HETATM   27  C   UNL     1      29.586  44.923  55.532  1.00  0.00     0.007 A 
HETATM   28  C   UNL     1      30.236  45.412  56.666  1.00  0.00     0.001 A 
HETATM   29  C   UNL     1      31.140  44.607  57.357  1.00  0.00     0.000 A 
HETATM   30  C   UNL     1      31.396  43.311  56.914  1.00  0.00     0.001 A 
HETATM   31  C   UNL     1      30.748  42.818  55.780  1.00  0.00     0.007 A 
ENDBRANCH  25  26
ENDBRANCH  22  25
ENDBRANCH  18  21
ENDBRANCH  10  17
BRANCH   1  32
HETATM   32  O   UNL     1      18.578  49.973  47.333  1.00  0.00    -0.351 OA
BRANCH  32  33
HETATM   33  C   UNL     1      18.189  51.153  46.632  1.00  0.00     0.171 C 
HETATM   34  C   UNL     1      18.338  50.885  45.146  1.00  0.00     0.034 C 
ENDBRANCH  32  33
ENDBRANCH   1  32
TORSDOF 6
ENDMDL
MODEL 4
REMARK VINA RESULT:      -8.9      2.301     11.145
REMARK  6 active torsions:
REMARK  status: ('A' for Active; 'I' for Inactive)
REMARK    1  A    between atoms: C_2  and  O_3 
REMARK    2  A    between atoms: O_3  and  C_4 
REMARK    3  A    between atoms: C_13  and  C_14 
REMARK       I    between atoms: C_14  and  N_15 
REMARK    4  A    between atoms: N_15  and  N_16 
REMARK       I    between atoms: N_16  and  C_17 
REMARK    5  A    between atoms: C_17  and  C_18 
REMARK    6  A    between atoms: C_18  and  C_19 
ROOT
HETATM    1  C   UNL     1      18.667  50.586  47.569  1.00  0.00     0.069 A 
HETATM    2  C   UNL     1      19.154  49.280  47.610  1.00  0.00     0.050 A 
HETATM    3  C   UNL     1      20.429  48.998  48.132  1.00  0.00    -0.004 A 
HETATM    4  C   UNL     1      21.241  50.038  48.623  1.00  0.00     0.068 A 
HETATM    5  N   UNL     1      22.458  49.850  49.145  1.00  0.00    -0.240 NA
HETATM    6  C   UNL     1      22.887  48.574  49.181  1.00  0.00     0.111 A 
HETATM    7  C   UNL     1      22.202  47.457  48.725  1.00  0.00     0.028 A 
HETATM    8  C   UNL     1      20.921  47.687  48.182  1.00  0.00     0.030 A 
HETATM    9  S   UNL     1      24.409  48.190  49.835  1.00  0.00    -0.062 SA
HETATM   10  C   UNL     1      24.212  46.515  49.516  1.00  0.00     0.103 A 
HETATM   11  C   UNL     1      22.986  46.271  48.920  1.00  0.00     0.062 A 
HETATM   12  N   UNL     1      22.566  45.038  48.559  1.00  0.00    -0.397 N 
HETATM   13  C   UNL     1      20.742  51.330  48.559  1.00  0.00     0.035 A 
HETATM   14  C   UNL     1      19.471  51.617  48.040  1.00  0.00     0.039 A 
HETATM   15  H   UNL     1      23.199  44.236  48.615  1.00  0.00     0.156 HD
HETATM   16  H   UNL     1      21.748  44.873  47.982  1.00  0.00     0.156 HD
ENDROOT
BRANCH  10  17
HETATM   17  C   UNL     1      25.254  45.550  49.838  1.00  0.00     0.279 C 
HETATM   18  N   UNL     1      25.891  45.712  51.058  1.00  0.00    -0.263 N 
HETATM   19  H   UNL     1      25.679  46.477  51.695  1.00  0.00     0.190 HD
HETATM   20  O   UNL     1      25.581  44.624  49.088  1.00  0.00    -0.265 OA
BRANCH  18  21
HETATM   21  N   UNL     1      26.976  44.891  51.379  1.00  0.00    -0.267 N 
HETATM   22  C   UNL     1      26.808  43.931  52.354  1.00  0.00     0.240 C 
HETATM   23  O   UNL     1      25.755  43.792  52.977  1.00  0.00    -0.272 OA
HETATM   24  H   UNL     1      27.772  44.909  50.743  1.00  0.00     0.190 HD
BRANCH  22  25
HETATM   25  C   UNL     1      28.049  43.110  52.644  1.00  0.00     0.143 C 
BRANCH  25  26
HETATM   26  C   UNL     1      28.867  43.636  53.796  1.00  0.00    -0.049 A 
HETATM   27  C   UNL     1      28.520  44.837  54.431  1.00  0.00     0.007 A 
HETATM   28  C   UNL     1      29.268  45.307  55.512  1.00  0.00     0.001 A 
HETATM   29  C   UNL     1      30.368  44.583  55.969  1.00  0.00     0.000 A 
HETATM   30  C   UNL     1      30.722  43.388  55.344  1.00  0.00     0.001 A 
HETATM   31  C   UNL     1      29.976  42.916  54.263  1.00  0.00     0.007 A 
ENDBRANCH  25  26
ENDBRANCH  22  25
ENDBRANCH  18  21
ENDBRANCH  10  17
BRANCH   1  32
HETATM   32  O   UNL     1      17.410  50.714  47.050  1.00  0.00    -0.351 OA
BRANCH  32  33
HETATM   33  C   UNL     1      16.321  50.706  47.973  1.00  0.00     0.171 C 
HETATM   34  C   UNL     1      15.571  49.399  47.800  1.00  0.00     0.034 C 
ENDBRANCH  32  33
ENDBRANCH   1  32
TORSDOF 6
ENDMDL
MODEL 5
REMARK VINA RESULT:      -8.8      3.469      4.350
REMARK  6 active torsions:
REMARK  status: ('A' for Active; 'I' for Inactive)
REMARK    1  A    between atoms: C_2  and  O_3 
REMARK    2  A    between atoms: O_3  and  C_4 
REMARK    3  A    between atoms: C_13  and  C_14 
REMARK       I    between atoms: C_14  and  N_15 
REMARK    4  A    between atoms: N_15  and  N_16 
REMARK       I    between atoms: N_16  and  C_17 
REMARK    5  A    between atoms: C_17  and  C_18 
REMARK    6  A    between atoms: C_18  and  C_19 
ROOT
HETATM    1  C   UNL     1      27.317  38.981  49.329  1.00  0.00     0.069 A 
HETATM    2  C   UNL     1      27.457  40.182  50.025  1.00  0.00     0.050 A 
HETATM    3  C   UNL     1      26.646  41.291  49.726  1.00  0.00    -0.004 A 
HETATM    4  C   UNL     1      25.675  41.208  48.711  1.00  0.00     0.068 A 
HETATM    5  N   UNL     1      24.859  42.213  48.376  1.00  0.00    -0.240 NA
HETATM    6  C   UNL     1      25.014  43.350  49.081  1.00  0.00     0.111 A 
HETATM    7  C   UNL     1      25.933  43.577  50.095  1.00  0.00     0.028 A 
HETATM    8  C   UNL     1      26.778  42.498  50.426  1.00  0.00     0.030 A 
HETATM    9  S   UNL     1      24.030  44.702  48.771  1.00  0.00    -0.062 SA
HETATM   10  C   UNL     1      24.811  45.645  49.974  1.00  0.00     0.103 A 
HETATM   11  C   UNL     1      25.808  44.915  50.599  1.00  0.00     0.062 A 
HETATM   12  N   UNL     1      26.585  45.410  51.587  1.00  0.00    -0.397 N 
HETATM   13  C   UNL     1      25.563  40.009  48.023  1.00  0.00     0.035 A 
HETATM   14  C   UNL     1      26.368  38.899  48.317  1.00  0.00     0.039 A 
HETATM   15  H   UNL     1      26.537  46.400  51.841  1.00  0.00     0.156 HD
HETATM   16  H   UNL     1      27.414  44.939  51.935  1.00  0.00     0.156 HD
ENDROOT
BRANCH  10  17
HETATM   17  C   UNL     1      24.430  47.029  50.223  1.00  0.00     0.279 C 
HETATM   18  N   UNL     1      23.259  47.465  49.627  1.00  0.00    -0.263 N 
HETATM   19  H   UNL     1      22.696  46.875  49.017  1.00  0.00     0.190 HD
HETATM   20  O   UNL     1      25.093  47.802  50.923  1.00  0.00    -0.265 OA
BRANCH  18  21
HETATM   21  N   UNL     1      22.896  48.811  49.731  1.00  0.00    -0.267 N 
HETATM   22  C   UNL     1      22.421  49.453  48.607  1.00  0.00     0.240 C 
HETATM   23  O   UNL     1      22.339  48.900  47.510  1.00  0.00    -0.272 OA
HETATM   24  H   UNL     1      22.811  49.195  50.671  1.00  0.00     0.190 HD
BRANCH  22  25
HETATM   25  C   UNL     1      22.078  50.914  48.819  1.00  0.00     0.143 C 
BRANCH  25  26
HETATM   26  C   UNL     1      20.614  51.159  49.090  1.00  0.00    -0.049 A 
HETATM   27  C   UNL     1      19.917  52.160  48.398  1.00  0.00     0.007 A 
HETATM   28  C   UNL     1      18.557  52.367  48.637  1.00  0.00     0.001 A 
HETATM   29  C   UNL     1      17.882  51.577  49.566  1.00  0.00     0.000 A 
HETATM   30  C   UNL     1      18.566  50.580  50.259  1.00  0.00     0.001 A 
HETATM   31  C   UNL     1      19.925  50.371  50.023  1.00  0.00     0.007 A 
ENDBRANCH  25  26
ENDBRANCH  22  25
ENDBRANCH  18  21
ENDBRANCH  10  17
BRANCH   1  32
HETATM   32  O   UNL     1      28.158  37.983  49.731  1.00  0.00    -0.351 OA
BRANCH  32  33
HETATM   33  C   UNL     1      29.498  38.353  50.056  1.00  0.00     0.171 C 
HETATM   34  C   UNL     1      29.931  37.536  51.259  1.00  0.00     0.034 C 
ENDBRANCH  32  33
ENDBRANCH   1  32
TORSDOF 6
ENDMDL
MODEL 6
REMARK VINA RESULT:      -8.8      2.036     10.773
REMARK  6 active torsions:
REMARK  status: ('A' for Active; 'I' for Inactive)
REMARK    1  A    between atoms: C_2  and  O_3 
REMARK    2  A    between atoms: O_3  and  C_4 
REMARK    3  A    between atoms: C_13  and  C_14 
REMARK       I    between atoms: C_14  and  N_15 
REMARK    4  A    between atoms: N_15  and  N_16 
REMARK       I    between atoms: N_16  and  C_17 
REMARK    5  A    between atoms: C_17  and  C_18 
REMARK    6  A    between atoms: C_18  and  C_19 
ROOT
HETATM    1  C   UNL     1      19.692  50.044  47.660  1.00  0.00     0.069 A 
HETATM    2  C   UNL     1      20.986  50.038  48.179  1.00  0.00     0.050 A 
HETATM    3  C   UNL     1      21.675  48.831  48.394  1.00  0.00    -0.004 A 
HETATM    4  C   UNL     1      21.064  47.600  48.089  1.00  0.00     0.068 A 
HETATM    5  N   UNL     1      21.656  46.413  48.254  1.00  0.00    -0.240 NA
HETATM    6  C   UNL     1      22.911  46.449  48.742  1.00  0.00     0.111 A 
HETATM    7  C   UNL     1      23.630  47.582  49.095  1.00  0.00     0.028 A 
HETATM    8  C   UNL     1      22.979  48.819  48.908  1.00  0.00     0.030 A 
HETATM    9  S   UNL     1      23.788  45.012  48.984  1.00  0.00    -0.062 SA
HETATM   10  C   UNL     1      25.156  45.856  49.587  1.00  0.00     0.103 A 
HETATM   11  C   UNL     1      24.927  47.222  49.589  1.00  0.00     0.062 A 
HETATM   12  N   UNL     1      25.837  48.128  50.013  1.00  0.00    -0.397 N 
HETATM   13  C   UNL     1      19.770  47.629  47.588  1.00  0.00     0.035 A 
HETATM   14  C   UNL     1      19.079  48.830  47.371  1.00  0.00     0.039 A 
HETATM   15  H   UNL     1      26.706  47.823  50.459  1.00  0.00     0.156 HD
HETATM   16  H   UNL     1      25.619  49.107  50.167  1.00  0.00     0.156 HD
ENDROOT
BRANCH  10  17
HETATM   17  C   UNL     1      26.349  45.151  50.036  1.00  0.00     0.279 C 
HETATM   18  N   UNL     1      26.167  44.191  51.018  1.00  0.00    -0.263 N 
HETATM   19  H   UNL     1      25.260  43.997  51.440  1.00  0.00     0.190 HD
HETATM   20  O   UNL     1      27.479  45.371  49.589  1.00  0.00    -0.265 OA
BRANCH  18  21
HETATM   21  N   UNL     1      27.282  43.559  51.574  1.00  0.00    -0.267 N 
HETATM   22  C   UNL     1      27.568  43.782  52.905  1.00  0.00     0.240 C 
HETATM   23  O   UNL     1      26.904  44.541  53.610  1.00  0.00    -0.272 OA
HETATM   24  H   UNL     1      27.711  42.814  51.028  1.00  0.00     0.190 HD
BRANCH  22  25
HETATM   25  C   UNL     1      28.809  43.069  53.405  1.00  0.00     0.143 C 
BRANCH  25  26
HETATM   26  C   UNL     1      29.458  43.742  54.588  1.00  0.00    -0.049 A 
HETATM   27  C   UNL     1      28.972  44.964  55.073  1.00  0.00     0.007 A 
HETATM   28  C   UNL     1      29.563  45.570  56.183  1.00  0.00     0.001 A 
HETATM   29  C   UNL     1      30.644  44.962  56.819  1.00  0.00     0.000 A 
HETATM   30  C   UNL     1      31.136  43.747  56.345  1.00  0.00     0.001 A 
HETATM   31  C   UNL     1      30.548  43.139  55.235  1.00  0.00     0.007 A 
ENDBRANCH  25  26
ENDBRANCH  22  25
ENDBRANCH  18  21
ENDBRANCH  10  17
BRANCH   1  32
HETATM   32  O   UNL     1      19.147  51.285  47.490  1.00  0.00    -0.351 OA
BRANCH  32  33
HETATM   33  C   UNL     1      19.390  52.248  48.514  1.00  0.00     0.171 C 
HETATM   34  C   UNL     1      18.295  52.108  49.556  1.00  0.00     0.034 C 
ENDBRANCH  32  33
ENDBRANCH   1  32
TORSDOF 6
ENDMDL
MODEL 7
REMARK VINA RESULT:      -8.7      6.479      7.853
REMARK  6 active torsions:
REMARK  status: ('A' for Active; 'I' for Inactive)
REMARK    1  A    between atoms: C_2  and  O_3 
REMARK    2  A    between atoms: O_3  and  C_4 
REMARK    3  A    between atoms: C_13  and  C_14 
REMARK       I    between atoms: C_14  and  N_15 
REMARK    4  A    between atoms: N_15  and  N_16 
REMARK       I    between atoms: N_16  and  C_17 
REMARK    5  A    between atoms: C_17  and  C_18 
REMARK    6  A    between atoms: C_18  and  C_19 
ROOT
HETATM    1  C   UNL     1      30.316  44.125  55.345  1.00  0.00     0.069 A 
HETATM    2  C   UNL     1      30.312  43.036  54.473  1.00  0.00     0.050 A 
HETATM    3  C   UNL     1      29.246  42.829  53.579  1.00  0.00    -0.004 A 
HETATM    4  C   UNL     1      28.158  43.721  53.551  1.00  0.00     0.068 A 
HETATM    5  N   UNL     1      27.115  43.599  52.724  1.00  0.00    -0.240 NA
HETATM    6  C   UNL     1      27.155  42.544  51.887  1.00  0.00     0.111 A 
HETATM    7  C   UNL     1      28.153  41.583  51.811  1.00  0.00     0.028 A 
HETATM    8  C   UNL     1      29.240  41.741  52.696  1.00  0.00     0.030 A 
HETATM    9  S   UNL     1      25.901  42.279  50.768  1.00  0.00    -0.062 SA
HETATM   10  C   UNL     1      26.643  40.857  50.155  1.00  0.00     0.103 A 
HETATM   11  C   UNL     1      27.839  40.608  50.808  1.00  0.00     0.062 A 
HETATM   12  N   UNL     1      28.634  39.552  50.526  1.00  0.00    -0.397 N 
HETATM   13  C   UNL     1      28.177  44.788  54.437  1.00  0.00     0.035 A 
HETATM   14  C   UNL     1      29.237  45.001  55.330  1.00  0.00     0.039 A 
HETATM   15  H   UNL     1      28.321  38.822  49.881  1.00  0.00     0.156 HD
HETATM   16  H   UNL     1      29.422  39.277  51.103  1.00  0.00     0.156 HD
ENDROOT
BRANCH  10  17
HETATM   17  C   UNL     1      26.018  40.064  49.105  1.00  0.00     0.279 C 
HETATM   18  N   UNL     1      24.856  40.576  48.552  1.00  0.00    -0.263 N 
HETATM   19  H   UNL     1      24.428  41.443  48.871  1.00  0.00     0.190 HD
HETATM   20  O   UNL     1      26.472  38.987  48.703  1.00  0.00    -0.265 OA
BRANCH  18  21
HETATM   21  N   UNL     1      24.146  39.813  47.621  1.00  0.00    -0.267 N 
HETATM   22  C   UNL     1      22.844  40.169  47.336  1.00  0.00     0.240 C 
HETATM   23  O   UNL     1      22.273  41.106  47.894  1.00  0.00    -0.272 OA
HETATM   24  H   UNL     1      24.682  39.157  47.055  1.00  0.00     0.190 HD
BRANCH  22  25
HETATM   25  C   UNL     1      22.155  39.265  46.334  1.00  0.00     0.143 C 
BRANCH  25  26
HETATM   26  C   UNL     1      21.177  38.301  46.959  1.00  0.00    -0.049 A 
HETATM   27  C   UNL     1      19.876  38.710  47.281  1.00  0.00     0.007 A 
HETATM   28  C   UNL     1      18.969  37.807  47.838  1.00  0.00     0.001 A 
HETATM   29  C   UNL     1      19.353  36.489  48.079  1.00  0.00     0.000 A 
HETATM   30  C   UNL     1      20.645  36.072  47.763  1.00  0.00     0.001 A 
HETATM   31  C   UNL     1      21.554  36.973  47.205  1.00  0.00     0.007 A 
ENDBRANCH  25  26
ENDBRANCH  22  25
ENDBRANCH  18  21
ENDBRANCH  10  17
BRANCH   1  32
HETATM   32  O   UNL     1      31.417  44.213  56.148  1.00  0.00    -0.351 OA
BRANCH  32  33
HETATM   33  C   UNL     1      31.284  43.747  57.490  1.00  0.00     0.171 C 
HETATM   34  C   UNL     1      31.074  44.953  58.386  1.00  0.00     0.034 C 
ENDBRANCH  32  33
ENDBRANCH   1  32
TORSDOF 6
ENDMDL
MODEL 8
REMARK VINA RESULT:      -8.3      6.799     11.112
REMARK  6 active torsions:
REMARK  status: ('A' for Active; 'I' for Inactive)
REMARK    1  A    between atoms: C_2  and  O_3 
REMARK    2  A    between atoms: O_3  and  C_4 
REMARK    3  A    between atoms: C_13  and  C_14 
REMARK       I    between atoms: C_14  and  N_15 
REMARK    4  A    between atoms: N_15  and  N_16 
REMARK       I    between atoms: N_16  and  C_17 
REMARK    5  A    between atoms: C_17  and  C_18 
REMARK    6  A    between atoms: C_18  and  C_19 
ROOT
HETATM    1  C   UNL     1      28.671  36.612  43.743  1.00  0.00     0.069 A 
HETATM    2  C   UNL     1      28.836  36.527  45.125  1.00  0.00     0.050 A 
HETATM    3  C   UNL     1      28.554  37.625  45.957  1.00  0.00    -0.004 A 
HETATM    4  C   UNL     1      28.101  38.838  45.404  1.00  0.00     0.068 A 
HETATM    5  N   UNL     1      27.801  39.921  46.128  1.00  0.00    -0.240 NA
HETATM    6  C   UNL     1      27.958  39.795  47.460  1.00  0.00     0.111 A 
HETATM    7  C   UNL     1      28.405  38.670  48.138  1.00  0.00     0.028 A 
HETATM    8  C   UNL     1      28.711  37.544  47.347  1.00  0.00     0.030 A 
HETATM    9  S   UNL     1      27.596  41.090  48.501  1.00  0.00    -0.062 SA
HETATM   10  C   UNL     1      28.041  40.195  49.897  1.00  0.00     0.103 A 
HETATM   11  C   UNL     1      28.454  38.920  49.550  1.00  0.00     0.062 A 
HETATM   12  N   UNL     1      28.861  37.999  50.452  1.00  0.00    -0.397 N 
HETATM   13  C   UNL     1      27.958  38.904  44.026  1.00  0.00     0.035 A 
HETATM   14  C   UNL     1      28.236  37.811  43.192  1.00  0.00     0.039 A 
HETATM   15  H   UNL     1      28.986  38.253  51.435  1.00  0.00     0.156 HD
HETATM   16  H   UNL     1      29.313  37.127  50.194  1.00  0.00     0.156 HD
ENDROOT
BRANCH  10  17
HETATM   17  C   UNL     1      27.985  40.783  51.229  1.00  0.00     0.279 C 
HETATM   18  N   UNL     1      26.913  41.621  51.490  1.00  0.00    -0.263 N 
HETATM   19  H   UNL     1      26.209  41.852  50.791  1.00  0.00     0.190 HD
HETATM   20  O   UNL     1      28.831  40.569  52.103  1.00  0.00    -0.265 OA
BRANCH  18  21
HETATM   21  N   UNL     1      26.860  42.306  52.706  1.00  0.00    -0.267 N 
HETATM   22  C   UNL     1      27.296  43.615  52.744  1.00  0.00     0.240 C 
HETATM   23  O   UNL     1      27.763  44.188  51.761  1.00  0.00    -0.272 OA
HETATM   24  H   UNL     1      26.320  41.876  53.456  1.00  0.00     0.190 HD
BRANCH  22  25
HETATM   25  C   UNL     1      27.219  44.260  54.113  1.00  0.00     0.143 C 
BRANCH  25  26
HETATM   26  C   UNL     1      28.549  44.346  54.818  1.00  0.00    -0.049 A 
HETATM   27  C   UNL     1      28.896  45.487  55.556  1.00  0.00     0.007 A 
HETATM   28  C   UNL     1      30.120  45.551  56.225  1.00  0.00     0.001 A 
HETATM   29  C   UNL     1      31.007  44.478  56.164  1.00  0.00     0.000 A 
HETATM   30  C   UNL     1      30.673  43.339  55.433  1.00  0.00     0.001 A 
HETATM   31  C   UNL     1      29.450  43.272  54.763  1.00  0.00     0.007 A 
ENDBRANCH  25  26
ENDBRANCH  22  25
ENDBRANCH  18  21
ENDBRANCH  10  17
BRANCH   1  32
HETATM   32  O   UNL     1      28.967  35.468  43.058  1.00  0.00    -0.351 OA
BRANCH  32  33
HETATM   33  C   UNL     1      29.820  35.593  41.920  1.00  0.00     0.171 C 
HETATM   34  C   UNL     1      31.241  35.780  42.418  1.00  0.00     0.034 C 
ENDBRANCH  32  33
ENDBRANCH   1  32
TORSDOF 6
ENDMDL
MODEL 9
REMARK VINA RESULT:      -8.3      2.929      4.134
REMARK  6 active torsions:
REMARK  status: ('A' for Active; 'I' for Inactive)
REMARK    1  A    between atoms: C_2  and  O_3 
REMARK    2  A    between atoms: O_3  and  C_4 
REMARK    3  A    between atoms: C_13  and  C_14 
REMARK       I    between atoms: C_14  and  N_15 
REMARK    4  A    between atoms: N_15  and  N_16 
REMARK       I    between atoms: N_16  and  C_17 
REMARK    5  A    between atoms: C_17  and  C_18 
REMARK    6  A    between atoms: C_18  and  C_19 
ROOT
HETATM    1  C   UNL     1      27.941  39.864  50.346  1.00  0.00     0.069 A 
HETATM    2  C   UNL     1      26.969  40.500  49.574  1.00  0.00     0.050 A 
HETATM    3  C   UNL     1      26.543  41.806  49.877  1.00  0.00    -0.004 A 
HETATM    4  C   UNL     1      27.094  42.496  50.975  1.00  0.00     0.068 A 
HETATM    5  N   UNL     1      26.751  43.741  51.320  1.00  0.00    -0.240 NA
HETATM    6  C   UNL     1      25.821  44.327  50.541  1.00  0.00     0.111 A 
HETATM    7  C   UNL     1      25.188  43.767  49.442  1.00  0.00     0.028 A 
HETATM    8  C   UNL     1      25.572  42.453  49.101  1.00  0.00     0.030 A 
HETATM    9  S   UNL     1      25.305  45.917  50.857  1.00  0.00    -0.062 SA
HETATM   10  C   UNL     1      24.203  45.905  49.540  1.00  0.00     0.103 A 
HETATM   11  C   UNL     1      24.248  44.691  48.876  1.00  0.00     0.062 A 
HETATM   12  N   UNL     1      23.484  44.404  47.798  1.00  0.00    -0.397 N 
HETATM   13  C   UNL     1      28.048  41.837  51.736  1.00  0.00     0.035 A 
HETATM   14  C   UNL     1      28.477  40.536  51.437  1.00  0.00     0.039 A 
HETATM   15  H   UNL     1      22.750  45.049  47.495  1.00  0.00     0.156 HD
HETATM   16  H   UNL     1      23.395  43.471  47.409  1.00  0.00     0.156 HD
ENDROOT
BRANCH  10  17
HETATM   17  C   UNL     1      23.354  47.052  49.247  1.00  0.00     0.279 C 
HETATM   18  N   UNL     1      23.815  48.287  49.672  1.00  0.00    -0.263 N 
HETATM   19  H   UNL     1      24.683  48.404  50.192  1.00  0.00     0.190 HD
HETATM   20  O   UNL     1      22.274  46.965  48.653  1.00  0.00    -0.265 OA
BRANCH  18  21
HETATM   21  N   UNL     1      22.999  49.411  49.524  1.00  0.00    -0.267 N 
HETATM   22  C   UNL     1      23.104  50.152  48.365  1.00  0.00     0.240 C 
HETATM   23  O   UNL     1      23.912  49.885  47.476  1.00  0.00    -0.272 OA
HETATM   24  H   UNL     1      22.230  49.514  50.184  1.00  0.00     0.190 HD
BRANCH  22  25
HETATM   25  C   UNL     1      22.194  51.363  48.313  1.00  0.00     0.143 C 
BRANCH  25  26
HETATM   26  C   UNL     1      20.727  51.015  48.263  1.00  0.00    -0.049 A 
HETATM   27  C   UNL     1      20.253  50.036  47.378  1.00  0.00     0.007 A 
HETATM   28  C   UNL     1      18.898  49.703  47.353  1.00  0.00     0.001 A 
HETATM   29  C   UNL     1      18.004  50.344  48.209  1.00  0.00     0.000 A 
HETATM   30  C   UNL     1      18.464  51.319  49.092  1.00  0.00     0.001 A 
HETATM   31  C   UNL     1      19.819  51.654  49.120  1.00  0.00     0.007 A 
ENDBRANCH  25  26
ENDBRANCH  22  25
ENDBRANCH  18  21
ENDBRANCH  10  17
BRANCH   1  32
HETATM   32  O   UNL     1      28.269  38.605  49.931  1.00  0.00    -0.351 OA
BRANCH  32  33
HETATM   33  C   UNL     1      29.652  38.251  49.957  1.00  0.00     0.171 C 
HETATM   34  C   UNL     1      29.857  37.248  51.077  1.00  0.00     0.034 C 
ENDBRANCH  32  33
ENDBRANCH   1  32
TORSDOF 6
ENDMDL
MODEL 10
REMARK VINA RESULT:      -8.2      6.759      9.874
REMARK  6 active torsions:
REMARK  status: ('A' for Active; 'I' for Inactive)
REMARK    1  A    between atoms: C_2  and  O_3 
REMARK    2  A    between atoms: O_3  and  C_4 
REMARK    3  A    between atoms: C_13  and  C_14 
REMARK       I    between atoms: C_14  and  N_15 
REMARK    4  A    between atoms: N_15  and  N_16 
REMARK       I    between atoms: N_16  and  C_17 
REMARK    5  A    between atoms: C_17  and  C_18 
REMARK    6  A    between atoms: C_18  and  C_19 
ROOT
HETATM    1  C   UNL     1      29.825  45.263  55.990  1.00  0.00     0.069 A 
HETATM    2  C   UNL     1      29.999  44.079  55.274  1.00  0.00     0.050 A 
HETATM    3  C   UNL     1      29.096  43.706  54.262  1.00  0.00    -0.004 A 
HETATM    4  C   UNL     1      27.993  44.525  53.956  1.00  0.00     0.068 A 
HETATM    5  N   UNL     1      27.099  44.246  53.002  1.00  0.00    -0.240 NA
HETATM    6  C   UNL     1      27.309  43.102  52.322  1.00  0.00     0.111 A 
HETATM    7  C   UNL     1      28.341  42.197  52.522  1.00  0.00     0.028 A 
HETATM    8  C   UNL     1      29.269  42.521  53.534  1.00  0.00     0.030 A 
HETATM    9  S   UNL     1      26.258  42.634  51.070  1.00  0.00    -0.062 SA
HETATM   10  C   UNL     1      27.140  41.193  50.762  1.00  0.00     0.103 A 
HETATM   11  C   UNL     1      28.226  41.092  51.615  1.00  0.00     0.062 A 
HETATM   12  N   UNL     1      29.095  40.056  51.594  1.00  0.00    -0.397 N 
HETATM   13  C   UNL     1      27.832  45.690  54.691  1.00  0.00     0.035 A 
HETATM   14  C   UNL     1      28.730  46.068  55.700  1.00  0.00     0.039 A 
HETATM   15  H   UNL     1      28.914  39.238  51.008  1.00  0.00     0.156 HD
HETATM   16  H   UNL     1      29.791  39.898  52.315  1.00  0.00     0.156 HD
ENDROOT
BRANCH  10  17
HETATM   17  C   UNL     1      26.718  40.246  49.739  1.00  0.00     0.279 C 
HETATM   18  N   UNL     1      26.421  38.963  50.168  1.00  0.00    -0.263 N 
HETATM   19  H   UNL     1      26.517  38.668  51.139  1.00  0.00     0.190 HD
HETATM   20  O   UNL     1      26.620  40.536  48.542  1.00  0.00    -0.265 OA
BRANCH  18  21
HETATM   21  N   UNL     1      26.121  37.976  49.225  1.00  0.00    -0.267 N 
HETATM   22  C   UNL     1      27.142  37.168  48.771  1.00  0.00     0.240 C 
HETATM   23  O   UNL     1      28.310  37.305  49.135  1.00  0.00    -0.272 OA
HETATM   24  H   UNL     1      25.135  37.772  49.068  1.00  0.00     0.190 HD
BRANCH  22  25
HETATM   25  C   UNL     1      26.718  36.148  47.734  1.00  0.00     0.143 C 
BRANCH  25  26
HETATM   26  C   UNL     1      27.457  36.269  46.426  1.00  0.00    -0.049 A 
HETATM   27  C   UNL     1      27.516  37.495  45.748  1.00  0.00     0.007 A 
HETATM   28  C   UNL     1      28.221  37.606  44.549  1.00  0.00     0.001 A 
HETATM   29  C   UNL     1      28.874  36.497  44.015  1.00  0.00     0.000 A 
HETATM   30  C   UNL     1      28.822  35.273  44.681  1.00  0.00     0.001 A 
HETATM   31  C   UNL     1      28.117  35.158  45.880  1.00  0.00     0.007 A 
ENDBRANCH  25  26
ENDBRANCH  22  25
ENDBRANCH  18  21
ENDBRANCH  10  17
BRANCH   1  32
HETATM   32  O   UNL     1      30.782  45.509  56.933  1.00  0.00    -0.351 OA
BRANCH  32  33
HETATM   33  C   UNL     1      30.957  44.527  57.954  1.00  0.00     0.171 C 
HETATM   34  C   UNL     1      32.054  43.579  57.509  1.00  0.00     0.034 C 
ENDBRANCH  32  33
ENDBRANCH   1  32
TORSDOF 6
ENDMDL
