MODEL 1
REMARK VINA RESULT:      -8.8      0.000      0.000
REMARK  4 active torsions:
REMARK  status: ('A' for Active; 'I' for Inactive)
REMARK    1  A    between atoms: C_6  and  N_7 
REMARK       I    between atoms: N_7  and  C_8 
REMARK    2  A    between atoms: C_8  and  C_9 
REMARK    3  A    between atoms: C_9  and  S_10 
REMARK    4  A    between atoms: S_10  and  C_11 
ROOT
HETATM    1  C   UNL     1      31.804  43.573  57.419  1.00  0.00     0.001 A 
HETATM    2  C   UNL     1      31.190  43.297  56.201  1.00  0.00     0.018 A 
HETATM    3  C   UNL     1      30.173  44.139  55.717  1.00  0.00     0.049 A 
HETATM    4  C   UNL     1      29.759  45.250  56.449  1.00  0.00     0.024 A 
HETATM    5  S   UNL     1      28.466  46.362  55.961  1.00  0.00    -0.053 SA
HETATM    6  C   UNL     1      28.064  45.759  54.393  1.00  0.00     0.154 A 
HETATM    7  N   UNL     1      28.600  44.685  53.871  1.00  0.00    -0.303 N 
HETATM    8  H   UNL     1      28.264  44.413  52.947  1.00  0.00     0.171 HD
HETATM    9  C   UNL     1      29.572  43.828  54.417  1.00  0.00     0.259 A 
HETATM   10  O   UNL     1      29.871  42.861  53.742  1.00  0.00    -0.267 OA
HETATM   11  C   UNL     1      30.391  45.515  57.674  1.00  0.00     0.020 A 
HETATM   12  C   UNL     1      31.407  44.685  58.155  1.00  0.00     0.001 A 
ENDROOT
BRANCH   6  13
HETATM   13  N   UNL     1      27.163  46.475  53.758  1.00  0.00    -0.306 N 
HETATM   14  C   UNL     1      26.106  45.996  52.936  1.00  0.00     0.233 C 
HETATM   15  O   UNL     1      26.016  44.781  52.820  1.00  0.00    -0.272 OA
HETATM   16  H   UNL     1      27.207  47.474  53.933  1.00  0.00     0.171 HD
BRANCH  14  17
HETATM   17  C   UNL     1      25.178  46.992  52.273  1.00  0.00     0.184 C 
BRANCH  17  18
HETATM   18  S   UNL     1      24.759  46.560  50.552  1.00  0.00    -0.101 SA
BRANCH  18  19
HETATM   19  C   UNL     1      25.564  47.900  49.701  1.00  0.00     0.093 A 
HETATM   20  N   UNL     1      24.742  48.810  49.124  1.00  0.00    -0.254 NA
HETATM   21  C   UNL     1      25.341  49.837  48.472  1.00  0.00     0.118 A 
HETATM   22  C   UNL     1      26.713  50.018  48.411  1.00  0.00     0.019 A 
HETATM   23  C   UNL     1      27.526  49.091  49.051  1.00  0.00     0.004 A 
HETATM   24  C   UNL     1      26.946  48.011  49.710  1.00  0.00     0.039 A 
ENDBRANCH  18  19
ENDBRANCH  17  18
ENDBRANCH  14  17
ENDBRANCH   6  13
TORSDOF 4
ENDMDL
MODEL 2
REMARK VINA RESULT:      -8.5      2.006      2.679
REMARK  4 active torsions:
REMARK  status: ('A' for Active; 'I' for Inactive)
REMARK    1  A    between atoms: C_6  and  N_7 
REMARK       I    between atoms: N_7  and  C_8 
REMARK    2  A    between atoms: C_8  and  C_9 
REMARK    3  A    between atoms: C_9  and  S_10 
REMARK    4  A    between atoms: S_10  and  C_11 
ROOT
HETATM    1  C   UNL     1      31.086  44.909  57.741  1.00  0.00     0.001 A 
HETATM    2  C   UNL     1      30.046  45.636  57.168  1.00  0.00     0.018 A 
HETATM    3  C   UNL     1      29.437  45.182  55.985  1.00  0.00     0.049 A 
HETATM    4  C   UNL     1      29.869  44.011  55.365  1.00  0.00     0.024 A 
HETATM    5  S   UNL     1      29.205  43.358  53.855  1.00  0.00    -0.053 SA
HETATM    6  C   UNL     1      27.902  44.450  53.549  1.00  0.00     0.154 A 
HETATM    7  N   UNL     1      27.652  45.503  54.285  1.00  0.00    -0.303 N 
HETATM    8  H   UNL     1      26.869  46.088  53.991  1.00  0.00     0.171 HD
HETATM    9  C   UNL     1      28.328  45.962  55.429  1.00  0.00     0.259 A 
HETATM   10  O   UNL     1      27.921  47.004  55.907  1.00  0.00    -0.267 OA
HETATM   11  C   UNL     1      30.916  43.289  55.959  1.00  0.00     0.020 A 
HETATM   12  C   UNL     1      31.519  43.733  57.138  1.00  0.00     0.001 A 
ENDROOT
BRANCH   6  13
HETATM   13  N   UNL     1      27.173  44.135  52.501  1.00  0.00    -0.306 N 
HETATM   14  C   UNL     1      25.761  43.974  52.451  1.00  0.00     0.233 C 
HETATM   15  O   UNL     1      25.155  44.165  53.497  1.00  0.00    -0.272 OA
HETATM   16  H   UNL     1      27.686  44.062  51.629  1.00  0.00     0.171 HD
BRANCH  14  17
HETATM   17  C   UNL     1      25.109  43.588  51.140  1.00  0.00     0.184 C 
BRANCH  17  18
HETATM   18  S   UNL     1      26.116  44.006  49.678  1.00  0.00    -0.101 SA
BRANCH  18  19
HETATM   19  C   UNL     1      25.861  45.766  49.630  1.00  0.00     0.093 A 
HETATM   20  N   UNL     1      26.973  46.519  49.453  1.00  0.00    -0.254 NA
HETATM   21  C   UNL     1      26.795  47.862  49.415  1.00  0.00     0.118 A 
HETATM   22  C   UNL     1      25.558  48.479  49.497  1.00  0.00     0.019 A 
HETATM   23  C   UNL     1      24.432  47.677  49.633  1.00  0.00     0.004 A 
HETATM   24  C   UNL     1      24.580  46.294  49.700  1.00  0.00     0.039 A 
ENDBRANCH  18  19
ENDBRANCH  17  18
ENDBRANCH  14  17
ENDBRANCH   6  13
TORSDOF 4
ENDMDL
MODEL 3
REMARK VINA RESULT:      -8.0      3.755      4.910
REMARK  4 active torsions:
REMARK  status: ('A' for Active; 'I' for Inactive)
REMARK    1  A    between atoms: C_6  and  N_7 
REMARK       I    between atoms: N_7  and  C_8 
REMARK    2  A    between atoms: C_8  and  C_9 
REMARK    3  A    between atoms: C_9  and  S_10 
REMARK    4  A    between atoms: S_10  and  C_11 
ROOT
HETATM    1  C   UNL     1      31.101  44.805  57.643  1.00  0.00     0.001 A 
HETATM    2  C   UNL     1      30.063  45.567  57.116  1.00  0.00     0.018 A 
HETATM    3  C   UNL     1      29.412  45.155  55.940  1.00  0.00     0.049 A 
HETATM    4  C   UNL     1      29.799  43.989  55.281  1.00  0.00     0.024 A 
HETATM    5  S   UNL     1      29.080  43.388  53.776  1.00  0.00    -0.053 SA
HETATM    6  C   UNL     1      27.793  44.514  53.532  1.00  0.00     0.154 A 
HETATM    7  N   UNL     1      27.587  45.555  54.299  1.00  0.00    -0.303 N 
HETATM    8  H   UNL     1      26.810  46.163  54.040  1.00  0.00     0.171 HD
HETATM    9  C   UNL     1      28.305  45.972  55.434  1.00  0.00     0.259 A 
HETATM   10  O   UNL     1      27.935  47.011  55.947  1.00  0.00    -0.267 OA
HETATM   11  C   UNL     1      30.847  43.231  55.829  1.00  0.00     0.020 A 
HETATM   12  C   UNL     1      31.491  43.634  57.001  1.00  0.00     0.001 A 
ENDROOT
BRANCH   6  13
HETATM   13  N   UNL     1      27.029  44.240  52.499  1.00  0.00    -0.306 N 
HETATM   14  C   UNL     1      25.620  44.050  52.495  1.00  0.00     0.233 C 
HETATM   15  O   UNL     1      25.053  44.169  53.574  1.00  0.00    -0.272 OA
HETATM   16  H   UNL     1      27.508  44.226  51.604  1.00  0.00     0.171 HD
BRANCH  14  17
HETATM   17  C   UNL     1      24.923  43.720  51.192  1.00  0.00     0.184 C 
BRANCH  17  18
HETATM   18  S   UNL     1      25.996  43.904  49.729  1.00  0.00    -0.101 SA
BRANCH  18  19
HETATM   19  C   UNL     1      26.456  42.203  49.478  1.00  0.00     0.093 A 
HETATM   20  N   UNL     1      27.358  41.975  48.493  1.00  0.00    -0.254 NA
HETATM   21  C   UNL     1      27.718  40.684  48.290  1.00  0.00     0.118 A 
HETATM   22  C   UNL     1      27.257  39.625  49.053  1.00  0.00     0.019 A 
HETATM   23  C   UNL     1      26.367  39.898  50.085  1.00  0.00     0.004 A 
HETATM   24  C   UNL     1      25.957  41.209  50.306  1.00  0.00     0.039 A 
ENDBRANCH  18  19
ENDBRANCH  17  18
ENDBRANCH  14  17
ENDBRANCH   6  13
TORSDOF 4
ENDMDL
MODEL 4
REMARK VINA RESULT:      -8.0      5.441      8.866
REMARK  4 active torsions:
REMARK  status: ('A' for Active; 'I' for Inactive)
REMARK    1  A    between atoms: C_6  and  N_7 
REMARK       I    between atoms: N_7  and  C_8 
REMARK    2  A    between atoms: C_8  and  C_9 
REMARK    3  A    between atoms: C_9  and  S_10 
REMARK    4  A    between atoms: S_10  and  C_11 
ROOT
HETATM    1  C   UNL     1      28.685  37.758  46.902  1.00  0.00     0.001 A 
HETATM    2  C   UNL     1      29.289  37.727  48.155  1.00  0.00     0.018 A 
HETATM    3  C   UNL     1      28.907  38.649  49.145  1.00  0.00     0.049 A 
HETATM    4  C   UNL     1      27.932  39.610  48.886  1.00  0.00     0.024 A 
HETATM    5  S   UNL     1      27.394  40.846  50.039  1.00  0.00    -0.053 SA
HETATM    6  C   UNL     1      28.269  40.399  51.460  1.00  0.00     0.154 A 
HETATM    7  N   UNL     1      29.145  39.427  51.494  1.00  0.00    -0.303 N 
HETATM    8  H   UNL     1      29.617  39.272  52.385  1.00  0.00     0.171 HD
HETATM    9  C   UNL     1      29.549  38.564  50.460  1.00  0.00     0.259 A 
HETATM   10  O   UNL     1      30.423  37.767  50.741  1.00  0.00    -0.267 OA
HETATM   11  C   UNL     1      27.331  39.625  47.617  1.00  0.00     0.020 A 
HETATM   12  C   UNL     1      27.702  38.705  46.633  1.00  0.00     0.001 A 
ENDROOT
BRANCH   6  13
HETATM   13  N   UNL     1      27.982  41.125  52.517  1.00  0.00    -0.306 N 
HETATM   14  C   UNL     1      28.764  42.170  53.082  1.00  0.00     0.233 C 
HETATM   15  O   UNL     1      29.814  42.432  52.510  1.00  0.00    -0.272 OA
HETATM   16  H   UNL     1      27.071  40.946  52.926  1.00  0.00     0.171 HD
BRANCH  14  17
HETATM   17  C   UNL     1      28.263  42.878  54.323  1.00  0.00     0.184 C 
BRANCH  17  18
HETATM   18  S   UNL     1      28.774  44.626  54.418  1.00  0.00    -0.101 SA
BRANCH  18  19
HETATM   19  C   UNL     1      29.885  44.539  55.806  1.00  0.00     0.093 A 
HETATM   20  N   UNL     1      29.718  45.491  56.756  1.00  0.00    -0.254 NA
HETATM   21  C   UNL     1      30.556  45.437  57.819  1.00  0.00     0.118 A 
HETATM   22  C   UNL     1      31.517  44.455  57.997  1.00  0.00     0.019 A 
HETATM   23  C   UNL     1      31.634  43.469  57.026  1.00  0.00     0.004 A 
HETATM   24  C   UNL     1      30.804  43.506  55.909  1.00  0.00     0.039 A 
ENDBRANCH  18  19
ENDBRANCH  17  18
ENDBRANCH  14  17
ENDBRANCH   6  13
TORSDOF 4
ENDMDL
MODEL 5
REMARK VINA RESULT:      -8.0      2.655      3.202
REMARK  4 active torsions:
REMARK  status: ('A' for Active; 'I' for Inactive)
REMARK    1  A    between atoms: C_6  and  N_7 
REMARK       I    between atoms: N_7  and  C_8 
REMARK    2  A    between atoms: C_8  and  C_9 
REMARK    3  A    between atoms: C_9  and  S_10 
REMARK    4  A    between atoms: S_10  and  C_11 
ROOT
HETATM    1  C   UNL     1      30.716  43.810  55.740  1.00  0.00     0.001 A 
HETATM    2  C   UNL     1      30.092  42.826  54.979  1.00  0.00     0.018 A 
HETATM    3  C   UNL     1      28.885  43.109  54.316  1.00  0.00     0.049 A 
HETATM    4  C   UNL     1      28.292  44.366  54.417  1.00  0.00     0.024 A 
HETATM    5  S   UNL     1      26.757  44.828  53.659  1.00  0.00    -0.053 SA
HETATM    6  C   UNL     1      26.385  43.414  52.739  1.00  0.00     0.154 A 
HETATM    7  N   UNL     1      27.102  42.320  52.772  1.00  0.00    -0.303 N 
HETATM    8  H   UNL     1      26.769  41.541  52.204  1.00  0.00     0.171 HD
HETATM    9  C   UNL     1      28.274  42.053  53.503  1.00  0.00     0.259 A 
HETATM   10  O   UNL     1      28.727  40.929  53.393  1.00  0.00    -0.267 OA
HETATM   11  C   UNL     1      28.938  45.347  55.187  1.00  0.00     0.020 A 
HETATM   12  C   UNL     1      30.141  45.073  55.841  1.00  0.00     0.001 A 
ENDROOT
BRANCH   6  13
HETATM   13  N   UNL     1      25.307  43.526  51.995  1.00  0.00    -0.306 N 
HETATM   14  C   UNL     1      24.894  42.665  50.942  1.00  0.00     0.233 C 
HETATM   15  O   UNL     1      25.616  41.703  50.711  1.00  0.00    -0.272 OA
HETATM   16  H   UNL     1      24.683  44.282  52.257  1.00  0.00     0.171 HD
BRANCH  14  17
HETATM   17  C   UNL     1      23.619  42.979  50.188  1.00  0.00     0.184 C 
BRANCH  17  18
HETATM   18  S   UNL     1      23.903  43.861  48.617  1.00  0.00    -0.101 SA
BRANCH  18  19
HETATM   19  C   UNL     1      24.654  45.350  49.239  1.00  0.00     0.093 A 
HETATM   20  N   UNL     1      26.008  45.348  49.297  1.00  0.00    -0.254 NA
HETATM   21  C   UNL     1      26.595  46.475  49.769  1.00  0.00     0.118 A 
HETATM   22  C   UNL     1      25.896  47.612  50.139  1.00  0.00     0.019 A 
HETATM   23  C   UNL     1      24.512  47.598  50.026  1.00  0.00     0.004 A 
HETATM   24  C   UNL     1      23.874  46.448  49.567  1.00  0.00     0.039 A 
ENDBRANCH  18  19
ENDBRANCH  17  18
ENDBRANCH  14  17
ENDBRANCH   6  13
TORSDOF 4
ENDMDL
MODEL 6
REMARK VINA RESULT:      -8.0      1.990      2.528
REMARK  4 active torsions:
REMARK  status: ('A' for Active; 'I' for Inactive)
REMARK    1  A    between atoms: C_6  and  N_7 
REMARK       I    between atoms: N_7  and  C_8 
REMARK    2  A    between atoms: C_8  and  C_9 
REMARK    3  A    between atoms: C_9  and  S_10 
REMARK    4  A    between atoms: S_10  and  C_11 
ROOT
HETATM    1  C   UNL     1      31.002  43.314  55.912  1.00  0.00     0.001 A 
HETATM    2  C   UNL     1      30.131  42.979  54.880  1.00  0.00     0.018 A 
HETATM    3  C   UNL     1      29.138  43.888  54.474  1.00  0.00     0.049 A 
HETATM    4  C   UNL     1      29.003  45.125  55.101  1.00  0.00     0.024 A 
HETATM    5  S   UNL     1      27.769  46.336  54.704  1.00  0.00    -0.053 SA
HETATM    6  C   UNL     1      27.000  45.610  53.338  1.00  0.00     0.154 A 
HETATM    7  N   UNL     1      27.298  44.418  52.887  1.00  0.00    -0.303 N 
HETATM    8  H   UNL     1      26.757  44.085  52.089  1.00  0.00     0.171 HD
HETATM    9  C   UNL     1      28.259  43.508  53.364  1.00  0.00     0.259 A 
HETATM   10  O   UNL     1      28.309  42.436  52.792  1.00  0.00    -0.267 OA
HETATM   11  C   UNL     1      29.893  45.446  56.139  1.00  0.00     0.020 A 
HETATM   12  C   UNL     1      30.885  44.549  56.541  1.00  0.00     0.001 A 
ENDROOT
BRANCH   6  13
HETATM   13  N   UNL     1      26.075  46.360  52.782  1.00  0.00    -0.306 N 
HETATM   14  C   UNL     1      25.836  46.545  51.393  1.00  0.00     0.233 C 
HETATM   15  O   UNL     1      26.564  45.924  50.629  1.00  0.00    -0.272 OA
HETATM   16  H   UNL     1      25.432  46.800  53.433  1.00  0.00     0.171 HD
BRANCH  14  17
HETATM   17  C   UNL     1      24.724  47.474  50.953  1.00  0.00     0.184 C 
BRANCH  17  18
HETATM   18  S   UNL     1      23.942  46.976  49.381  1.00  0.00    -0.101 SA
BRANCH  18  19
HETATM   19  C   UNL     1      23.116  48.497  48.963  1.00  0.00     0.093 A 
HETATM   20  N   UNL     1      21.765  48.482  49.068  1.00  0.00    -0.254 NA
HETATM   21  C   UNL     1      21.122  49.632  48.752  1.00  0.00     0.118 A 
HETATM   22  C   UNL     1      21.766  50.802  48.384  1.00  0.00     0.019 A 
HETATM   23  C   UNL     1      23.154  50.796  48.329  1.00  0.00     0.004 A 
HETATM   24  C   UNL     1      23.847  49.625  48.624  1.00  0.00     0.039 A 
ENDBRANCH  18  19
ENDBRANCH  17  18
ENDBRANCH  14  17
ENDBRANCH   6  13
TORSDOF 4
ENDMDL
MODEL 7
REMARK VINA RESULT:      -7.7      3.417      5.367
REMARK  4 active torsions:
REMARK  status: ('A' for Active; 'I' for Inactive)
REMARK    1  A    between atoms: C_6  and  N_7 
REMARK       I    between atoms: N_7  and  C_8 
REMARK    2  A    between atoms: C_8  and  C_9 
REMARK    3  A    between atoms: C_9  and  S_10 
REMARK    4  A    between atoms: S_10  and  C_11 
ROOT
HETATM    1  C   UNL     1      28.268  43.734  54.436  1.00  0.00     0.001 A 
HETATM    2  C   UNL     1      27.507  44.892  54.566  1.00  0.00     0.018 A 
HETATM    3  C   UNL     1      26.802  45.399  53.460  1.00  0.00     0.049 A 
HETATM    4  C   UNL     1      26.863  44.762  52.222  1.00  0.00     0.024 A 
HETATM    5  S   UNL     1      26.049  45.325  50.750  1.00  0.00    -0.053 SA
HETATM    6  C   UNL     1      25.144  46.670  51.347  1.00  0.00     0.154 A 
HETATM    7  N   UNL     1      25.219  47.103  52.580  1.00  0.00    -0.303 N 
HETATM    8  H   UNL     1      24.656  47.922  52.809  1.00  0.00     0.171 HD
HETATM    9  C   UNL     1      25.990  46.605  53.646  1.00  0.00     0.259 A 
HETATM   10  O   UNL     1      25.914  47.222  54.692  1.00  0.00    -0.267 OA
HETATM   11  C   UNL     1      27.633  43.594  52.111  1.00  0.00     0.020 A 
HETATM   12  C   UNL     1      28.329  43.082  53.209  1.00  0.00     0.001 A 
ENDROOT
BRANCH   6  13
HETATM   13  N   UNL     1      24.367  47.234  50.450  1.00  0.00    -0.306 N 
HETATM   14  C   UNL     1      24.691  48.317  49.588  1.00  0.00     0.233 C 
HETATM   15  O   UNL     1      25.827  48.764  49.681  1.00  0.00    -0.272 OA
HETATM   16  H   UNL     1      23.459  46.796  50.334  1.00  0.00     0.171 HD
BRANCH  14  17
HETATM   17  C   UNL     1      23.640  48.838  48.630  1.00  0.00     0.184 C 
BRANCH  17  18
HETATM   18  S   UNL     1      22.036  47.981  48.776  1.00  0.00    -0.101 SA
BRANCH  18  19
HETATM   19  C   UNL     1      20.965  49.386  48.995  1.00  0.00     0.093 A 
HETATM   20  N   UNL     1      19.983  49.240  49.918  1.00  0.00    -0.254 NA
HETATM   21  C   UNL     1      19.159  50.302  50.095  1.00  0.00     0.118 A 
HETATM   22  C   UNL     1      19.300  51.509  49.431  1.00  0.00     0.019 A 
HETATM   23  C   UNL     1      20.343  51.640  48.523  1.00  0.00     0.004 A 
HETATM   24  C   UNL     1      21.195  50.562  48.298  1.00  0.00     0.039 A 
ENDBRANCH  18  19
ENDBRANCH  17  18
ENDBRANCH  14  17
ENDBRANCH   6  13
TORSDOF 4
ENDMDL
MODEL 8
REMARK VINA RESULT:      -7.7      4.873      6.290
REMARK  4 active torsions:
REMARK  status: ('A' for Active; 'I' for Inactive)
REMARK    1  A    between atoms: C_6  and  N_7 
REMARK       I    between atoms: N_7  and  C_8 
REMARK    2  A    between atoms: C_8  and  C_9 
REMARK    3  A    between atoms: C_9  and  S_10 
REMARK    4  A    between atoms: S_10  and  C_11 
ROOT
HETATM    1  C   UNL     1      30.246  45.291  56.711  1.00  0.00     0.001 A 
HETATM    2  C   UNL     1      29.168  45.654  55.910  1.00  0.00     0.018 A 
HETATM    3  C   UNL     1      28.829  44.875  54.789  1.00  0.00     0.049 A 
HETATM    4  C   UNL     1      29.569  43.741  54.458  1.00  0.00     0.024 A 
HETATM    5  S   UNL     1      29.262  42.704  53.053  1.00  0.00    -0.053 SA
HETATM    6  C   UNL     1      27.817  43.403  52.415  1.00  0.00     0.154 A 
HETATM    7  N   UNL     1      27.261  44.484  52.900  1.00  0.00    -0.303 N 
HETATM    8  H   UNL     1      26.423  44.817  52.423  1.00  0.00     0.171 HD
HETATM    9  C   UNL     1      27.669  45.276  53.988  1.00  0.00     0.259 A 
HETATM   10  O   UNL     1      26.998  46.267  54.208  1.00  0.00    -0.267 OA
HETATM   11  C   UNL     1      30.652  43.389  55.280  1.00  0.00     0.020 A 
HETATM   12  C   UNL     1      30.987  44.156  56.398  1.00  0.00     0.001 A 
ENDROOT
BRANCH   6  13
HETATM   13  N   UNL     1      27.316  42.755  51.388  1.00  0.00    -0.306 N 
HETATM   14  C   UNL     1      27.070  43.265  50.084  1.00  0.00     0.233 C 
HETATM   15  O   UNL     1      27.373  44.436  49.892  1.00  0.00    -0.272 OA
HETATM   16  H   UNL     1      27.147  41.766  51.545  1.00  0.00     0.171 HD
BRANCH  14  17
HETATM   17  C   UNL     1      26.465  42.354  49.037  1.00  0.00     0.184 C 
BRANCH  17  18
HETATM   18  S   UNL     1      25.782  40.809  49.725  1.00  0.00    -0.101 SA
BRANCH  18  19
HETATM   19  C   UNL     1      27.008  39.655  49.146  1.00  0.00     0.093 A 
HETATM   20  N   UNL     1      26.539  38.613  48.419  1.00  0.00    -0.254 NA
HETATM   21  C   UNL     1      27.460  37.725  47.970  1.00  0.00     0.118 A 
HETATM   22  C   UNL     1      28.823  37.858  48.175  1.00  0.00     0.019 A 
HETATM   23  C   UNL     1      29.275  38.962  48.887  1.00  0.00     0.004 A 
HETATM   24  C   UNL     1      28.355  39.881  49.383  1.00  0.00     0.039 A 
ENDBRANCH  18  19
ENDBRANCH  17  18
ENDBRANCH  14  17
ENDBRANCH   6  13
TORSDOF 4
ENDMDL
MODEL 9
REMARK VINA RESULT:      -7.6      3.762      4.884
REMARK  4 active torsions:
REMARK  status: ('A' for Active; 'I' for Inactive)
REMARK    1  A    between atoms: C_6  and  N_7 
REMARK       I    between atoms: N_7  and  C_8 
REMARK    2  A    between atoms: C_8  and  C_9 
REMARK    3  A    between atoms: C_9  and  S_10 
REMARK    4  A    between atoms: S_10  and  C_11 
ROOT
HETATM    1  C   UNL     1      30.679  44.790  56.558  1.00  0.00     0.001 A 
HETATM    2  C   UNL     1      30.583  43.945  55.456  1.00  0.00     0.018 A 
HETATM    3  C   UNL     1      29.471  44.028  54.600  1.00  0.00     0.049 A 
HETATM    4  C   UNL     1      28.449  44.942  54.844  1.00  0.00     0.024 A 
HETATM    5  S   UNL     1      26.984  45.114  53.859  1.00  0.00    -0.053 SA
HETATM    6  C   UNL     1      27.303  44.009  52.569  1.00  0.00     0.154 A 
HETATM    7  N   UNL     1      28.359  43.239  52.521  1.00  0.00    -0.303 N 
HETATM    8  H   UNL     1      28.426  42.609  51.721  1.00  0.00     0.171 HD
HETATM    9  C   UNL     1      29.423  43.138  53.436  1.00  0.00     0.259 A 
HETATM   10  O   UNL     1      30.269  42.303  53.180  1.00  0.00    -0.267 OA
HETATM   11  C   UNL     1      28.564  45.789  55.958  1.00  0.00     0.020 A 
HETATM   12  C   UNL     1      29.670  45.715  56.808  1.00  0.00     0.001 A 
ENDROOT
BRANCH   6  13
HETATM   13  N   UNL     1      26.384  44.003  51.629  1.00  0.00    -0.306 N 
HETATM   14  C   UNL     1      26.532  44.420  50.278  1.00  0.00     0.233 C 
HETATM   15  O   UNL     1      27.643  44.815  49.949  1.00  0.00    -0.272 OA
HETATM   16  H   UNL     1      25.495  43.597  51.901  1.00  0.00     0.171 HD
BRANCH  14  17
HETATM   17  C   UNL     1      25.337  44.351  49.350  1.00  0.00     0.184 C 
BRANCH  17  18
HETATM   18  S   UNL     1      24.635  42.675  49.194  1.00  0.00    -0.101 SA
BRANCH  18  19
HETATM   19  C   UNL     1      26.133  41.715  49.252  1.00  0.00     0.093 A 
HETATM   20  N   UNL     1      26.432  41.161  50.452  1.00  0.00    -0.254 NA
HETATM   21  C   UNL     1      27.570  40.427  50.511  1.00  0.00     0.118 A 
HETATM   22  C   UNL     1      28.391  40.185  49.422  1.00  0.00     0.019 A 
HETATM   23  C   UNL     1      28.032  40.731  48.196  1.00  0.00     0.004 A 
HETATM   24  C   UNL     1      26.882  41.510  48.103  1.00  0.00     0.039 A 
ENDBRANCH  18  19
ENDBRANCH  17  18
ENDBRANCH  14  17
ENDBRANCH   6  13
TORSDOF 4
ENDMDL
MODEL 10
REMARK VINA RESULT:      -7.6      3.054      3.606
REMARK  4 active torsions:
REMARK  status: ('A' for Active; 'I' for Inactive)
REMARK    1  A    between atoms: C_6  and  N_7 
REMARK       I    between atoms: N_7  and  C_8 
REMARK    2  A    between atoms: C_8  and  C_9 
REMARK    3  A    between atoms: C_9  and  S_10 
REMARK    4  A    between atoms: S_10  and  C_11 
ROOT
HETATM    1  C   UNL     1      31.013  44.052  56.337  1.00  0.00     0.001 A 
HETATM    2  C   UNL     1      30.625  43.365  55.190  1.00  0.00     0.018 A 
HETATM    3  C   UNL     1      29.518  43.807  54.444  1.00  0.00     0.049 A 
HETATM    4  C   UNL     1      28.790  44.926  54.843  1.00  0.00     0.024 A 
HETATM    5  S   UNL     1      27.359  45.557  54.007  1.00  0.00    -0.053 SA
HETATM    6  C   UNL     1      27.289  44.531  52.619  1.00  0.00     0.154 A 
HETATM    7  N   UNL     1      28.100  43.524  52.422  1.00  0.00    -0.303 N 
HETATM    8  H   UNL     1      27.946  42.974  51.576  1.00  0.00     0.171 HD
HETATM    9  C   UNL     1      29.160  43.071  53.229  1.00  0.00     0.259 A 
HETATM   10  O   UNL     1      29.738  42.073  52.840  1.00  0.00    -0.267 OA
HETATM   11  C   UNL     1      29.198  45.609  56.000  1.00  0.00     0.020 A 
HETATM   12  C   UNL     1      30.302  45.177  56.740  1.00  0.00     0.001 A 
ENDROOT
BRANCH   6  13
HETATM   13  N   UNL     1      26.340  44.846  51.766  1.00  0.00    -0.306 N 
HETATM   14  C   UNL     1      26.465  45.014  50.360  1.00  0.00     0.233 C 
HETATM   15  O   UNL     1      27.580  44.828  49.888  1.00  0.00    -0.272 OA
HETATM   16  H   UNL     1      25.409  44.916  52.167  1.00  0.00     0.171 HD
BRANCH  14  17
HETATM   17  C   UNL     1      25.246  45.399  49.551  1.00  0.00     0.184 C 
BRANCH  17  18
HETATM   18  S   UNL     1      23.946  44.119  49.541  1.00  0.00    -0.101 SA
BRANCH  18  19
HETATM   19  C   UNL     1      22.567  45.095  48.979  1.00  0.00     0.093 A 
HETATM   20  N   UNL     1      21.360  44.480  49.006  1.00  0.00    -0.254 NA
HETATM   21  C   UNL     1      20.301  45.211  48.581  1.00  0.00     0.118 A 
HETATM   22  C   UNL     1      20.386  46.533  48.177  1.00  0.00     0.019 A 
HETATM   23  C   UNL     1      21.632  47.147  48.203  1.00  0.00     0.004 A 
HETATM   24  C   UNL     1      22.746  46.420  48.611  1.00  0.00     0.039 A 
ENDBRANCH  18  19
ENDBRANCH  17  18
ENDBRANCH  14  17
ENDBRANCH   6  13
TORSDOF 4
ENDMDL
