MODEL 1
REMARK VINA RESULT:      -9.3      0.000      0.000
REMARK  3 active torsions:
REMARK  status: ('A' for Active; 'I' for Inactive)
REMARK    1  A    between atoms: C_2  and  C_3 
REMARK       I    between atoms: C_3  and  N_4 
REMARK    2  A    between atoms: N_4  and  N_5 
REMARK    3  A    between atoms: C_21  and  C_22 
ROOT
HETATM    1  C   UNL     1      24.689  47.251  50.035  1.00  0.00     0.288 C 
HETATM    2  N   UNL     1      24.918  45.985  49.535  1.00  0.00    -0.251 N 
HETATM    3  O   UNL     1      25.172  47.653  51.092  1.00  0.00    -0.264 OA
HETATM    4  H   UNL     1      24.319  45.623  48.803  1.00  0.00     0.191 HD
ENDROOT
BRANCH   2   5
HETATM    5  N   UNL     1      25.400  45.027  50.415  1.00  0.00    -0.167 N 
HETATM    6  C   UNL     1      24.569  44.204  51.124  1.00  0.00     0.345 C 
HETATM    7  O   UNL     1      23.350  44.202  51.120  1.00  0.00    -0.245 OA
HETATM    8  N   UNL     1      25.355  43.305  51.813  1.00  0.00    -0.323 N 
HETATM    9  C   UNL     1      26.774  43.518  51.575  1.00  0.00     0.117 C 
HETATM   10  H   UNL     1      24.944  42.604  52.416  1.00  0.00     0.165 HD
HETATM   11  C   UNL     1      27.445  42.267  51.001  1.00  0.00     0.041 C 
HETATM   12  C   UNL     1      27.472  44.021  52.842  1.00  0.00     0.041 C 
HETATM   13  C   UNL     1      26.715  44.640  50.511  1.00  0.00     0.275 C 
HETATM   14  C   UNL     1      27.607  41.169  52.052  1.00  0.00     0.003 C 
HETATM   15  C   UNL     1      28.320  41.681  53.300  1.00  0.00     0.000 C 
HETATM   16  C   UNL     1      27.632  42.913  53.884  1.00  0.00     0.003 C 
HETATM   17  O   UNL     1      27.670  45.068  49.878  1.00  0.00    -0.268 OA
ENDBRANCH   2   5
BRANCH   1  18
HETATM   18  C   UNL     1      23.805  48.066  49.242  1.00  0.00     0.121 A 
HETATM   19  C   UNL     1      22.430  48.160  49.136  1.00  0.00     0.066 A 
HETATM   20  C   UNL     1      22.183  49.237  48.249  1.00  0.00     0.061 A 
HETATM   21  N   UNL     1      23.332  49.739  47.778  1.00  0.00    -0.178 NA
HETATM   22  N   UNL     1      24.286  49.023  48.391  1.00  0.00    -0.272 N 
HETATM   23  H   UNL     1      25.261  49.239  48.205  1.00  0.00     0.189 HD
BRANCH  20  24
HETATM   24  C   UNL     1      20.879  49.861  47.813  1.00  0.00     0.039 C 
HETATM   25  C   UNL     1      19.673  48.938  48.045  1.00  0.00     0.011 C 
HETATM   26  C   UNL     1      19.138  48.982  49.473  1.00  0.00     0.001 C 
HETATM   27  C   UNL     1      18.814  50.408  49.900  1.00  0.00     0.000 C 
HETATM   28  C   UNL     1      20.028  51.319  49.773  1.00  0.00     0.001 C 
HETATM   29  C   UNL     1      20.644  51.276  48.374  1.00  0.00     0.011 C 
ENDBRANCH  20  24
ENDBRANCH   1  18
TORSDOF 3
ENDMDL
MODEL 2
REMARK VINA RESULT:      -9.1      1.181      2.068
REMARK  3 active torsions:
REMARK  status: ('A' for Active; 'I' for Inactive)
REMARK    1  A    between atoms: C_2  and  C_3 
REMARK       I    between atoms: C_3  and  N_4 
REMARK    2  A    between atoms: N_4  and  N_5 
REMARK    3  A    between atoms: C_21  and  C_22 
ROOT
HETATM    1  C   UNL     1      24.479  47.274  49.898  1.00  0.00     0.288 C 
HETATM    2  N   UNL     1      24.756  46.013  49.408  1.00  0.00    -0.251 N 
HETATM    3  O   UNL     1      25.177  47.835  50.740  1.00  0.00    -0.264 OA
HETATM    4  H   UNL     1      24.038  45.503  48.910  1.00  0.00     0.191 HD
ENDROOT
BRANCH   2   5
HETATM    5  N   UNL     1      25.626  45.219  50.142  1.00  0.00    -0.167 N 
HETATM    6  C   UNL     1      26.982  45.280  49.982  1.00  0.00     0.345 C 
HETATM    7  O   UNL     1      27.604  45.977  49.197  1.00  0.00    -0.245 OA
HETATM    8  N   UNL     1      27.555  44.455  50.925  1.00  0.00    -0.323 N 
HETATM    9  C   UNL     1      26.561  43.799  51.761  1.00  0.00     0.117 C 
HETATM   10  H   UNL     1      28.559  44.339  50.982  1.00  0.00     0.165 HD
HETATM   11  C   UNL     1      26.769  44.117  53.244  1.00  0.00     0.041 C 
HETATM   12  C   UNL     1      26.527  42.292  51.491  1.00  0.00     0.041 C 
HETATM   13  C   UNL     1      25.268  44.469  51.237  1.00  0.00     0.275 C 
HETATM   14  C   UNL     1      27.985  43.394  53.821  1.00  0.00     0.003 C 
HETATM   15  C   UNL     1      27.928  41.892  53.560  1.00  0.00     0.000 C 
HETATM   16  C   UNL     1      27.747  41.580  52.076  1.00  0.00     0.003 C 
HETATM   17  O   UNL     1      24.157  44.351  51.735  1.00  0.00    -0.268 OA
ENDBRANCH   2   5
BRANCH   1  18
HETATM   18  C   UNL     1      23.280  47.877  49.376  1.00  0.00     0.121 A 
HETATM   19  C   UNL     1      22.936  49.169  49.023  1.00  0.00     0.066 A 
HETATM   20  C   UNL     1      21.632  49.085  48.473  1.00  0.00     0.061 A 
HETATM   21  N   UNL     1      21.166  47.831  48.543  1.00  0.00    -0.178 NA
HETATM   22  N   UNL     1      22.173  47.129  49.083  1.00  0.00    -0.272 N 
HETATM   23  H   UNL     1      22.060  46.129  49.218  1.00  0.00     0.189 HD
BRANCH  20  24
HETATM   24  C   UNL     1      20.770  50.152  47.844  1.00  0.00     0.039 C 
HETATM   25  C   UNL     1      19.361  49.648  47.494  1.00  0.00     0.011 C 
HETATM   26  C   UNL     1      18.398  49.663  48.677  1.00  0.00     0.001 C 
HETATM   27  C   UNL     1      18.331  51.043  49.320  1.00  0.00     0.000 C 
HETATM   28  C   UNL     1      19.708  51.519  49.766  1.00  0.00     0.001 C 
HETATM   29  C   UNL     1      20.734  51.474  48.634  1.00  0.00     0.011 C 
ENDBRANCH  20  24
ENDBRANCH   1  18
TORSDOF 3
ENDMDL
MODEL 3
REMARK VINA RESULT:      -9.0      1.564      1.767
REMARK  3 active torsions:
REMARK  status: ('A' for Active; 'I' for Inactive)
REMARK    1  A    between atoms: C_2  and  C_3 
REMARK       I    between atoms: C_3  and  N_4 
REMARK    2  A    between atoms: N_4  and  N_5 
REMARK    3  A    between atoms: C_21  and  C_22 
ROOT
HETATM    1  C   UNL     1      23.918  45.599  49.352  1.00  0.00     0.288 C 
HETATM    2  N   UNL     1      23.812  45.468  50.722  1.00  0.00    -0.251 N 
HETATM    3  O   UNL     1      24.609  44.857  48.657  1.00  0.00    -0.264 OA
HETATM    4  H   UNL     1      23.436  46.232  51.268  1.00  0.00     0.191 HD
ENDROOT
BRANCH   2   5
HETATM    5  N   UNL     1      24.785  44.719  51.369  1.00  0.00    -0.167 N 
HETATM    6  C   UNL     1      24.708  43.358  51.474  1.00  0.00     0.345 C 
HETATM    7  O   UNL     1      23.814  42.634  51.069  1.00  0.00    -0.245 OA
HETATM    8  N   UNL     1      25.870  42.915  52.069  1.00  0.00    -0.323 N 
HETATM    9  C   UNL     1      26.776  44.008  52.388  1.00  0.00     0.117 C 
HETATM   10  H   UNL     1      26.023  41.933  52.255  1.00  0.00     0.165 HD
HETATM   11  C   UNL     1      28.137  43.831  51.710  1.00  0.00     0.041 C 
HETATM   12  C   UNL     1      26.903  44.187  53.904  1.00  0.00     0.041 C 
HETATM   13  C   UNL     1      26.009  45.200  51.767  1.00  0.00     0.275 C 
HETATM   14  C   UNL     1      28.964  42.722  52.361  1.00  0.00     0.003 C 
HETATM   15  C   UNL     1      29.096  42.926  53.867  1.00  0.00     0.000 C 
HETATM   16  C   UNL     1      27.735  43.075  54.543  1.00  0.00     0.003 C 
HETATM   17  O   UNL     1      26.443  46.337  51.648  1.00  0.00    -0.268 OA
ENDBRANCH   2   5
BRANCH   1  18
HETATM   18  C   UNL     1      23.183  46.704  48.790  1.00  0.00     0.121 A 
HETATM   19  C   UNL     1      23.107  48.051  49.089  1.00  0.00     0.066 A 
HETATM   20  C   UNL     1      22.281  48.623  48.089  1.00  0.00     0.061 A 
HETATM   21  N   UNL     1      21.815  47.680  47.260  1.00  0.00    -0.178 NA
HETATM   22  N   UNL     1      22.374  46.543  47.699  1.00  0.00    -0.272 N 
HETATM   23  H   UNL     1      22.181  45.676  47.205  1.00  0.00     0.189 HD
BRANCH  20  24
HETATM   24  C   UNL     1      21.901  50.064  47.846  1.00  0.00     0.039 C 
HETATM   25  C   UNL     1      20.439  50.226  47.403  1.00  0.00     0.011 C 
HETATM   26  C   UNL     1      19.449  50.233  48.563  1.00  0.00     0.001 C 
HETATM   27  C   UNL     1      19.817  51.287  49.601  1.00  0.00     0.000 C 
HETATM   28  C   UNL     1      21.232  51.082  50.127  1.00  0.00     0.001 C 
HETATM   29  C   UNL     1      22.266  51.011  49.003  1.00  0.00     0.011 C 
ENDBRANCH  20  24
ENDBRANCH   1  18
TORSDOF 3
ENDMDL
MODEL 4
REMARK VINA RESULT:      -8.6      7.805      9.519
REMARK  3 active torsions:
REMARK  status: ('A' for Active; 'I' for Inactive)
REMARK    1  A    between atoms: C_2  and  C_3 
REMARK       I    between atoms: C_3  and  N_4 
REMARK    2  A    between atoms: N_4  and  N_5 
REMARK    3  A    between atoms: C_21  and  C_22 
ROOT
HETATM    1  C   UNL     1      28.359  41.226  52.901  1.00  0.00     0.288 C 
HETATM    2  N   UNL     1      29.059  41.127  51.715  1.00  0.00    -0.251 N 
HETATM    3  O   UNL     1      27.494  40.422  53.239  1.00  0.00    -0.264 OA
HETATM    4  H   UNL     1      29.577  41.927  51.374  1.00  0.00     0.191 HD
ENDROOT
BRANCH   2   5
HETATM    5  N   UNL     1      28.525  40.318  50.723  1.00  0.00    -0.167 N 
HETATM    6  C   UNL     1      27.713  40.809  49.739  1.00  0.00     0.345 C 
HETATM    7  O   UNL     1      27.327  41.958  49.603  1.00  0.00    -0.245 OA
HETATM    8  N   UNL     1      27.447  39.782  48.860  1.00  0.00    -0.323 N 
HETATM    9  C   UNL     1      28.093  38.539  49.253  1.00  0.00     0.117 C 
HETATM   10  H   UNL     1      26.851  39.921  48.054  1.00  0.00     0.165 HD
HETATM   11  C   UNL     1      29.024  38.014  48.156  1.00  0.00     0.041 C 
HETATM   12  C   UNL     1      27.058  37.496  49.683  1.00  0.00     0.041 C 
HETATM   13  C   UNL     1      28.911  39.022  50.475  1.00  0.00     0.275 C 
HETATM   14  C   UNL     1      28.248  37.439  46.971  1.00  0.00     0.003 C 
HETATM   15  C   UNL     1      27.234  36.389  47.415  1.00  0.00     0.000 C 
HETATM   16  C   UNL     1      26.291  36.926  48.489  1.00  0.00     0.003 C 
HETATM   17  O   UNL     1      29.748  38.362  51.073  1.00  0.00    -0.268 OA
ENDBRANCH   2   5
BRANCH   1  18
HETATM   18  C   UNL     1      28.690  42.374  53.707  1.00  0.00     0.121 A 
HETATM   19  C   UNL     1      29.869  42.856  54.244  1.00  0.00     0.066 A 
HETATM   20  C   UNL     1      29.540  44.094  54.851  1.00  0.00     0.061 A 
HETATM   21  N   UNL     1      28.226  44.334  54.757  1.00  0.00    -0.178 NA
HETATM   22  N   UNL     1      27.743  43.293  54.065  1.00  0.00    -0.272 N 
HETATM   23  H   UNL     1      26.751  43.263  53.847  1.00  0.00     0.189 HD
BRANCH  20  24
HETATM   24  C   UNL     1      30.425  45.114  55.524  1.00  0.00     0.039 C 
HETATM   25  C   UNL     1      29.625  46.195  56.267  1.00  0.00     0.011 C 
HETATM   26  C   UNL     1      29.173  45.769  57.661  1.00  0.00     0.001 C 
HETATM   27  C   UNL     1      30.350  45.294  58.505  1.00  0.00     0.000 C 
HETATM   28  C   UNL     1      31.098  44.152  57.829  1.00  0.00     0.001 C 
HETATM   29  C   UNL     1      31.530  44.501  56.404  1.00  0.00     0.011 C 
ENDBRANCH  20  24
ENDBRANCH   1  18
TORSDOF 3
ENDMDL
MODEL 5
REMARK VINA RESULT:      -8.3      3.017      9.244
REMARK  3 active torsions:
REMARK  status: ('A' for Active; 'I' for Inactive)
REMARK    1  A    between atoms: C_2  and  C_3 
REMARK       I    between atoms: C_3  and  N_4 
REMARK    2  A    between atoms: N_4  and  N_5 
REMARK    3  A    between atoms: C_21  and  C_22 
ROOT
HETATM    1  C   UNL     1      22.425  48.108  48.726  1.00  0.00     0.288 C 
HETATM    2  N   UNL     1      21.660  48.892  49.565  1.00  0.00    -0.251 N 
HETATM    3  O   UNL     1      22.271  48.080  47.507  1.00  0.00    -0.264 OA
HETATM    4  H   UNL     1      21.660  48.704  50.560  1.00  0.00     0.191 HD
ENDROOT
BRANCH   2   5
HETATM    5  N   UNL     1      20.459  49.377  49.069  1.00  0.00    -0.167 N 
HETATM    6  C   UNL     1      19.279  48.703  49.223  1.00  0.00     0.345 C 
HETATM    7  O   UNL     1      19.111  47.621  49.761  1.00  0.00    -0.245 OA
HETATM    8  N   UNL     1      18.271  49.496  48.719  1.00  0.00    -0.323 N 
HETATM    9  C   UNL     1      18.772  50.758  48.196  1.00  0.00     0.117 C 
HETATM   10  H   UNL     1      17.308  49.186  48.722  1.00  0.00     0.165 HD
HETATM   11  C   UNL     1      18.122  51.957  48.892  1.00  0.00     0.041 C 
HETATM   12  C   UNL     1      18.619  50.818  46.673  1.00  0.00     0.041 C 
HETATM   13  C   UNL     1      20.267  50.649  48.583  1.00  0.00     0.275 C 
HETATM   14  C   UNL     1      16.670  52.154  48.460  1.00  0.00     0.003 C 
HETATM   15  C   UNL     1      16.536  52.230  46.942  1.00  0.00     0.000 C 
HETATM   16  C   UNL     1      17.162  51.018  46.254  1.00  0.00     0.003 C 
HETATM   17  O   UNL     1      21.092  51.546  48.483  1.00  0.00    -0.268 OA
ENDBRANCH   2   5
BRANCH   1  18
HETATM   18  C   UNL     1      23.405  47.286  49.390  1.00  0.00     0.121 A 
HETATM   19  C   UNL     1      24.599  47.554  50.033  1.00  0.00     0.066 A 
HETATM   20  C   UNL     1      25.036  46.316  50.569  1.00  0.00     0.061 A 
HETATM   21  N   UNL     1      24.201  45.327  50.222  1.00  0.00    -0.178 NA
HETATM   22  N   UNL     1      23.233  45.936  49.522  1.00  0.00    -0.272 N 
HETATM   23  H   UNL     1      22.461  45.381  49.164  1.00  0.00     0.189 HD
BRANCH  20  24
HETATM   24  C   UNL     1      26.229  45.998  51.437  1.00  0.00     0.039 C 
HETATM   25  C   UNL     1      26.546  47.115  52.443  1.00  0.00     0.011 C 
HETATM   26  C   UNL     1      25.695  47.055  53.708  1.00  0.00     0.001 C 
HETATM   27  C   UNL     1      25.788  45.688  54.375  1.00  0.00     0.000 C 
HETATM   28  C   UNL     1      25.380  44.572  53.422  1.00  0.00     0.001 C 
HETATM   29  C   UNL     1      26.162  44.613  52.108  1.00  0.00     0.011 C 
ENDBRANCH  20  24
ENDBRANCH   1  18
TORSDOF 3
ENDMDL
MODEL 6
REMARK VINA RESULT:      -8.1     19.462     21.283
REMARK  3 active torsions:
REMARK  status: ('A' for Active; 'I' for Inactive)
REMARK    1  A    between atoms: C_2  and  C_3 
REMARK       I    between atoms: C_3  and  N_4 
REMARK    2  A    between atoms: N_4  and  N_5 
REMARK    3  A    between atoms: C_21  and  C_22 
ROOT
HETATM    1  C   UNL     1      39.028  43.028  63.554  1.00  0.00     0.288 C 
HETATM    2  N   UNL     1      38.426  41.807  63.780  1.00  0.00    -0.251 N 
HETATM    3  O   UNL     1      40.194  43.144  63.181  1.00  0.00    -0.264 OA
HETATM    4  H   UNL     1      37.564  41.767  64.308  1.00  0.00     0.191 HD
ENDROOT
BRANCH   2   5
HETATM    5  N   UNL     1      39.255  40.706  63.944  1.00  0.00    -0.167 N 
HETATM    6  C   UNL     1      39.582  39.878  62.906  1.00  0.00     0.345 C 
HETATM    7  O   UNL     1      39.196  39.952  61.751  1.00  0.00    -0.245 OA
HETATM    8  N   UNL     1      40.497  38.959  63.372  1.00  0.00    -0.323 N 
HETATM    9  C   UNL     1      40.809  39.158  64.779  1.00  0.00     0.117 C 
HETATM   10  H   UNL     1      40.871  38.238  62.769  1.00  0.00     0.165 HD
HETATM   11  C   UNL     1      42.306  39.394  64.999  1.00  0.00     0.041 C 
HETATM   12  C   UNL     1      40.275  38.000  65.627  1.00  0.00     0.041 C 
HETATM   13  C   UNL     1      40.007  40.450  65.065  1.00  0.00     0.275 C 
HETATM   14  C   UNL     1      43.123  38.115  64.818  1.00  0.00     0.003 C 
HETATM   15  C   UNL     1      42.589  36.976  65.682  1.00  0.00     0.000 C 
HETATM   16  C   UNL     1      41.102  36.727  65.440  1.00  0.00     0.003 C 
HETATM   17  O   UNL     1      40.066  41.108  66.095  1.00  0.00    -0.268 OA
ENDBRANCH   2   5
BRANCH   1  18
HETATM   18  C   UNL     1      38.197  44.174  63.825  1.00  0.00     0.121 A 
HETATM   19  C   UNL     1      38.452  45.451  64.288  1.00  0.00     0.066 A 
HETATM   20  C   UNL     1      37.212  46.137  64.233  1.00  0.00     0.061 A 
HETATM   21  N   UNL     1      36.233  45.317  63.827  1.00  0.00    -0.178 NA
HETATM   22  N   UNL     1      36.851  44.152  63.586  1.00  0.00    -0.272 N 
HETATM   23  H   UNL     1      36.305  43.367  63.241  1.00  0.00     0.189 HD
BRANCH  20  24
HETATM   24  C   UNL     1      36.883  47.579  64.534  1.00  0.00     0.039 C 
HETATM   25  C   UNL     1      35.910  47.731  65.715  1.00  0.00     0.011 C 
HETATM   26  C   UNL     1      36.594  47.674  67.077  1.00  0.00     0.001 C 
HETATM   27  C   UNL     1      37.723  48.693  67.175  1.00  0.00     0.000 C 
HETATM   28  C   UNL     1      38.752  48.494  66.069  1.00  0.00     0.001 C 
HETATM   29  C   UNL     1      38.118  48.486  64.678  1.00  0.00     0.011 C 
ENDBRANCH  20  24
ENDBRANCH   1  18
TORSDOF 3
ENDMDL
MODEL 7
REMARK VINA RESULT:      -8.0      2.667      8.990
REMARK  3 active torsions:
REMARK  status: ('A' for Active; 'I' for Inactive)
REMARK    1  A    between atoms: C_2  and  C_3 
REMARK       I    between atoms: C_3  and  N_4 
REMARK    2  A    between atoms: N_4  and  N_5 
REMARK    3  A    between atoms: C_21  and  C_22 
ROOT
HETATM    1  C   UNL     1      23.137  48.600  48.881  1.00  0.00     0.288 C 
HETATM    2  N   UNL     1      22.010  48.750  49.663  1.00  0.00    -0.251 N 
HETATM    3  O   UNL     1      23.200  48.977  47.713  1.00  0.00    -0.264 OA
HETATM    4  H   UNL     1      21.923  48.218  50.520  1.00  0.00     0.191 HD
ENDROOT
BRANCH   2   5
HETATM    5  N   UNL     1      20.809  48.998  49.014  1.00  0.00    -0.167 N 
HETATM    6  C   UNL     1      19.966  47.992  48.630  1.00  0.00     0.345 C 
HETATM    7  O   UNL     1      20.137  46.792  48.762  1.00  0.00    -0.245 OA
HETATM    8  N   UNL     1      18.825  48.572  48.117  1.00  0.00    -0.323 N 
HETATM    9  C   UNL     1      18.886  50.025  48.144  1.00  0.00     0.117 C 
HETATM   10  H   UNL     1      18.064  48.008  47.761  1.00  0.00     0.165 HD
HETATM   11  C   UNL     1      17.728  50.625  48.947  1.00  0.00     0.041 C 
HETATM   12  C   UNL     1      18.963  50.595  46.725  1.00  0.00     0.041 C 
HETATM   13  C   UNL     1      20.228  50.237  48.884  1.00  0.00     0.275 C 
HETATM   14  C   UNL     1      16.397  50.519  48.203  1.00  0.00     0.003 C 
HETATM   15  C   UNL     1      16.486  51.108  46.798  1.00  0.00     0.000 C 
HETATM   16  C   UNL     1      17.625  50.487  45.992  1.00  0.00     0.003 C 
HETATM   17  O   UNL     1      20.656  51.311  49.283  1.00  0.00    -0.268 OA
ENDBRANCH   2   5
BRANCH   1  18
HETATM   18  C   UNL     1      24.237  47.928  49.525  1.00  0.00     0.121 A 
HETATM   19  C   UNL     1      24.341  46.778  50.285  1.00  0.00     0.066 A 
HETATM   20  C   UNL     1      25.725  46.602  50.533  1.00  0.00     0.061 A 
HETATM   21  N   UNL     1      26.433  47.617  50.019  1.00  0.00    -0.178 NA
HETATM   22  N   UNL     1      25.519  48.392  49.418  1.00  0.00    -0.272 N 
HETATM   23  H   UNL     1      25.826  49.229  48.931  1.00  0.00     0.189 HD
BRANCH  20  24
HETATM   24  C   UNL     1      26.454  45.483  51.237  1.00  0.00     0.039 C 
HETATM   25  C   UNL     1      25.531  44.646  52.136  1.00  0.00     0.011 C 
HETATM   26  C   UNL     1      24.755  43.572  51.379  1.00  0.00     0.001 C 
HETATM   27  C   UNL     1      25.690  42.672  50.580  1.00  0.00     0.000 C 
HETATM   28  C   UNL     1      26.545  43.475  49.609  1.00  0.00     0.001 C 
HETATM   29  C   UNL     1      27.306  44.606  50.302  1.00  0.00     0.011 C 
ENDBRANCH  20  24
ENDBRANCH   1  18
TORSDOF 3
ENDMDL
MODEL 8
REMARK VINA RESULT:      -8.0     19.695     21.038
REMARK  3 active torsions:
REMARK  status: ('A' for Active; 'I' for Inactive)
REMARK    1  A    between atoms: C_2  and  C_3 
REMARK       I    between atoms: C_3  and  N_4 
REMARK    2  A    between atoms: N_4  and  N_5 
REMARK    3  A    between atoms: C_21  and  C_22 
ROOT
HETATM    1  C   UNL     1      37.497  45.113  64.337  1.00  0.00     0.288 C 
HETATM    2  N   UNL     1      37.868  44.318  65.403  1.00  0.00    -0.251 N 
HETATM    3  O   UNL     1      37.125  44.658  63.257  1.00  0.00    -0.264 OA
HETATM    4  H   UNL     1      38.387  44.725  66.171  1.00  0.00     0.191 HD
ENDROOT
BRANCH   2   5
HETATM    5  N   UNL     1      38.176  42.992  65.135  1.00  0.00    -0.167 N 
HETATM    6  C   UNL     1      37.226  42.008  65.131  1.00  0.00     0.345 C 
HETATM    7  O   UNL     1      36.037  42.127  65.376  1.00  0.00    -0.245 OA
HETATM    8  N   UNL     1      37.833  40.839  64.726  1.00  0.00    -0.323 N 
HETATM    9  C   UNL     1      39.249  41.021  64.446  1.00  0.00     0.117 C 
HETATM   10  H   UNL     1      37.313  39.973  64.660  1.00  0.00     0.165 HD
HETATM   11  C   UNL     1      39.597  40.626  63.008  1.00  0.00     0.041 C 
HETATM   12  C   UNL     1      40.109  40.282  65.475  1.00  0.00     0.041 C 
HETATM   13  C   UNL     1      39.378  42.552  64.635  1.00  0.00     0.275 C 
HETATM   14  C   UNL     1      39.573  39.111  62.807  1.00  0.00     0.003 C 
HETATM   15  C   UNL     1      40.449  38.391  63.828  1.00  0.00     0.000 C 
HETATM   16  C   UNL     1      40.080  38.768  65.261  1.00  0.00     0.003 C 
HETATM   17  O   UNL     1      40.367  43.218  64.365  1.00  0.00    -0.268 OA
ENDBRANCH   2   5
BRANCH   1  18
HETATM   18  C   UNL     1      37.614  46.530  64.567  1.00  0.00     0.121 A 
HETATM   19  C   UNL     1      38.447  47.305  65.352  1.00  0.00     0.066 A 
HETATM   20  C   UNL     1      38.120  48.651  65.052  1.00  0.00     0.061 A 
HETATM   21  N   UNL     1      37.099  48.710  64.186  1.00  0.00    -0.178 NA
HETATM   22  N   UNL     1      36.819  47.429  63.910  1.00  0.00    -0.272 N 
HETATM   23  H   UNL     1      36.079  47.218  63.247  1.00  0.00     0.189 HD
BRANCH  20  24
HETATM   24  C   UNL     1      38.746  49.937  65.535  1.00  0.00     0.039 C 
HETATM   25  C   UNL     1      37.710  50.932  66.081  1.00  0.00     0.011 C 
HETATM   26  C   UNL     1      37.311  50.663  67.528  1.00  0.00     0.001 C 
HETATM   27  C   UNL     1      38.532  50.602  68.439  1.00  0.00     0.000 C 
HETATM   28  C   UNL     1      39.527  49.548  67.970  1.00  0.00     0.001 C 
HETATM   29  C   UNL     1      39.924  49.733  66.505  1.00  0.00     0.011 C 
ENDBRANCH  20  24
ENDBRANCH   1  18
TORSDOF 3
ENDMDL
MODEL 9
REMARK VINA RESULT:      -7.9      5.498      9.276
REMARK  3 active torsions:
REMARK  status: ('A' for Active; 'I' for Inactive)
REMARK    1  A    between atoms: C_2  and  C_3 
REMARK       I    between atoms: C_3  and  N_4 
REMARK    2  A    between atoms: N_4  and  N_5 
REMARK    3  A    between atoms: C_21  and  C_22 
ROOT
HETATM    1  C   UNL     1      28.437  41.233  52.060  1.00  0.00     0.288 C 
HETATM    2  N   UNL     1      27.236  41.911  52.110  1.00  0.00    -0.251 N 
HETATM    3  O   UNL     1      29.443  41.602  52.663  1.00  0.00    -0.264 OA
HETATM    4  H   UNL     1      26.522  41.711  51.421  1.00  0.00     0.191 HD
ENDROOT
BRANCH   2   5
HETATM    5  N   UNL     1      27.262  43.227  52.551  1.00  0.00    -0.167 N 
HETATM    6  C   UNL     1      27.387  44.282  51.691  1.00  0.00     0.345 C 
HETATM    7  O   UNL     1      27.519  44.238  50.479  1.00  0.00    -0.245 OA
HETATM    8  N   UNL     1      27.269  45.441  52.427  1.00  0.00    -0.323 N 
HETATM    9  C   UNL     1      27.059  45.176  53.842  1.00  0.00     0.117 C 
HETATM   10  H   UNL     1      27.341  46.351  51.990  1.00  0.00     0.165 HD
HETATM   11  C   UNL     1      25.758  45.805  54.349  1.00  0.00     0.041 C 
HETATM   12  C   UNL     1      28.274  45.614  54.666  1.00  0.00     0.041 C 
HETATM   13  C   UNL     1      26.946  43.633  53.825  1.00  0.00     0.275 C 
HETATM   14  C   UNL     1      25.863  47.325  54.470  1.00  0.00     0.003 C 
HETATM   15  C   UNL     1      27.067  47.744  55.308  1.00  0.00     0.000 C 
HETATM   16  C   UNL     1      28.366  47.136  54.783  1.00  0.00     0.003 C 
HETATM   17  O   UNL     1      26.619  42.936  54.776  1.00  0.00    -0.268 OA
ENDBRANCH   2   5
BRANCH   1  18
HETATM   18  C   UNL     1      28.442  40.069  51.211  1.00  0.00     0.121 A 
HETATM   19  C   UNL     1      27.693  39.683  50.115  1.00  0.00     0.066 A 
HETATM   20  C   UNL     1      28.265  38.467  49.665  1.00  0.00     0.061 A 
HETATM   21  N   UNL     1      29.264  38.084  50.471  1.00  0.00    -0.178 NA
HETATM   22  N   UNL     1      29.351  39.062  51.384  1.00  0.00    -0.272 N 
HETATM   23  H   UNL     1      30.065  39.002  52.104  1.00  0.00     0.189 HD
BRANCH  20  24
HETATM   24  C   UNL     1      27.928  37.618  48.463  1.00  0.00     0.039 C 
HETATM   25  C   UNL     1      26.414  37.497  48.228  1.00  0.00     0.011 C 
HETATM   26  C   UNL     1      25.819  38.681  47.472  1.00  0.00     0.001 C 
HETATM   27  C   UNL     1      26.551  38.925  46.158  1.00  0.00     0.000 C 
HETATM   28  C   UNL     1      28.041  39.147  46.380  1.00  0.00     0.001 C 
HETATM   29  C   UNL     1      28.685  38.016  47.183  1.00  0.00     0.011 C 
ENDBRANCH  20  24
ENDBRANCH   1  18
TORSDOF 3
ENDMDL
MODEL 10
REMARK VINA RESULT:      -7.9      3.092      9.160
REMARK  3 active torsions:
REMARK  status: ('A' for Active; 'I' for Inactive)
REMARK    1  A    between atoms: C_2  and  C_3 
REMARK       I    between atoms: C_3  and  N_4 
REMARK    2  A    between atoms: N_4  and  N_5 
REMARK    3  A    between atoms: C_21  and  C_22 
ROOT
HETATM    1  C   UNL     1      22.357  48.331  48.726  1.00  0.00     0.288 C 
HETATM    2  N   UNL     1      21.298  48.700  49.531  1.00  0.00    -0.251 N 
HETATM    3  O   UNL     1      22.461  48.677  47.551  1.00  0.00    -0.264 OA
HETATM    4  H   UNL     1      21.134  48.203  50.397  1.00  0.00     0.191 HD
ENDROOT
BRANCH   2   5
HETATM    5  N   UNL     1      20.150  49.164  48.904  1.00  0.00    -0.167 N 
HETATM    6  C   UNL     1      19.979  50.480  48.574  1.00  0.00     0.345 C 
HETATM    7  O   UNL     1      20.746  51.403  48.792  1.00  0.00    -0.245 OA
HETATM    8  N   UNL     1      18.797  50.589  47.874  1.00  0.00    -0.323 N 
HETATM    9  C   UNL     1      18.128  49.306  47.719  1.00  0.00     0.117 C 
HETATM   10  H   UNL     1      18.466  51.484  47.538  1.00  0.00     0.165 HD
HETATM   11  C   UNL     1      17.907  48.958  46.245  1.00  0.00     0.041 C 
HETATM   12  C   UNL     1      16.827  49.267  48.525  1.00  0.00     0.041 C 
HETATM   13  C   UNL     1      19.181  48.362  48.349  1.00  0.00     0.275 C 
HETATM   14  C   UNL     1      16.805  49.807  45.613  1.00  0.00     0.003 C 
HETATM   15  C   UNL     1      15.510  49.742  46.418  1.00  0.00     0.000 C 
HETATM   16  C   UNL     1      15.731  50.117  47.882  1.00  0.00     0.003 C 
HETATM   17  O   UNL     1      19.142  47.140  48.325  1.00  0.00    -0.268 OA
ENDBRANCH   2   5
BRANCH   1  18
HETATM   18  C   UNL     1      23.325  47.469  49.356  1.00  0.00     0.121 A 
HETATM   19  C   UNL     1      24.539  47.691  49.979  1.00  0.00     0.066 A 
HETATM   20  C   UNL     1      24.950  46.432  50.484  1.00  0.00     0.061 A 
HETATM   21  N   UNL     1      24.080  45.474  50.137  1.00  0.00    -0.178 NA
HETATM   22  N   UNL     1      23.117  46.122  49.467  1.00  0.00    -0.272 N 
HETATM   23  H   UNL     1      22.322  45.597  49.115  1.00  0.00     0.189 HD
BRANCH  20  24
HETATM   24  C   UNL     1      26.149  46.063  51.323  1.00  0.00     0.039 C 
HETATM   25  C   UNL     1      26.532  47.162  52.327  1.00  0.00     0.011 C 
HETATM   26  C   UNL     1      25.709  47.128  53.611  1.00  0.00     0.001 C 
HETATM   27  C   UNL     1      25.766  45.755  54.269  1.00  0.00     0.000 C 
HETATM   28  C   UNL     1      25.293  44.660  53.321  1.00  0.00     0.001 C 
HETATM   29  C   UNL     1      26.045  44.679  51.990  1.00  0.00     0.011 C 
ENDBRANCH  20  24
ENDBRANCH   1  18
TORSDOF 3
ENDMDL
