MODEL 1
REMARK VINA RESULT:      -8.8      0.000      0.000
REMARK  4 active torsions:
REMARK  status: ('A' for Active; 'I' for Inactive)
REMARK    1  A    between atoms: C_5  and  N_6 
REMARK       I    between atoms: N_6  and  C_7 
REMARK    2  A    between atoms: C_7  and  C_8 
REMARK    3  A    between atoms: C_12  and  C_13 
REMARK    4  A    between atoms: C_15  and  O_16 
ROOT
HETATM    1  C   UNL     1      25.272  45.432  52.048  1.00  0.00     0.120 A 
HETATM    2  N   UNL     1      24.260  45.155  51.173  1.00  0.00    -0.272 N 
HETATM    3  H   UNL     1      23.628  44.360  51.209  1.00  0.00     0.189 HD
HETATM    4  N   UNL     1      24.114  46.059  50.193  1.00  0.00    -0.174 NA
HETATM    5  C   UNL     1      25.100  46.946  50.401  1.00  0.00     0.089 A 
HETATM    6  C   UNL     1      25.844  46.590  51.562  1.00  0.00     0.071 A 
ENDROOT
BRANCH   1   7
HETATM    7  C   UNL     1      25.551  44.583  53.174  1.00  0.00     0.270 C 
HETATM    8  N   UNL     1      26.870  44.208  53.304  1.00  0.00    -0.351 N 
HETATM    9  H   UNL     1      27.551  44.669  52.720  1.00  0.00     0.163 HD
HETATM   10  O   UNL     1      24.678  44.235  53.961  1.00  0.00    -0.266 OA
BRANCH   8  11
HETATM   11  C   UNL     1      27.352  43.430  54.440  1.00  0.00     0.084 C 
HETATM   12  C   UNL     1      28.401  42.409  53.983  1.00  0.00     0.025 C 
HETATM   13  C   UNL     1      29.739  43.055  53.610  1.00  0.00     0.006 C 
HETATM   14  C   UNL     1      30.293  43.975  54.707  1.00  0.00    -0.019 C 
HETATM   15  C   UNL     1      30.850  43.172  55.886  1.00  0.00     0.010 C 
HETATM   16  C   UNL     1      29.235  44.989  55.159  1.00  0.00     0.006 C 
HETATM   17  C   UNL     1      27.905  44.340  55.545  1.00  0.00     0.025 C 
ENDBRANCH   8  11
ENDBRANCH   1   7
BRANCH   5  18
HETATM   18  C   UNL     1      25.305  48.097  49.517  1.00  0.00    -0.003 A 
HETATM   19  C   UNL     1      24.213  48.687  48.856  1.00  0.00     0.050 A 
HETATM   20  C   UNL     1      24.393  49.793  48.023  1.00  0.00     0.069 A 
HETATM   21  C   UNL     1      25.677  50.311  47.840  1.00  0.00     0.037 A 
HETATM   22  C   UNL     1      26.773  49.733  48.480  1.00  0.00     0.004 A 
HETATM   23  C   UNL     1      26.587  48.630  49.317  1.00  0.00     0.014 A 
BRANCH  20  24
HETATM   24  O   UNL     1      23.410  50.455  47.338  1.00  0.00    -0.356 OA
HETATM   25  C   UNL     1      22.067  50.122  47.665  1.00  0.00     0.210 C 
ENDBRANCH  20  24
ENDBRANCH   5  18
TORSDOF 4
ENDMDL
MODEL 2
REMARK VINA RESULT:      -8.5      2.316      8.647
REMARK  4 active torsions:
REMARK  status: ('A' for Active; 'I' for Inactive)
REMARK    1  A    between atoms: C_5  and  N_6 
REMARK       I    between atoms: N_6  and  C_7 
REMARK    2  A    between atoms: C_7  and  C_8 
REMARK    3  A    between atoms: C_12  and  C_13 
REMARK    4  A    between atoms: C_15  and  O_16 
ROOT
HETATM    1  C   UNL     1      24.324  46.184  50.634  1.00  0.00     0.120 A 
HETATM    2  N   UNL     1      24.069  45.002  51.270  1.00  0.00    -0.272 N 
HETATM    3  H   UNL     1      23.355  44.323  51.025  1.00  0.00     0.189 HD
HETATM    4  N   UNL     1      24.880  44.748  52.309  1.00  0.00    -0.174 NA
HETATM    5  C   UNL     1      25.672  45.829  52.392  1.00  0.00     0.089 A 
HETATM    6  C   UNL     1      25.358  46.749  51.352  1.00  0.00     0.071 A 
ENDROOT
BRANCH   1   7
HETATM    7  C   UNL     1      23.569  46.601  49.483  1.00  0.00     0.270 C 
HETATM    8  N   UNL     1      23.080  47.886  49.546  1.00  0.00    -0.351 N 
HETATM    9  H   UNL     1      23.411  48.481  50.291  1.00  0.00     0.163 HD
HETATM   10  O   UNL     1      23.391  45.865  48.519  1.00  0.00    -0.266 OA
BRANCH   8  11
HETATM   11  C   UNL     1      22.377  48.509  48.430  1.00  0.00     0.084 C 
HETATM   12  C   UNL     1      20.866  48.527  48.693  1.00  0.00     0.025 C 
HETATM   13  C   UNL     1      20.459  49.541  49.767  1.00  0.00     0.006 C 
HETATM   14  C   UNL     1      20.999  50.953  49.500  1.00  0.00    -0.019 C 
HETATM   15  C   UNL     1      20.236  51.641  48.364  1.00  0.00     0.010 C 
HETATM   16  C   UNL     1      22.509  50.923  49.235  1.00  0.00     0.006 C 
HETATM   17  C   UNL     1      22.910  49.921  48.151  1.00  0.00     0.025 C 
ENDBRANCH   8  11
ENDBRANCH   1   7
BRANCH   5  18
HETATM   18  C   UNL     1      26.698  45.959  53.430  1.00  0.00    -0.003 A 
HETATM   19  C   UNL     1      27.546  44.876  53.729  1.00  0.00     0.050 A 
HETATM   20  C   UNL     1      28.536  44.992  54.706  1.00  0.00     0.069 A 
HETATM   21  C   UNL     1      28.679  46.196  55.399  1.00  0.00     0.037 A 
HETATM   22  C   UNL     1      27.842  47.276  55.121  1.00  0.00     0.004 A 
HETATM   23  C   UNL     1      26.856  47.158  54.141  1.00  0.00     0.014 A 
BRANCH  20  24
HETATM   24  O   UNL     1      29.422  44.016  55.075  1.00  0.00    -0.356 OA
HETATM   25  C   UNL     1      30.526  44.422  55.875  1.00  0.00     0.210 C 
ENDBRANCH  20  24
ENDBRANCH   5  18
TORSDOF 4
ENDMDL
MODEL 3
REMARK VINA RESULT:      -8.2      2.630      8.956
REMARK  4 active torsions:
REMARK  status: ('A' for Active; 'I' for Inactive)
REMARK    1  A    between atoms: C_5  and  N_6 
REMARK       I    between atoms: N_6  and  C_7 
REMARK    2  A    between atoms: C_7  and  C_8 
REMARK    3  A    between atoms: C_12  and  C_13 
REMARK    4  A    between atoms: C_15  and  O_16 
ROOT
HETATM    1  C   UNL     1      23.737  47.269  49.466  1.00  0.00     0.120 A 
HETATM    2  N   UNL     1      24.683  48.221  49.719  1.00  0.00    -0.272 N 
HETATM    3  H   UNL     1      24.682  49.181  49.386  1.00  0.00     0.189 HD
HETATM    4  N   UNL     1      25.688  47.806  50.505  1.00  0.00    -0.174 NA
HETATM    5  C   UNL     1      25.421  46.511  50.742  1.00  0.00     0.089 A 
HETATM    6  C   UNL     1      24.198  46.140  50.112  1.00  0.00     0.071 A 
ENDROOT
BRANCH   1   7
HETATM    7  C   UNL     1      22.576  47.550  48.665  1.00  0.00     0.270 C 
HETATM    8  N   UNL     1      21.622  48.327  49.281  1.00  0.00    -0.351 N 
HETATM    9  H   UNL     1      21.864  48.766  50.157  1.00  0.00     0.163 HD
HETATM   10  O   UNL     1      22.461  47.137  47.516  1.00  0.00    -0.266 OA
BRANCH   8  11
HETATM   11  C   UNL     1      20.426  48.792  48.587  1.00  0.00     0.084 C 
HETATM   12  C   UNL     1      19.310  49.102  49.591  1.00  0.00     0.025 C 
HETATM   13  C   UNL     1      19.572  50.377  50.400  1.00  0.00     0.006 C 
HETATM   14  C   UNL     1      19.889  51.595  49.521  1.00  0.00    -0.019 C 
HETATM   15  C   UNL     1      18.634  52.128  48.823  1.00  0.00     0.010 C 
HETATM   16  C   UNL     1      21.004  51.273  48.517  1.00  0.00     0.006 C 
HETATM   17  C   UNL     1      20.732  50.008  47.702  1.00  0.00     0.025 C 
ENDBRANCH   8  11
ENDBRANCH   1   7
BRANCH   5  18
HETATM   18  C   UNL     1      26.307  45.674  51.554  1.00  0.00    -0.003 A 
HETATM   19  C   UNL     1      26.436  45.909  52.935  1.00  0.00     0.050 A 
HETATM   20  C   UNL     1      27.267  45.109  53.722  1.00  0.00     0.069 A 
HETATM   21  C   UNL     1      27.982  44.069  53.125  1.00  0.00     0.037 A 
HETATM   22  C   UNL     1      27.872  43.827  51.757  1.00  0.00     0.004 A 
HETATM   23  C   UNL     1      27.037  44.626  50.974  1.00  0.00     0.014 A 
BRANCH  20  24
HETATM   24  O   UNL     1      27.465  45.235  55.071  1.00  0.00    -0.356 OA
HETATM   25  C   UNL     1      28.461  46.160  55.488  1.00  0.00     0.210 C 
ENDBRANCH  20  24
ENDBRANCH   5  18
TORSDOF 4
ENDMDL
MODEL 4
REMARK VINA RESULT:      -7.9      4.909      8.205
REMARK  4 active torsions:
REMARK  status: ('A' for Active; 'I' for Inactive)
REMARK    1  A    between atoms: C_5  and  N_6 
REMARK       I    between atoms: N_6  and  C_7 
REMARK    2  A    between atoms: C_7  and  C_8 
REMARK    3  A    between atoms: C_12  and  C_13 
REMARK    4  A    between atoms: C_15  and  O_16 
ROOT
HETATM    1  C   UNL     1      27.320  43.243  51.516  1.00  0.00     0.120 A 
HETATM    2  N   UNL     1      26.301  43.096  52.413  1.00  0.00    -0.272 N 
HETATM    3  H   UNL     1      25.386  42.694  52.232  1.00  0.00     0.189 HD
HETATM    4  N   UNL     1      26.590  43.524  53.652  1.00  0.00    -0.174 NA
HETATM    5  C   UNL     1      27.834  44.020  53.557  1.00  0.00     0.089 A 
HETATM    6  C   UNL     1      28.329  43.853  52.232  1.00  0.00     0.071 A 
ENDROOT
BRANCH   1   7
HETATM    7  C   UNL     1      27.192  42.811  50.150  1.00  0.00     0.270 C 
HETATM    8  N   UNL     1      27.339  41.456  49.955  1.00  0.00    -0.351 N 
HETATM    9  H   UNL     1      27.361  40.862  50.770  1.00  0.00     0.163 HD
HETATM   10  O   UNL     1      26.956  43.596  49.237  1.00  0.00    -0.266 OA
BRANCH   8  11
HETATM   11  C   UNL     1      27.145  40.830  48.652  1.00  0.00     0.084 C 
HETATM   12  C   UNL     1      28.496  40.455  48.031  1.00  0.00     0.025 C 
HETATM   13  C   UNL     1      29.160  39.260  48.723  1.00  0.00     0.006 C 
HETATM   14  C   UNL     1      28.237  38.038  48.836  1.00  0.00    -0.019 C 
HETATM   15  C   UNL     1      28.062  37.338  47.485  1.00  0.00     0.010 C 
HETATM   16  C   UNL     1      26.887  38.425  49.454  1.00  0.00     0.006 C 
HETATM   17  C   UNL     1      26.220  39.609  48.751  1.00  0.00     0.025 C 
ENDBRANCH   8  11
ENDBRANCH   1   7
BRANCH   5  18
HETATM   18  C   UNL     1      28.519  44.618  54.706  1.00  0.00    -0.003 A 
HETATM   19  C   UNL     1      29.773  44.131  55.117  1.00  0.00     0.050 A 
HETATM   20  C   UNL     1      30.442  44.703  56.201  1.00  0.00     0.069 A 
HETATM   21  C   UNL     1      29.850  45.764  56.889  1.00  0.00     0.037 A 
HETATM   22  C   UNL     1      28.604  46.253  56.501  1.00  0.00     0.004 A 
HETATM   23  C   UNL     1      27.941  45.683  55.413  1.00  0.00     0.014 A 
BRANCH  20  24
HETATM   24  O   UNL     1      31.665  44.323  56.685  1.00  0.00    -0.356 OA
HETATM   25  C   UNL     1      31.769  43.000  57.195  1.00  0.00     0.210 C 
ENDBRANCH  20  24
ENDBRANCH   5  18
TORSDOF 4
ENDMDL
MODEL 5
REMARK VINA RESULT:      -7.8      2.932      9.057
REMARK  4 active torsions:
REMARK  status: ('A' for Active; 'I' for Inactive)
REMARK    1  A    between atoms: C_5  and  N_6 
REMARK       I    between atoms: N_6  and  C_7 
REMARK    2  A    between atoms: C_7  and  C_8 
REMARK    3  A    between atoms: C_12  and  C_13 
REMARK    4  A    between atoms: C_15  and  O_16 
ROOT
HETATM    1  C   UNL     1      23.404  47.140  49.423  1.00  0.00     0.120 A 
HETATM    2  N   UNL     1      24.037  48.021  50.252  1.00  0.00    -0.272 N 
HETATM    3  H   UNL     1      23.847  49.015  50.340  1.00  0.00     0.189 HD
HETATM    4  N   UNL     1      24.988  47.469  51.021  1.00  0.00    -0.174 NA
HETATM    5  C   UNL     1      25.018  46.179  50.650  1.00  0.00     0.089 A 
HETATM    6  C   UNL     1      24.031  45.932  49.654  1.00  0.00     0.071 A 
ENDROOT
BRANCH   1   7
HETATM    7  C   UNL     1      22.339  47.555  48.550  1.00  0.00     0.270 C 
HETATM    8  N   UNL     1      21.361  48.315  49.150  1.00  0.00    -0.351 N 
HETATM    9  H   UNL     1      21.534  48.655  50.084  1.00  0.00     0.163 HD
HETATM   10  O   UNL     1      22.319  47.261  47.359  1.00  0.00    -0.266 OA
BRANCH   8  11
HETATM   11  C   UNL     1      20.259  48.905  48.398  1.00  0.00     0.084 C 
HETATM   12  C   UNL     1      19.068  49.182  49.323  1.00  0.00     0.025 C 
HETATM   13  C   UNL     1      19.308  50.362  50.269  1.00  0.00     0.006 C 
HETATM   14  C   UNL     1      19.762  51.636  49.543  1.00  0.00    -0.019 C 
HETATM   15  C   UNL     1      18.604  52.296  48.789  1.00  0.00     0.010 C 
HETATM   16  C   UNL     1      20.951  51.348  48.618  1.00  0.00     0.006 C 
HETATM   17  C   UNL     1      20.701  50.178  47.664  1.00  0.00     0.025 C 
ENDBRANCH   8  11
ENDBRANCH   1   7
BRANCH   5  18
HETATM   18  C   UNL     1      25.955  45.223  51.246  1.00  0.00    -0.003 A 
HETATM   19  C   UNL     1      26.317  44.056  50.549  1.00  0.00     0.050 A 
HETATM   20  C   UNL     1      27.220  43.145  51.100  1.00  0.00     0.069 A 
HETATM   21  C   UNL     1      27.762  43.396  52.362  1.00  0.00     0.037 A 
HETATM   22  C   UNL     1      27.409  44.543  53.070  1.00  0.00     0.004 A 
HETATM   23  C   UNL     1      26.509  45.454  52.514  1.00  0.00     0.014 A 
BRANCH  20  24
HETATM   24  O   UNL     1      27.653  41.986  50.515  1.00  0.00    -0.356 OA
HETATM   25  C   UNL     1      26.972  40.792  50.880  1.00  0.00     0.210 C 
ENDBRANCH  20  24
ENDBRANCH   5  18
TORSDOF 4
ENDMDL
MODEL 6
REMARK VINA RESULT:      -7.7      5.360      8.312
REMARK  4 active torsions:
REMARK  status: ('A' for Active; 'I' for Inactive)
REMARK    1  A    between atoms: C_5  and  N_6 
REMARK       I    between atoms: N_6  and  C_7 
REMARK    2  A    between atoms: C_7  and  C_8 
REMARK    3  A    between atoms: C_12  and  C_13 
REMARK    4  A    between atoms: C_15  and  O_16 
ROOT
HETATM    1  C   UNL     1      28.785  40.887  52.229  1.00  0.00     0.120 A 
HETATM    2  N   UNL     1      27.638  40.979  52.965  1.00  0.00    -0.272 N 
HETATM    3  H   UNL     1      26.794  40.425  52.846  1.00  0.00     0.189 HD
HETATM    4  N   UNL     1      27.681  41.897  53.943  1.00  0.00    -0.174 NA
HETATM    5  C   UNL     1      28.889  42.469  53.817  1.00  0.00     0.089 A 
HETATM    6  C   UNL     1      29.615  41.855  52.757  1.00  0.00     0.071 A 
ENDROOT
BRANCH   1   7
HETATM    7  C   UNL     1      28.922  39.936  51.159  1.00  0.00     0.270 C 
HETATM    8  N   UNL     1      28.429  40.357  49.944  1.00  0.00    -0.351 N 
HETATM    9  H   UNL     1      28.166  41.326  49.851  1.00  0.00     0.163 HD
HETATM   10  O   UNL     1      29.451  38.842  51.323  1.00  0.00    -0.266 OA
BRANCH   8  11
HETATM   11  C   UNL     1      28.571  39.564  48.728  1.00  0.00     0.084 C 
HETATM   12  C   UNL     1      27.430  38.544  48.618  1.00  0.00     0.025 C 
HETATM   13  C   UNL     1      26.085  39.189  48.272  1.00  0.00     0.006 C 
HETATM   14  C   UNL     1      26.149  40.094  47.033  1.00  0.00    -0.019 C 
HETATM   15  C   UNL     1      26.247  39.275  45.743  1.00  0.00     0.010 C 
HETATM   16  C   UNL     1      27.295  41.107  47.151  1.00  0.00     0.006 C 
HETATM   17  C   UNL     1      28.640  40.458  47.482  1.00  0.00     0.025 C 
ENDBRANCH   8  11
ENDBRANCH   1   7
BRANCH   5  18
HETATM   18  C   UNL     1      29.326  43.556  54.697  1.00  0.00    -0.003 A 
HETATM   19  C   UNL     1      28.535  44.710  54.845  1.00  0.00     0.050 A 
HETATM   20  C   UNL     1      28.934  45.747  55.691  1.00  0.00     0.069 A 
HETATM   21  C   UNL     1      30.138  45.636  56.390  1.00  0.00     0.037 A 
HETATM   22  C   UNL     1      30.938  44.504  56.248  1.00  0.00     0.004 A 
HETATM   23  C   UNL     1      30.534  43.467  55.405  1.00  0.00     0.014 A 
BRANCH  20  24
HETATM   24  O   UNL     1      28.246  46.907  55.923  1.00  0.00    -0.356 OA
HETATM   25  C   UNL     1      27.467  47.415  54.847  1.00  0.00     0.210 C 
ENDBRANCH  20  24
ENDBRANCH   5  18
TORSDOF 4
ENDMDL
MODEL 7
REMARK VINA RESULT:      -7.7      2.340      9.085
REMARK  4 active torsions:
REMARK  status: ('A' for Active; 'I' for Inactive)
REMARK    1  A    between atoms: C_5  and  N_6 
REMARK       I    between atoms: N_6  and  C_7 
REMARK    2  A    between atoms: C_7  and  C_8 
REMARK    3  A    between atoms: C_12  and  C_13 
REMARK    4  A    between atoms: C_15  and  O_16 
ROOT
HETATM    1  C   UNL     1      24.333  47.363  50.111  1.00  0.00     0.120 A 
HETATM    2  N   UNL     1      23.669  46.211  49.801  1.00  0.00    -0.272 N 
HETATM    3  H   UNL     1      22.932  46.102  49.111  1.00  0.00     0.189 HD
HETATM    4  N   UNL     1      24.076  45.136  50.493  1.00  0.00    -0.174 NA
HETATM    5  C   UNL     1      25.016  45.607  51.329  1.00  0.00     0.089 A 
HETATM    6  C   UNL     1      25.210  47.001  51.112  1.00  0.00     0.071 A 
ENDROOT
BRANCH   1   7
HETATM    7  C   UNL     1      24.043  48.605  49.445  1.00  0.00     0.270 C 
HETATM    8  N   UNL     1      22.800  49.130  49.714  1.00  0.00    -0.351 N 
HETATM    9  H   UNL     1      22.262  48.712  50.458  1.00  0.00     0.163 HD
HETATM   10  O   UNL     1      24.854  49.153  48.706  1.00  0.00    -0.266 OA
BRANCH   8  11
HETATM   11  C   UNL     1      22.374  50.429  49.205  1.00  0.00     0.084 C 
HETATM   12  C   UNL     1      21.799  50.286  47.790  1.00  0.00     0.025 C 
HETATM   13  C   UNL     1      20.424  49.611  47.770  1.00  0.00     0.006 C 
HETATM   14  C   UNL     1      19.414  50.268  48.722  1.00  0.00    -0.019 C 
HETATM   15  C   UNL     1      18.918  51.610  48.177  1.00  0.00     0.010 C 
HETATM   16  C   UNL     1      20.000  50.409  50.132  1.00  0.00     0.006 C 
HETATM   17  C   UNL     1      21.366  51.097  50.150  1.00  0.00     0.025 C 
ENDBRANCH   8  11
ENDBRANCH   1   7
BRANCH   5  18
HETATM   18  C   UNL     1      25.704  44.739  52.289  1.00  0.00    -0.003 A 
HETATM   19  C   UNL     1      26.664  43.812  51.845  1.00  0.00     0.050 A 
HETATM   20  C   UNL     1      27.337  42.990  52.751  1.00  0.00     0.069 A 
HETATM   21  C   UNL     1      27.042  43.087  54.113  1.00  0.00     0.037 A 
HETATM   22  C   UNL     1      26.087  43.993  54.569  1.00  0.00     0.004 A 
HETATM   23  C   UNL     1      25.420  44.817  53.661  1.00  0.00     0.014 A 
BRANCH  20  24
HETATM   24  O   UNL     1      28.294  42.062  52.441  1.00  0.00    -0.356 OA
HETATM   25  C   UNL     1      28.506  41.020  53.386  1.00  0.00     0.210 C 
ENDBRANCH  20  24
ENDBRANCH   5  18
TORSDOF 4
ENDMDL
MODEL 8
REMARK VINA RESULT:      -7.5      2.846      5.451
REMARK  4 active torsions:
REMARK  status: ('A' for Active; 'I' for Inactive)
REMARK    1  A    between atoms: C_5  and  N_6 
REMARK       I    between atoms: N_6  and  C_7 
REMARK    2  A    between atoms: C_7  and  C_8 
REMARK    3  A    between atoms: C_12  and  C_13 
REMARK    4  A    between atoms: C_15  and  O_16 
ROOT
HETATM    1  C   UNL     1      23.409  48.461  49.419  1.00  0.00     0.120 A 
HETATM    2  N   UNL     1      22.445  47.517  49.206  1.00  0.00    -0.272 N 
HETATM    3  H   UNL     1      22.545  46.512  49.317  1.00  0.00     0.189 HD
HETATM    4  N   UNL     1      21.259  48.015  48.827  1.00  0.00    -0.174 NA
HETATM    5  C   UNL     1      21.459  49.340  48.739  1.00  0.00     0.089 A 
HETATM    6  C   UNL     1      22.796  49.659  49.112  1.00  0.00     0.071 A 
ENDROOT
BRANCH   1   7
HETATM    7  C   UNL     1      24.732  48.106  49.857  1.00  0.00     0.270 C 
HETATM    8  N   UNL     1      24.787  47.038  50.724  1.00  0.00    -0.351 N 
HETATM    9  H   UNL     1      23.948  46.494  50.859  1.00  0.00     0.163 HD
HETATM   10  O   UNL     1      25.729  48.705  49.471  1.00  0.00    -0.266 OA
BRANCH   8  11
HETATM   11  C   UNL     1      26.050  46.478  51.193  1.00  0.00     0.084 C 
HETATM   12  C   UNL     1      26.508  47.188  52.473  1.00  0.00     0.025 C 
HETATM   13  C   UNL     1      25.666  46.814  53.696  1.00  0.00     0.006 C 
HETATM   14  C   UNL     1      25.547  45.299  53.908  1.00  0.00    -0.019 C 
HETATM   15  C   UNL     1      26.849  44.702  54.449  1.00  0.00     0.010 C 
HETATM   16  C   UNL     1      25.092  44.598  52.621  1.00  0.00     0.006 C 
HETATM   17  C   UNL     1      25.945  44.962  51.405  1.00  0.00     0.025 C 
ENDBRANCH   8  11
ENDBRANCH   1   7
BRANCH   5  18
HETATM   18  C   UNL     1      20.396  50.258  48.323  1.00  0.00    -0.003 A 
HETATM   19  C   UNL     1      19.489  49.883  47.315  1.00  0.00     0.050 A 
HETATM   20  C   UNL     1      18.463  50.744  46.920  1.00  0.00     0.069 A 
HETATM   21  C   UNL     1      18.345  51.995  47.530  1.00  0.00     0.037 A 
HETATM   22  C   UNL     1      19.240  52.386  48.525  1.00  0.00     0.004 A 
HETATM   23  C   UNL     1      20.262  51.520  48.920  1.00  0.00     0.014 A 
BRANCH  20  24
HETATM   24  O   UNL     1      17.520  50.487  45.962  1.00  0.00    -0.356 OA
HETATM   25  C   UNL     1      16.594  51.530  45.680  1.00  0.00     0.210 C 
ENDBRANCH  20  24
ENDBRANCH   5  18
TORSDOF 4
ENDMDL
MODEL 9
REMARK VINA RESULT:      -7.5     17.136     18.854
REMARK  4 active torsions:
REMARK  status: ('A' for Active; 'I' for Inactive)
REMARK    1  A    between atoms: C_5  and  N_6 
REMARK       I    between atoms: N_6  and  C_7 
REMARK    2  A    between atoms: C_7  and  C_8 
REMARK    3  A    between atoms: C_12  and  C_13 
REMARK    4  A    between atoms: C_15  and  O_16 
ROOT
HETATM    1  C   UNL     1      37.490  47.584  64.773  1.00  0.00     0.120 A 
HETATM    2  N   UNL     1      38.675  48.177  64.441  1.00  0.00    -0.272 N 
HETATM    3  H   UNL     1      39.385  47.808  63.816  1.00  0.00     0.189 HD
HETATM    4  N   UNL     1      38.870  49.376  65.012  1.00  0.00    -0.174 NA
HETATM    5  C   UNL     1      37.791  49.560  65.791  1.00  0.00     0.089 A 
HETATM    6  C   UNL     1      36.898  48.459  65.660  1.00  0.00     0.071 A 
ENDROOT
BRANCH   1   7
HETATM    7  C   UNL     1      37.106  46.308  64.229  1.00  0.00     0.270 C 
HETATM    8  N   UNL     1      38.151  45.529  63.786  1.00  0.00    -0.351 N 
HETATM    9  H   UNL     1      39.089  45.823  64.015  1.00  0.00     0.163 HD
HETATM   10  O   UNL     1      35.935  45.946  64.181  1.00  0.00    -0.266 OA
BRANCH   8  11
HETATM   11  C   UNL     1      37.957  44.169  63.296  1.00  0.00     0.084 C 
HETATM   12  C   UNL     1      39.147  43.737  62.432  1.00  0.00     0.025 C 
HETATM   13  C   UNL     1      40.413  43.468  63.251  1.00  0.00     0.006 C 
HETATM   14  C   UNL     1      40.184  42.495  64.415  1.00  0.00    -0.019 C 
HETATM   15  C   UNL     1      40.030  41.053  63.922  1.00  0.00     0.010 C 
HETATM   16  C   UNL     1      38.990  42.934  65.272  1.00  0.00     0.006 C 
HETATM   17  C   UNL     1      37.723  43.187  64.452  1.00  0.00     0.025 C 
ENDBRANCH   8  11
ENDBRANCH   1   7
BRANCH   5  18
HETATM   18  C   UNL     1      37.629  50.760  66.617  1.00  0.00    -0.003 A 
HETATM   19  C   UNL     1      37.838  52.036  66.063  1.00  0.00     0.050 A 
HETATM   20  C   UNL     1      37.673  53.187  66.836  1.00  0.00     0.069 A 
HETATM   21  C   UNL     1      37.303  53.064  68.177  1.00  0.00     0.037 A 
HETATM   22  C   UNL     1      37.099  51.807  68.744  1.00  0.00     0.004 A 
HETATM   23  C   UNL     1      37.261  50.659  67.967  1.00  0.00     0.014 A 
BRANCH  20  24
HETATM   24  O   UNL     1      37.838  54.476  66.407  1.00  0.00    -0.356 OA
HETATM   25  C   UNL     1      37.013  55.463  67.015  1.00  0.00     0.210 C 
ENDBRANCH  20  24
ENDBRANCH   5  18
TORSDOF 4
ENDMDL
MODEL 10
REMARK VINA RESULT:      -7.5      2.576      8.764
REMARK  4 active torsions:
REMARK  status: ('A' for Active; 'I' for Inactive)
REMARK    1  A    between atoms: C_5  and  N_6 
REMARK       I    between atoms: N_6  and  C_7 
REMARK    2  A    between atoms: C_7  and  C_8 
REMARK    3  A    between atoms: C_12  and  C_13 
REMARK    4  A    between atoms: C_15  and  O_16 
ROOT
HETATM    1  C   UNL     1      24.706  46.916  50.667  1.00  0.00     0.120 A 
HETATM    2  N   UNL     1      24.231  45.702  51.077  1.00  0.00    -0.272 N 
HETATM    3  H   UNL     1      23.422  45.211  50.708  1.00  0.00     0.189 HD
HETATM    4  N   UNL     1      24.947  45.132  52.058  1.00  0.00    -0.174 NA
HETATM    5  C   UNL     1      25.907  46.027  52.341  1.00  0.00     0.089 A 
HETATM    6  C   UNL     1      25.793  47.157  51.482  1.00  0.00     0.071 A 
ENDROOT
BRANCH   1   7
HETATM    7  C   UNL     1      24.076  47.655  49.606  1.00  0.00     0.270 C 
HETATM    8  N   UNL     1      22.866  47.149  49.187  1.00  0.00    -0.351 N 
HETATM    9  H   UNL     1      22.441  46.420  49.741  1.00  0.00     0.163 HD
HETATM   10  O   UNL     1      24.580  48.665  49.127  1.00  0.00    -0.266 OA
BRANCH   8  11
HETATM   11  C   UNL     1      22.042  47.823  48.190  1.00  0.00     0.084 C 
HETATM   12  C   UNL     1      21.373  46.797  47.267  1.00  0.00     0.025 C 
HETATM   13  C   UNL     1      20.247  46.019  47.954  1.00  0.00     0.006 C 
HETATM   14  C   UNL     1      19.209  46.928  48.627  1.00  0.00    -0.019 C 
HETATM   15  C   UNL     1      18.301  47.605  47.596  1.00  0.00     0.010 C 
HETATM   16  C   UNL     1      19.888  47.953  49.546  1.00  0.00     0.006 C 
HETATM   17  C   UNL     1      21.002  48.737  48.851  1.00  0.00     0.025 C 
ENDBRANCH   8  11
ENDBRANCH   1   7
BRANCH   5  18
HETATM   18  C   UNL     1      26.900  45.791  53.392  1.00  0.00    -0.003 A 
HETATM   19  C   UNL     1      27.560  44.551  53.479  1.00  0.00     0.050 A 
HETATM   20  C   UNL     1      28.519  44.319  54.467  1.00  0.00     0.069 A 
HETATM   21  C   UNL     1      28.816  45.329  55.384  1.00  0.00     0.037 A 
HETATM   22  C   UNL     1      28.165  46.560  55.318  1.00  0.00     0.004 A 
HETATM   23  C   UNL     1      27.211  46.791  54.326  1.00  0.00     0.014 A 
BRANCH  20  24
HETATM   24  O   UNL     1      29.230  43.163  54.644  1.00  0.00    -0.356 OA
HETATM   25  C   UNL     1      30.448  43.266  55.372  1.00  0.00     0.210 C 
ENDBRANCH  20  24
ENDBRANCH   5  18
TORSDOF 4
ENDMDL
