MODEL 1
REMARK VINA RESULT:      -7.8      0.000      0.000
REMARK  4 active torsions:
REMARK  status: ('A' for Active; 'I' for Inactive)
REMARK    1  A    between atoms: S_2  and  N_3 
REMARK    2  A    between atoms: N_3  and  N_4 
REMARK    3  A    between atoms: C_10  and  C_11 
REMARK    4  A    between atoms: C_13  and  O_14 
ROOT
HETATM    1  N   UNL     1      26.979  42.267  51.972  1.00  0.00    -0.224 N 
HETATM    2  C   UNL     1      28.202  42.397  52.613  1.00  0.00     0.276 C 
HETATM    3  O   UNL     1      29.137  41.623  52.405  1.00  0.00    -0.266 OA
HETATM    4  C   UNL     1      28.293  43.464  53.629  1.00  0.00     0.055 A 
HETATM    5  C   UNL     1      27.088  43.985  54.121  1.00  0.00     0.026 A 
HETATM    6  N   UNL     1      25.856  43.537  53.610  1.00  0.00    -0.265 NA
HETATM    7  C   UNL     1      25.888  43.230  52.172  1.00  0.00     0.222 C 
HETATM    8  C   UNL     1      29.525  43.845  54.164  1.00  0.00     0.019 A 
HETATM    9  C   UNL     1      29.558  44.758  55.217  1.00  0.00     0.001 A 
HETATM   10  C   UNL     1      28.365  45.255  55.744  1.00  0.00     0.002 A 
HETATM   11  C   UNL     1      27.135  44.857  55.211  1.00  0.00     0.024 A 
HETATM   12  H   UNL     1      25.066  44.110  53.875  1.00  0.00     0.130 HD
ENDROOT
BRANCH   7  13
HETATM   13  C   UNL     1      26.022  44.503  51.317  1.00  0.00    -0.017 A 
HETATM   14  C   UNL     1      25.159  45.601  51.502  1.00  0.00     0.047 A 
HETATM   15  C   UNL     1      25.304  46.761  50.741  1.00  0.00     0.066 A 
HETATM   16  C   UNL     1      26.297  46.866  49.781  1.00  0.00     0.036 A 
HETATM   17  C   UNL     1      27.179  45.808  49.594  1.00  0.00     0.003 A 
HETATM   18  C   UNL     1      27.052  44.648  50.363  1.00  0.00     0.011 A 
BRANCH  15  19
HETATM   19  O   UNL     1      24.480  47.834  50.918  1.00  0.00    -0.361 OA
HETATM   20  H   UNL     1      24.522  48.392  50.125  1.00  0.00     0.217 HD
ENDBRANCH  15  19
ENDBRANCH   7  13
BRANCH   1  21
HETATM   21  N   UNL     1      26.610  40.869  51.628  1.00  0.00    -0.220 N 
HETATM   22  H   UNL     1      27.192  40.174  52.117  1.00  0.00     0.200 HD
BRANCH  21  23
HETATM   23  S   UNL     1      26.300  40.433  50.026  1.00  0.00     0.240 S 
HETATM   24  C   UNL     1      27.674  41.209  49.201  1.00  0.00     0.187 C 
HETATM   25  O   UNL     1      25.082  41.077  49.587  1.00  0.00    -0.205 OA
HETATM   26  O   UNL     1      26.477  39.001  49.930  1.00  0.00    -0.205 OA
ENDBRANCH  21  23
ENDBRANCH   1  21
TORSDOF 4
ENDMDL
MODEL 2
REMARK VINA RESULT:      -7.8      3.094      6.396
REMARK  4 active torsions:
REMARK  status: ('A' for Active; 'I' for Inactive)
REMARK    1  A    between atoms: S_2  and  N_3 
REMARK    2  A    between atoms: N_3  and  N_4 
REMARK    3  A    between atoms: C_10  and  C_11 
REMARK    4  A    between atoms: C_13  and  O_14 
ROOT
HETATM    1  N   UNL     1      26.328  45.732  53.537  1.00  0.00    -0.224 N 
HETATM    2  C   UNL     1      26.104  46.150  52.234  1.00  0.00     0.276 C 
HETATM    3  O   UNL     1      26.218  47.328  51.894  1.00  0.00    -0.266 OA
HETATM    4  C   UNL     1      25.630  45.116  51.293  1.00  0.00     0.055 A 
HETATM    5  C   UNL     1      25.100  43.941  51.845  1.00  0.00     0.026 A 
HETATM    6  N   UNL     1      25.085  43.752  53.239  1.00  0.00    -0.265 NA
HETATM    7  C   UNL     1      26.255  44.318  53.927  1.00  0.00     0.222 C 
HETATM    8  C   UNL     1      25.598  45.355  49.918  1.00  0.00     0.019 A 
HETATM    9  C   UNL     1      25.019  44.408  49.075  1.00  0.00     0.001 A 
HETATM   10  C   UNL     1      24.451  43.253  49.613  1.00  0.00     0.002 A 
HETATM   11  C   UNL     1      24.475  43.028  50.993  1.00  0.00     0.024 A 
HETATM   12  H   UNL     1      24.877  42.804  53.526  1.00  0.00     0.130 HD
ENDROOT
BRANCH   7  13
HETATM   13  C   UNL     1      27.539  43.525  53.619  1.00  0.00    -0.017 A 
HETATM   14  C   UNL     1      27.483  42.181  53.198  1.00  0.00     0.047 A 
HETATM   15  C   UNL     1      28.649  41.478  52.896  1.00  0.00     0.066 A 
HETATM   16  C   UNL     1      29.894  42.078  53.003  1.00  0.00     0.036 A 
HETATM   17  C   UNL     1      29.977  43.410  53.392  1.00  0.00     0.003 A 
HETATM   18  C   UNL     1      28.813  44.128  53.681  1.00  0.00     0.011 A 
BRANCH  15  19
HETATM   19  O   UNL     1      28.609  40.180  52.478  1.00  0.00    -0.361 OA
HETATM   20  H   UNL     1      29.325  39.690  52.913  1.00  0.00     0.217 HD
ENDBRANCH  15  19
ENDBRANCH   7  13
BRANCH   1  21
HETATM   21  N   UNL     1      26.008  46.749  54.573  1.00  0.00    -0.220 N 
HETATM   22  H   UNL     1      25.266  47.398  54.276  1.00  0.00     0.200 HD
BRANCH  21  23
HETATM   23  S   UNL     1      27.244  47.531  55.419  1.00  0.00     0.240 S 
HETATM   24  C   UNL     1      26.316  48.791  56.268  1.00  0.00     0.187 C 
HETATM   25  O   UNL     1      28.129  48.175  54.475  1.00  0.00    -0.205 OA
HETATM   26  O   UNL     1      27.739  46.602  56.410  1.00  0.00    -0.205 OA
ENDBRANCH  21  23
ENDBRANCH   1  21
TORSDOF 4
ENDMDL
MODEL 3
REMARK VINA RESULT:      -7.8     12.625     13.742
REMARK  4 active torsions:
REMARK  status: ('A' for Active; 'I' for Inactive)
REMARK    1  A    between atoms: S_2  and  N_3 
REMARK    2  A    between atoms: N_3  and  N_4 
REMARK    3  A    between atoms: C_10  and  C_11 
REMARK    4  A    between atoms: C_13  and  O_14 
ROOT
HETATM    1  N   UNL     1      30.411  48.499  40.702  1.00  0.00    -0.224 N 
HETATM    2  C   UNL     1      31.784  48.511  40.897  1.00  0.00     0.276 C 
HETATM    3  O   UNL     1      32.506  47.584  40.529  1.00  0.00    -0.266 OA
HETATM    4  C   UNL     1      32.323  49.657  41.654  1.00  0.00     0.055 A 
HETATM    5  C   UNL     1      31.414  50.409  42.412  1.00  0.00     0.026 A 
HETATM    6  N   UNL     1      30.041  50.102  42.390  1.00  0.00    -0.265 NA
HETATM    7  C   UNL     1      29.560  49.635  41.081  1.00  0.00     0.222 C 
HETATM    8  C   UNL     1      33.697  49.902  41.709  1.00  0.00     0.019 A 
HETATM    9  C   UNL     1      34.177  50.911  42.542  1.00  0.00     0.001 A 
HETATM   10  C   UNL     1      33.289  51.641  43.332  1.00  0.00     0.002 A 
HETATM   11  C   UNL     1      31.916  51.380  43.282  1.00  0.00     0.024 A 
HETATM   12  H   UNL     1      29.452  50.816  42.797  1.00  0.00     0.130 HD
ENDROOT
BRANCH   7  13
HETATM   13  C   UNL     1      29.540  50.769  40.040  1.00  0.00    -0.017 A 
HETATM   14  C   UNL     1      30.203  50.636  38.803  1.00  0.00     0.047 A 
HETATM   15  C   UNL     1      30.158  51.658  37.855  1.00  0.00     0.066 A 
HETATM   16  C   UNL     1      29.465  52.832  38.102  1.00  0.00     0.036 A 
HETATM   17  C   UNL     1      28.782  52.981  39.303  1.00  0.00     0.003 A 
HETATM   18  C   UNL     1      28.807  51.956  40.253  1.00  0.00     0.011 A 
BRANCH  15  19
HETATM   19  O   UNL     1      30.788  51.537  36.650  1.00  0.00    -0.361 OA
HETATM   20  H   UNL     1      31.242  52.371  36.451  1.00  0.00     0.217 HD
ENDBRANCH  15  19
ENDBRANCH   7  13
BRANCH   1  21
HETATM   21  N   UNL     1      29.798  47.146  40.713  1.00  0.00    -0.220 N 
HETATM   22  H   UNL     1      30.304  46.488  41.322  1.00  0.00     0.200 HD
BRANCH  21  23
HETATM   23  S   UNL     1      29.284  46.424  39.275  1.00  0.00     0.240 S 
HETATM   24  C   UNL     1      27.593  46.980  39.214  1.00  0.00     0.187 C 
HETATM   25  O   UNL     1      29.285  44.988  39.439  1.00  0.00    -0.205 OA
HETATM   26  O   UNL     1      30.000  47.063  38.195  1.00  0.00    -0.205 OA
ENDBRANCH  21  23
ENDBRANCH   1  21
TORSDOF 4
ENDMDL
MODEL 4
REMARK VINA RESULT:      -7.7      7.244      9.936
REMARK  4 active torsions:
REMARK  status: ('A' for Active; 'I' for Inactive)
REMARK    1  A    between atoms: S_2  and  N_3 
REMARK    2  A    between atoms: N_3  and  N_4 
REMARK    3  A    between atoms: C_10  and  C_11 
REMARK    4  A    between atoms: C_13  and  O_14 
ROOT
HETATM    1  N   UNL     1      20.009  47.721  48.871  1.00  0.00    -0.224 N 
HETATM    2  C   UNL     1      19.272  48.540  49.713  1.00  0.00     0.276 C 
HETATM    3  O   UNL     1      18.691  48.104  50.707  1.00  0.00    -0.266 OA
HETATM    4  C   UNL     1      19.146  49.951  49.301  1.00  0.00     0.055 A 
HETATM    5  C   UNL     1      19.438  50.257  47.964  1.00  0.00     0.026 A 
HETATM    6  N   UNL     1      19.888  49.255  47.085  1.00  0.00    -0.265 NA
HETATM    7  C   UNL     1      20.756  48.254  47.723  1.00  0.00     0.222 C 
HETATM    8  C   UNL     1      18.637  50.914  50.175  1.00  0.00     0.019 A 
HETATM    9  C   UNL     1      18.406  52.206  49.707  1.00  0.00     0.001 A 
HETATM   10  C   UNL     1      18.654  52.516  48.369  1.00  0.00     0.002 A 
HETATM   11  C   UNL     1      19.150  51.542  47.497  1.00  0.00     0.024 A 
HETATM   12  H   UNL     1      20.263  49.607  46.214  1.00  0.00     0.130 HD
ENDROOT
BRANCH   7  13
HETATM   13  C   UNL     1      22.130  48.841  48.097  1.00  0.00    -0.017 A 
HETATM   14  C   UNL     1      23.004  48.157  48.964  1.00  0.00     0.047 A 
HETATM   15  C   UNL     1      24.257  48.684  49.277  1.00  0.00     0.066 A 
HETATM   16  C   UNL     1      24.676  49.894  48.747  1.00  0.00     0.036 A 
HETATM   17  C   UNL     1      23.844  50.578  47.869  1.00  0.00     0.003 A 
HETATM   18  C   UNL     1      22.593  50.050  47.536  1.00  0.00     0.011 A 
BRANCH  15  19
HETATM   19  O   UNL     1      25.117  48.027  50.108  1.00  0.00    -0.361 OA
HETATM   20  H   UNL     1      24.861  48.207  51.027  1.00  0.00     0.217 HD
ENDBRANCH  15  19
ENDBRANCH   7  13
BRANCH   1  21
HETATM   21  N   UNL     1      19.514  46.323  48.781  1.00  0.00    -0.220 N 
HETATM   22  H   UNL     1      20.276  45.632  48.798  1.00  0.00     0.200 HD
BRANCH  21  23
HETATM   23  S   UNL     1      18.297  45.912  47.684  1.00  0.00     0.240 S 
HETATM   24  C   UNL     1      19.069  44.554  46.830  1.00  0.00     0.187 C 
HETATM   25  O   UNL     1      18.118  46.997  46.747  1.00  0.00    -0.205 OA
HETATM   26  O   UNL     1      17.191  45.382  48.451  1.00  0.00    -0.205 OA
ENDBRANCH  21  23
ENDBRANCH   1  21
TORSDOF 4
ENDMDL
MODEL 5
REMARK VINA RESULT:      -7.4     12.246     13.900
REMARK  4 active torsions:
REMARK  status: ('A' for Active; 'I' for Inactive)
REMARK    1  A    between atoms: S_2  and  N_3 
REMARK    2  A    between atoms: N_3  and  N_4 
REMARK    3  A    between atoms: C_10  and  C_11 
REMARK    4  A    between atoms: C_13  and  O_14 
ROOT
HETATM    1  N   UNL     1      27.792  48.928  39.826  1.00  0.00    -0.224 N 
HETATM    2  C   UNL     1      28.920  48.182  39.520  1.00  0.00     0.276 C 
HETATM    3  O   UNL     1      28.955  47.407  38.564  1.00  0.00    -0.266 OA
HETATM    4  C   UNL     1      30.052  48.299  40.461  1.00  0.00     0.055 A 
HETATM    5  C   UNL     1      29.777  48.826  41.731  1.00  0.00     0.026 A 
HETATM    6  N   UNL     1      28.482  49.273  42.053  1.00  0.00    -0.265 NA
HETATM    7  C   UNL     1      27.775  49.901  40.927  1.00  0.00     0.222 C 
HETATM    8  C   UNL     1      31.311  47.790  40.139  1.00  0.00     0.019 A 
HETATM    9  C   UNL     1      32.317  47.799  41.104  1.00  0.00     0.001 A 
HETATM   10  C   UNL     1      32.048  48.283  42.385  1.00  0.00     0.002 A 
HETATM   11  C   UNL     1      30.779  48.778  42.703  1.00  0.00     0.024 A 
HETATM   12  H   UNL     1      28.433  49.817  42.904  1.00  0.00     0.130 HD
ENDROOT
BRANCH   7  13
HETATM   13  C   UNL     1      28.385  51.265  40.556  1.00  0.00    -0.017 A 
HETATM   14  C   UNL     1      28.258  51.793  39.256  1.00  0.00     0.047 A 
HETATM   15  C   UNL     1      28.791  53.041  38.936  1.00  0.00     0.066 A 
HETATM   16  C   UNL     1      29.462  53.797  39.884  1.00  0.00     0.036 A 
HETATM   17  C   UNL     1      29.581  53.312  41.181  1.00  0.00     0.003 A 
HETATM   18  C   UNL     1      29.036  52.069  41.516  1.00  0.00     0.011 A 
BRANCH  15  19
HETATM   19  O   UNL     1      28.666  53.567  37.683  1.00  0.00    -0.361 OA
HETATM   20  H   UNL     1      28.450  52.851  37.064  1.00  0.00     0.217 HD
ENDBRANCH  15  19
ENDBRANCH   7  13
BRANCH   1  21
HETATM   21  N   UNL     1      26.507  48.279  39.461  1.00  0.00    -0.220 N 
HETATM   22  H   UNL     1      26.574  47.251  39.440  1.00  0.00     0.200 HD
BRANCH  21  23
HETATM   23  S   UNL     1      25.567  48.886  38.195  1.00  0.00     0.240 S 
HETATM   24  C   UNL     1      24.850  47.382  37.566  1.00  0.00     0.187 C 
HETATM   25  O   UNL     1      26.437  49.435  37.180  1.00  0.00    -0.205 OA
HETATM   26  O   UNL     1      24.506  49.668  38.788  1.00  0.00    -0.205 OA
ENDBRANCH  21  23
ENDBRANCH   1  21
TORSDOF 4
ENDMDL
MODEL 6
REMARK VINA RESULT:      -7.3     11.542     13.238
REMARK  4 active torsions:
REMARK  status: ('A' for Active; 'I' for Inactive)
REMARK    1  A    between atoms: S_2  and  N_3 
REMARK    2  A    between atoms: N_3  and  N_4 
REMARK    3  A    between atoms: C_10  and  C_11 
REMARK    4  A    between atoms: C_13  and  O_14 
ROOT
HETATM    1  N   UNL     1      27.811  48.399  39.772  1.00  0.00    -0.224 N 
HETATM    2  C   UNL     1      29.005  47.737  39.528  1.00  0.00     0.276 C 
HETATM    3  O   UNL     1      29.118  46.897  38.634  1.00  0.00    -0.266 OA
HETATM    4  C   UNL     1      30.112  48.028  40.459  1.00  0.00     0.055 A 
HETATM    5  C   UNL     1      29.778  48.623  41.685  1.00  0.00     0.026 A 
HETATM    6  N   UNL     1      28.445  48.974  41.968  1.00  0.00    -0.265 NA
HETATM    7  C   UNL     1      27.695  49.447  40.794  1.00  0.00     0.222 C 
HETATM    8  C   UNL     1      31.415  47.613  40.181  1.00  0.00     0.019 A 
HETATM    9  C   UNL     1      32.406  47.786  41.145  1.00  0.00     0.001 A 
HETATM   10  C   UNL     1      32.082  48.341  42.384  1.00  0.00     0.002 A 
HETATM   11  C   UNL     1      30.771  48.740  42.660  1.00  0.00     0.024 A 
HETATM   12  H   UNL     1      28.339  49.575  42.774  1.00  0.00     0.130 HD
ENDROOT
BRANCH   7  13
HETATM   13  C   UNL     1      28.183  50.829  40.322  1.00  0.00    -0.017 A 
HETATM   14  C   UNL     1      28.579  51.046  38.987  1.00  0.00     0.047 A 
HETATM   15  C   UNL     1      28.995  52.307  38.561  1.00  0.00     0.066 A 
HETATM   16  C   UNL     1      29.032  53.381  39.436  1.00  0.00     0.036 A 
HETATM   17  C   UNL     1      28.623  53.202  40.752  1.00  0.00     0.003 A 
HETATM   18  C   UNL     1      28.189  51.945  41.185  1.00  0.00     0.011 A 
BRANCH  15  19
HETATM   19  O   UNL     1      29.373  52.532  37.269  1.00  0.00    -0.361 OA
HETATM   20  H   UNL     1      28.761  52.062  36.680  1.00  0.00     0.217 HD
ENDBRANCH  15  19
ENDBRANCH   7  13
BRANCH   1  21
HETATM   21  N   UNL     1      26.593  47.609  39.454  1.00  0.00    -0.220 N 
HETATM   22  H   UNL     1      25.894  48.153  38.929  1.00  0.00     0.200 HD
BRANCH  21  23
HETATM   23  S   UNL     1      25.886  46.613  40.621  1.00  0.00     0.240 S 
HETATM   24  C   UNL     1      25.442  45.204  39.627  1.00  0.00     0.187 C 
HETATM   25  O   UNL     1      24.671  47.233  41.101  1.00  0.00    -0.205 OA
HETATM   26  O   UNL     1      26.936  46.204  41.527  1.00  0.00    -0.205 OA
ENDBRANCH  21  23
ENDBRANCH   1  21
TORSDOF 4
ENDMDL
MODEL 7
REMARK VINA RESULT:      -7.2     12.679     14.821
REMARK  4 active torsions:
REMARK  status: ('A' for Active; 'I' for Inactive)
REMARK    1  A    between atoms: S_2  and  N_3 
REMARK    2  A    between atoms: N_3  and  N_4 
REMARK    3  A    between atoms: C_10  and  C_11 
REMARK    4  A    between atoms: C_13  and  O_14 
ROOT
HETATM    1  N   UNL     1      32.209  49.798  40.775  1.00  0.00    -0.224 N 
HETATM    2  C   UNL     1      31.358  48.919  41.427  1.00  0.00     0.276 C 
HETATM    3  O   UNL     1      31.616  48.461  42.541  1.00  0.00    -0.266 OA
HETATM    4  C   UNL     1      30.166  48.488  40.671  1.00  0.00     0.055 A 
HETATM    5  C   UNL     1      30.182  48.684  39.283  1.00  0.00     0.026 A 
HETATM    6  N   UNL     1      31.273  49.322  38.665  1.00  0.00    -0.265 NA
HETATM    7  C   UNL     1      31.870  50.394  39.476  1.00  0.00     0.222 C 
HETATM    8  C   UNL     1      29.125  47.801  41.299  1.00  0.00     0.019 A 
HETATM    9  C   UNL     1      28.081  47.292  40.528  1.00  0.00     0.001 A 
HETATM   10  C   UNL     1      28.103  47.445  39.141  1.00  0.00     0.002 A 
HETATM   11  C   UNL     1      29.156  48.122  38.519  1.00  0.00     0.024 A 
HETATM   12  H   UNL     1      31.102  49.598  37.707  1.00  0.00     0.130 HD
ENDROOT
BRANCH   7  13
HETATM   13  C   UNL     1      30.940  51.618  39.581  1.00  0.00    -0.017 A 
HETATM   14  C   UNL     1      30.122  52.007  38.501  1.00  0.00     0.047 A 
HETATM   15  C   UNL     1      29.264  53.101  38.613  1.00  0.00     0.066 A 
HETATM   16  C   UNL     1      29.193  53.837  39.786  1.00  0.00     0.036 A 
HETATM   17  C   UNL     1      29.970  53.460  40.874  1.00  0.00     0.003 A 
HETATM   18  C   UNL     1      30.821  52.355  40.778  1.00  0.00     0.011 A 
BRANCH  15  19
HETATM   19  O   UNL     1      28.460  53.482  37.579  1.00  0.00    -0.361 OA
HETATM   20  H   UNL     1      28.793  54.320  37.218  1.00  0.00     0.217 HD
ENDBRANCH  15  19
ENDBRANCH   7  13
BRANCH   1  21
HETATM   21  N   UNL     1      33.649  49.611  41.091  1.00  0.00    -0.220 N 
HETATM   22  H   UNL     1      33.841  48.703  41.539  1.00  0.00     0.200 HD
BRANCH  21  23
HETATM   23  S   UNL     1      34.550  50.866  41.773  1.00  0.00     0.240 S 
HETATM   24  C   UNL     1      33.516  51.301  43.156  1.00  0.00     0.187 C 
HETATM   25  O   UNL     1      34.576  51.983  40.855  1.00  0.00    -0.205 OA
HETATM   26  O   UNL     1      35.767  50.286  42.294  1.00  0.00    -0.205 OA
ENDBRANCH  21  23
ENDBRANCH   1  21
TORSDOF 4
ENDMDL
MODEL 8
REMARK VINA RESULT:      -7.0      7.712      9.739
REMARK  4 active torsions:
REMARK  status: ('A' for Active; 'I' for Inactive)
REMARK    1  A    between atoms: S_2  and  N_3 
REMARK    2  A    between atoms: N_3  and  N_4 
REMARK    3  A    between atoms: C_10  and  C_11 
REMARK    4  A    between atoms: C_13  and  O_14 
ROOT
HETATM    1  N   UNL     1      20.934  47.226  48.445  1.00  0.00    -0.224 N 
HETATM    2  C   UNL     1      21.428  48.493  48.172  1.00  0.00     0.276 C 
HETATM    3  O   UNL     1      22.547  48.671  47.692  1.00  0.00    -0.266 OA
HETATM    4  C   UNL     1      20.571  49.625  48.575  1.00  0.00     0.055 A 
HETATM    5  C   UNL     1      19.553  49.360  49.503  1.00  0.00     0.026 A 
HETATM    6  N   UNL     1      19.338  48.051  49.971  1.00  0.00    -0.265 NA
HETATM    7  C   UNL     1      19.574  47.012  48.956  1.00  0.00     0.222 C 
HETATM    8  C   UNL     1      20.845  50.924  48.144  1.00  0.00     0.019 A 
HETATM    9  C   UNL     1      20.096  51.984  48.654  1.00  0.00     0.001 A 
HETATM   10  C   UNL     1      19.106  51.741  49.607  1.00  0.00     0.002 A 
HETATM   11  C   UNL     1      18.848  50.438  50.043  1.00  0.00     0.024 A 
HETATM   12  H   UNL     1      18.466  47.928  50.468  1.00  0.00     0.130 HD
ENDROOT
BRANCH   7  13
HETATM   13  C   UNL     1      18.492  47.026  47.860  1.00  0.00    -0.017 A 
HETATM   14  C   UNL     1      17.179  47.457  48.136  1.00  0.00     0.047 A 
HETATM   15  C   UNL     1      16.212  47.491  47.132  1.00  0.00     0.066 A 
HETATM   16  C   UNL     1      16.513  47.101  45.836  1.00  0.00     0.036 A 
HETATM   17  C   UNL     1      17.806  46.695  45.530  1.00  0.00     0.003 A 
HETATM   18  C   UNL     1      18.787  46.673  46.526  1.00  0.00     0.011 A 
BRANCH  15  19
HETATM   19  O   UNL     1      14.940  47.915  47.384  1.00  0.00    -0.361 OA
HETATM   20  H   UNL     1      14.638  48.455  46.637  1.00  0.00     0.217 HD
ENDBRANCH  15  19
ENDBRANCH   7  13
BRANCH   1  21
HETATM   21  N   UNL     1      21.971  46.226  48.810  1.00  0.00    -0.220 N 
HETATM   22  H   UNL     1      22.884  46.658  49.012  1.00  0.00     0.200 HD
BRANCH  21  23
HETATM   23  S   UNL     1      22.121  44.787  47.937  1.00  0.00     0.240 S 
HETATM   24  C   UNL     1      22.139  45.413  46.270  1.00  0.00     0.187 C 
HETATM   25  O   UNL     1      20.923  43.999  48.115  1.00  0.00    -0.205 OA
HETATM   26  O   UNL     1      23.432  44.248  48.223  1.00  0.00    -0.205 OA
ENDBRANCH  21  23
ENDBRANCH   1  21
TORSDOF 4
ENDMDL
MODEL 9
REMARK VINA RESULT:      -7.0      2.724      5.106
REMARK  4 active torsions:
REMARK  status: ('A' for Active; 'I' for Inactive)
REMARK    1  A    between atoms: S_2  and  N_3 
REMARK    2  A    between atoms: N_3  and  N_4 
REMARK    3  A    between atoms: C_10  and  C_11 
REMARK    4  A    between atoms: C_13  and  O_14 
ROOT
HETATM    1  N   UNL     1      25.383  44.399  50.834  1.00  0.00    -0.224 N 
HETATM    2  C   UNL     1      25.545  44.131  52.185  1.00  0.00     0.276 C 
HETATM    3  O   UNL     1      24.670  44.386  53.013  1.00  0.00    -0.266 OA
HETATM    4  C   UNL     1      26.862  43.605  52.590  1.00  0.00     0.055 A 
HETATM    5  C   UNL     1      27.924  43.771  51.689  1.00  0.00     0.026 A 
HETATM    6  N   UNL     1      27.705  44.364  50.432  1.00  0.00    -0.265 NA
HETATM    7  C   UNL     1      26.401  44.034  49.839  1.00  0.00     0.222 C 
HETATM    8  C   UNL     1      27.066  43.078  53.867  1.00  0.00     0.019 A 
HETATM    9  C   UNL     1      28.354  42.717  54.258  1.00  0.00     0.001 A 
HETATM   10  C   UNL     1      29.426  42.913  53.387  1.00  0.00     0.002 A 
HETATM   11  C   UNL     1      29.216  43.455  52.115  1.00  0.00     0.024 A 
HETATM   12  H   UNL     1      28.474  44.254  49.784  1.00  0.00     0.130 HD
ENDROOT
BRANCH   7  13
HETATM   13  C   UNL     1      26.330  42.561  49.394  1.00  0.00    -0.017 A 
HETATM   14  C   UNL     1      25.136  42.006  48.893  1.00  0.00     0.047 A 
HETATM   15  C   UNL     1      25.088  40.679  48.468  1.00  0.00     0.066 A 
HETATM   16  C   UNL     1      26.210  39.867  48.529  1.00  0.00     0.036 A 
HETATM   17  C   UNL     1      27.408  40.396  48.996  1.00  0.00     0.003 A 
HETATM   18  C   UNL     1      27.471  41.730  49.408  1.00  0.00     0.011 A 
BRANCH  15  19
HETATM   19  O   UNL     1      23.940  40.132  47.972  1.00  0.00    -0.361 OA
HETATM   20  H   UNL     1      23.354  39.912  48.714  1.00  0.00     0.217 HD
ENDBRANCH  15  19
ENDBRANCH   7  13
BRANCH   1  21
HETATM   21  N   UNL     1      24.521  45.572  50.538  1.00  0.00    -0.220 N 
HETATM   22  H   UNL     1      23.913  45.420  49.721  1.00  0.00     0.200 HD
BRANCH  21  23
HETATM   23  S   UNL     1      25.154  47.138  50.585  1.00  0.00     0.240 S 
HETATM   24  C   UNL     1      23.899  48.027  49.688  1.00  0.00     0.187 C 
HETATM   25  O   UNL     1      26.377  47.177  49.815  1.00  0.00    -0.205 OA
HETATM   26  O   UNL     1      25.110  47.576  51.961  1.00  0.00    -0.205 OA
ENDBRANCH  21  23
ENDBRANCH   1  21
TORSDOF 4
ENDMDL
MODEL 10
REMARK VINA RESULT:      -6.9      1.809      4.724
REMARK  4 active torsions:
REMARK  status: ('A' for Active; 'I' for Inactive)
REMARK    1  A    between atoms: S_2  and  N_3 
REMARK    2  A    between atoms: N_3  and  N_4 
REMARK    3  A    between atoms: C_10  and  C_11 
REMARK    4  A    between atoms: C_13  and  O_14 
ROOT
HETATM    1  N   UNL     1      26.030  43.001  51.417  1.00  0.00    -0.224 N 
HETATM    2  C   UNL     1      24.979  43.855  51.121  1.00  0.00     0.276 C 
HETATM    3  O   UNL     1      23.807  43.476  51.118  1.00  0.00    -0.266 OA
HETATM    4  C   UNL     1      25.348  45.226  50.718  1.00  0.00     0.055 A 
HETATM    5  C   UNL     1      26.674  45.439  50.312  1.00  0.00     0.026 A 
HETATM    6  N   UNL     1      27.609  44.389  50.352  1.00  0.00    -0.265 NA
HETATM    7  C   UNL     1      27.421  43.470  51.485  1.00  0.00     0.222 C 
HETATM    8  C   UNL     1      24.386  46.233  50.627  1.00  0.00     0.019 A 
HETATM    9  C   UNL     1      24.749  47.477  50.113  1.00  0.00     0.001 A 
HETATM   10  C   UNL     1      26.054  47.693  49.668  1.00  0.00     0.002 A 
HETATM   11  C   UNL     1      27.007  46.673  49.750  1.00  0.00     0.024 A 
HETATM   12  H   UNL     1      28.570  44.687  50.240  1.00  0.00     0.130 HD
ENDROOT
BRANCH   7  13
HETATM   13  C   UNL     1      27.786  44.132  52.827  1.00  0.00    -0.017 A 
HETATM   14  C   UNL     1      28.944  43.755  53.535  1.00  0.00     0.047 A 
HETATM   15  C   UNL     1      29.281  44.377  54.736  1.00  0.00     0.066 A 
HETATM   16  C   UNL     1      28.488  45.381  55.269  1.00  0.00     0.036 A 
HETATM   17  C   UNL     1      27.353  45.790  54.579  1.00  0.00     0.003 A 
HETATM   18  C   UNL     1      27.015  45.184  53.365  1.00  0.00     0.011 A 
BRANCH  15  19
HETATM   19  O   UNL     1      30.405  44.028  55.427  1.00  0.00    -0.361 OA
HETATM   20  H   UNL     1      30.140  43.616  56.265  1.00  0.00     0.217 HD
ENDBRANCH  15  19
ENDBRANCH   7  13
BRANCH   1  21
HETATM   21  N   UNL     1      25.799  41.584  51.035  1.00  0.00    -0.220 N 
HETATM   22  H   UNL     1      26.271  40.921  51.667  1.00  0.00     0.200 HD
BRANCH  21  23
HETATM   23  S   UNL     1      25.892  41.104  49.418  1.00  0.00     0.240 S 
HETATM   24  C   UNL     1      26.557  39.462  49.599  1.00  0.00     0.187 C 
HETATM   25  O   UNL     1      26.873  41.920  48.738  1.00  0.00    -0.205 OA
HETATM   26  O   UNL     1      24.538  40.982  48.929  1.00  0.00    -0.205 OA
ENDBRANCH  21  23
ENDBRANCH   1  21
TORSDOF 4
ENDMDL
