MODEL 1
REMARK VINA RESULT:      -7.4      0.000      0.000
REMARK  6 active torsions:
REMARK  status: ('A' for Active; 'I' for Inactive)
REMARK    1  A    between atoms: N_2  and  C_3 
REMARK    2  A    between atoms: N_2  and  C_19 
REMARK    3  A    between atoms: C_4  and  N_5 
REMARK       I    between atoms: N_5  and  C_6 
REMARK    4  A    between atoms: C_6  and  C_7 
REMARK    5  A    between atoms: C_7  and  C_8 
REMARK    6  A    between atoms: C_19  and  C_20 
ROOT
HETATM    1  C   UNL     1      19.223  49.793  49.628  1.00  0.00     0.037 A 
HETATM    2  C   UNL     1      20.521  50.260  49.291  1.00  0.00     0.056 A 
HETATM    3  C   UNL     1      20.690  51.518  48.710  1.00  0.00     0.031 A 
HETATM    4  C   UNL     1      19.583  52.331  48.463  1.00  0.00     0.002 A 
HETATM    5  C   UNL     1      18.305  51.889  48.789  1.00  0.00     0.002 A 
HETATM    6  C   UNL     1      18.125  50.628  49.363  1.00  0.00     0.026 A 
ENDROOT
BRANCH   2   7
HETATM    7  N   UNL     1      21.597  49.412  49.625  1.00  0.00    -0.325 N 
HETATM    8  C   UNL     1      22.529  48.838  48.787  1.00  0.00     0.227 C 
HETATM    9  O   UNL     1      22.526  48.904  47.557  1.00  0.00    -0.273 OA
HETATM   10  H   UNL     1      21.601  49.158  50.610  1.00  0.00     0.169 HD
BRANCH   8  11
HETATM   11  C   UNL     1      23.589  48.031  49.537  1.00  0.00     0.159 C 
BRANCH  11  12
HETATM   12  C   UNL     1      24.973  48.532  49.258  1.00  0.00     0.017 A 
HETATM   13  N   UNL     1      25.207  49.600  48.419  1.00  0.00    -0.369 N 
HETATM   14  H   UNL     1      24.477  50.152  47.979  1.00  0.00     0.165 HD
HETATM   15  C   UNL     1      26.554  49.832  48.331  1.00  0.00     0.088 A 
HETATM   16  C   UNL     1      27.197  48.907  49.122  1.00  0.00     0.019 A 
HETATM   17  C   UNL     1      26.202  48.087  49.707  1.00  0.00     0.027 A 
ENDBRANCH  11  12
ENDBRANCH   8  11
ENDBRANCH   2   7
BRANCH   1  18
HETATM   18  N   UNL     1      19.076  48.486  50.178  1.00  0.00    -0.281 NA
HETATM   19  C   UNL     1      18.566  48.470  51.552  1.00  0.00     0.117 C 
BRANCH  18  20
HETATM   20  C   UNL     1      18.351  47.587  49.249  1.00  0.00     0.133 C 
BRANCH  20  21
HETATM   21  C   UNL     1      19.310  46.961  48.257  1.00  0.00    -0.045 A 
HETATM   22  C   UNL     1      20.188  45.937  48.648  1.00  0.00     0.008 A 
HETATM   23  C   UNL     1      21.072  45.367  47.731  1.00  0.00     0.001 A 
HETATM   24  C   UNL     1      21.085  45.807  46.410  1.00  0.00     0.000 A 
HETATM   25  C   UNL     1      20.218  46.819  46.005  1.00  0.00     0.001 A 
HETATM   26  C   UNL     1      19.336  47.395  46.923  1.00  0.00     0.008 A 
ENDBRANCH  20  21
ENDBRANCH  18  20
ENDBRANCH   1  18
TORSDOF 6
ENDMDL
MODEL 2
REMARK VINA RESULT:      -7.4      7.460     10.544
REMARK  6 active torsions:
REMARK  status: ('A' for Active; 'I' for Inactive)
REMARK    1  A    between atoms: N_2  and  C_3 
REMARK    2  A    between atoms: N_2  and  C_19 
REMARK    3  A    between atoms: C_4  and  N_5 
REMARK       I    between atoms: N_5  and  C_6 
REMARK    4  A    between atoms: C_6  and  C_7 
REMARK    5  A    between atoms: C_7  and  C_8 
REMARK    6  A    between atoms: C_19  and  C_20 
ROOT
HETATM    1  C   UNL     1      28.307  44.324  54.367  1.00  0.00     0.037 A 
HETATM    2  C   UNL     1      29.222  43.424  53.759  1.00  0.00     0.056 A 
HETATM    3  C   UNL     1      30.497  43.242  54.298  1.00  0.00     0.031 A 
HETATM    4  C   UNL     1      30.879  43.938  55.445  1.00  0.00     0.002 A 
HETATM    5  C   UNL     1      29.994  44.822  56.054  1.00  0.00     0.002 A 
HETATM    6  C   UNL     1      28.719  45.017  55.517  1.00  0.00     0.026 A 
ENDROOT
BRANCH   2   7
HETATM    7  N   UNL     1      28.746  42.711  52.639  1.00  0.00    -0.325 N 
HETATM    8  C   UNL     1      28.217  41.439  52.593  1.00  0.00     0.227 C 
HETATM    9  O   UNL     1      28.146  40.656  53.541  1.00  0.00    -0.273 OA
HETATM   10  H   UNL     1      28.905  43.208  51.766  1.00  0.00     0.169 HD
BRANCH   8  11
HETATM   11  C   UNL     1      27.748  41.038  51.194  1.00  0.00     0.159 C 
BRANCH  11  12
HETATM   12  C   UNL     1      28.521  39.871  50.660  1.00  0.00     0.017 A 
HETATM   13  N   UNL     1      29.332  39.102  51.466  1.00  0.00    -0.369 N 
HETATM   14  H   UNL     1      29.424  39.227  52.470  1.00  0.00     0.165 HD
HETATM   15  C   UNL     1      29.928  38.121  50.720  1.00  0.00     0.088 A 
HETATM   16  C   UNL     1      29.497  38.255  49.420  1.00  0.00     0.019 A 
HETATM   17  C   UNL     1      28.611  39.358  49.380  1.00  0.00     0.027 A 
ENDBRANCH  11  12
ENDBRANCH   8  11
ENDBRANCH   2   7
BRANCH   1  18
HETATM   18  N   UNL     1      27.028  44.524  53.769  1.00  0.00    -0.281 NA
HETATM   19  C   UNL     1      25.912  43.982  54.550  1.00  0.00     0.117 C 
BRANCH  18  20
HETATM   20  C   UNL     1      26.846  45.932  53.343  1.00  0.00     0.133 C 
BRANCH  20  21
HETATM   21  C   UNL     1      26.195  45.995  51.976  1.00  0.00    -0.045 A 
HETATM   22  C   UNL     1      25.239  46.977  51.675  1.00  0.00     0.008 A 
HETATM   23  C   UNL     1      24.640  47.026  50.415  1.00  0.00     0.001 A 
HETATM   24  C   UNL     1      24.994  46.099  49.438  1.00  0.00     0.000 A 
HETATM   25  C   UNL     1      25.945  45.121  49.720  1.00  0.00     0.001 A 
HETATM   26  C   UNL     1      26.542  45.067  50.982  1.00  0.00     0.008 A 
ENDBRANCH  20  21
ENDBRANCH  18  20
ENDBRANCH   1  18
TORSDOF 6
ENDMDL
MODEL 3
REMARK VINA RESULT:      -7.4      7.048     10.225
REMARK  6 active torsions:
REMARK  status: ('A' for Active; 'I' for Inactive)
REMARK    1  A    between atoms: N_2  and  C_3 
REMARK    2  A    between atoms: N_2  and  C_19 
REMARK    3  A    between atoms: C_4  and  N_5 
REMARK       I    between atoms: N_5  and  C_6 
REMARK    4  A    between atoms: C_6  and  C_7 
REMARK    5  A    between atoms: C_7  and  C_8 
REMARK    6  A    between atoms: C_19  and  C_20 
ROOT
HETATM    1  C   UNL     1      28.134  44.670  55.104  1.00  0.00     0.037 A 
HETATM    2  C   UNL     1      29.221  43.764  54.985  1.00  0.00     0.056 A 
HETATM    3  C   UNL     1      30.434  44.028  55.622  1.00  0.00     0.031 A 
HETATM    4  C   UNL     1      30.586  45.184  56.390  1.00  0.00     0.002 A 
HETATM    5  C   UNL     1      29.530  46.080  56.518  1.00  0.00     0.002 A 
HETATM    6  C   UNL     1      28.315  45.829  55.877  1.00  0.00     0.026 A 
ENDROOT
BRANCH   2   7
HETATM    7  N   UNL     1      28.977  42.589  54.244  1.00  0.00    -0.325 N 
HETATM    8  C   UNL     1      29.378  42.284  52.961  1.00  0.00     0.227 C 
HETATM    9  O   UNL     1      29.963  43.047  52.191  1.00  0.00    -0.273 OA
HETATM   10  H   UNL     1      28.359  41.944  54.731  1.00  0.00     0.169 HD
BRANCH   8  11
HETATM   11  C   UNL     1      28.975  40.875  52.528  1.00  0.00     0.159 C 
BRANCH  11  12
HETATM   12  C   UNL     1      27.948  40.898  51.436  1.00  0.00     0.017 A 
HETATM   13  N   UNL     1      26.597  40.874  51.705  1.00  0.00    -0.369 N 
HETATM   14  H   UNL     1      26.200  40.895  52.639  1.00  0.00     0.165 HD
HETATM   15  C   UNL     1      25.893  40.885  50.530  1.00  0.00     0.088 A 
HETATM   16  C   UNL     1      26.797  40.918  49.493  1.00  0.00     0.019 A 
HETATM   17  C   UNL     1      28.093  40.926  50.062  1.00  0.00     0.027 A 
ENDBRANCH  11  12
ENDBRANCH   8  11
ENDBRANCH   2   7
BRANCH   1  18
HETATM   18  N   UNL     1      26.922  44.397  54.405  1.00  0.00    -0.281 NA
HETATM   19  C   UNL     1      25.998  43.521  55.131  1.00  0.00     0.117 C 
BRANCH  18  20
HETATM   20  C   UNL     1      26.304  45.642  53.889  1.00  0.00     0.133 C 
BRANCH  20  21
HETATM   21  C   UNL     1      26.414  45.705  52.380  1.00  0.00    -0.045 A 
HETATM   22  C   UNL     1      26.908  44.617  51.644  1.00  0.00     0.008 A 
HETATM   23  C   UNL     1      27.011  44.683  50.254  1.00  0.00     0.001 A 
HETATM   24  C   UNL     1      26.615  45.835  49.580  1.00  0.00     0.000 A 
HETATM   25  C   UNL     1      26.119  46.923  50.295  1.00  0.00     0.001 A 
HETATM   26  C   UNL     1      26.020  46.860  51.687  1.00  0.00     0.008 A 
ENDBRANCH  20  21
ENDBRANCH  18  20
ENDBRANCH   1  18
TORSDOF 6
ENDMDL
MODEL 4
REMARK VINA RESULT:      -7.3      6.188     10.314
REMARK  6 active torsions:
REMARK  status: ('A' for Active; 'I' for Inactive)
REMARK    1  A    between atoms: N_2  and  C_3 
REMARK    2  A    between atoms: N_2  and  C_19 
REMARK    3  A    between atoms: C_4  and  N_5 
REMARK       I    between atoms: N_5  and  C_6 
REMARK    4  A    between atoms: C_6  and  C_7 
REMARK    5  A    between atoms: C_7  and  C_8 
REMARK    6  A    between atoms: C_19  and  C_20 
ROOT
HETATM    1  C   UNL     1      27.816  42.468  51.775  1.00  0.00     0.037 A 
HETATM    2  C   UNL     1      27.128  43.142  50.732  1.00  0.00     0.056 A 
HETATM    3  C   UNL     1      26.870  42.495  49.522  1.00  0.00     0.031 A 
HETATM    4  C   UNL     1      27.280  41.175  49.332  1.00  0.00     0.002 A 
HETATM    5  C   UNL     1      27.954  40.500  50.344  1.00  0.00     0.002 A 
HETATM    6  C   UNL     1      28.225  41.142  51.555  1.00  0.00     0.026 A 
ENDROOT
BRANCH   2   7
HETATM    7  N   UNL     1      26.690  44.453  51.017  1.00  0.00    -0.325 N 
HETATM    8  C   UNL     1      26.867  45.598  50.270  1.00  0.00     0.227 C 
HETATM    9  O   UNL     1      27.531  45.685  49.236  1.00  0.00    -0.273 OA
HETATM   10  H   UNL     1      26.261  44.528  51.936  1.00  0.00     0.169 HD
BRANCH   8  11
HETATM   11  C   UNL     1      26.182  46.820  50.881  1.00  0.00     0.159 C 
BRANCH  11  12
HETATM   12  C   UNL     1      26.137  47.972  49.923  1.00  0.00     0.017 A 
HETATM   13  N   UNL     1      27.279  48.630  49.520  1.00  0.00    -0.369 N 
HETATM   14  H   UNL     1      28.220  48.359  49.789  1.00  0.00     0.165 HD
HETATM   15  C   UNL     1      26.947  49.646  48.664  1.00  0.00     0.088 A 
HETATM   16  C   UNL     1      25.580  49.644  48.510  1.00  0.00     0.019 A 
HETATM   17  C   UNL     1      25.068  48.589  49.304  1.00  0.00     0.027 A 
ENDBRANCH  11  12
ENDBRANCH   8  11
ENDBRANCH   2   7
BRANCH   1  18
HETATM   18  N   UNL     1      28.107  43.168  52.982  1.00  0.00    -0.281 NA
HETATM   19  C   UNL     1      27.297  42.744  54.128  1.00  0.00     0.117 C 
BRANCH  18  20
HETATM   20  C   UNL     1      29.565  43.206  53.248  1.00  0.00     0.133 C 
BRANCH  20  21
HETATM   21  C   UNL     1      29.850  43.918  54.554  1.00  0.00    -0.045 A 
HETATM   22  C   UNL     1      30.772  43.397  55.476  1.00  0.00     0.008 A 
HETATM   23  C   UNL     1      31.026  44.055  56.680  1.00  0.00     0.001 A 
HETATM   24  C   UNL     1      30.369  45.246  56.975  1.00  0.00     0.000 A 
HETATM   25  C   UNL     1      29.454  45.778  56.070  1.00  0.00     0.001 A 
HETATM   26  C   UNL     1      29.193  45.118  54.866  1.00  0.00     0.008 A 
ENDBRANCH  20  21
ENDBRANCH  18  20
ENDBRANCH   1  18
TORSDOF 6
ENDMDL
MODEL 5
REMARK VINA RESULT:      -7.2      6.339     10.433
REMARK  6 active torsions:
REMARK  status: ('A' for Active; 'I' for Inactive)
REMARK    1  A    between atoms: N_2  and  C_3 
REMARK    2  A    between atoms: N_2  and  C_19 
REMARK    3  A    between atoms: C_4  and  N_5 
REMARK       I    between atoms: N_5  and  C_6 
REMARK    4  A    between atoms: C_6  and  C_7 
REMARK    5  A    between atoms: C_7  and  C_8 
REMARK    6  A    between atoms: C_19  and  C_20 
ROOT
HETATM    1  C   UNL     1      27.954  41.596  51.263  1.00  0.00     0.037 A 
HETATM    2  C   UNL     1      27.227  42.419  50.363  1.00  0.00     0.056 A 
HETATM    3  C   UNL     1      27.036  42.020  49.039  1.00  0.00     0.031 A 
HETATM    4  C   UNL     1      27.552  40.804  48.592  1.00  0.00     0.002 A 
HETATM    5  C   UNL     1      28.265  39.985  49.462  1.00  0.00     0.002 A 
HETATM    6  C   UNL     1      28.469  40.379  50.786  1.00  0.00     0.026 A 
ENDROOT
BRANCH   2   7
HETATM    7  N   UNL     1      26.683  43.605  50.900  1.00  0.00    -0.325 N 
HETATM    8  C   UNL     1      26.883  44.905  50.485  1.00  0.00     0.227 C 
HETATM    9  O   UNL     1      27.661  45.265  49.601  1.00  0.00    -0.273 OA
HETATM   10  H   UNL     1      26.143  43.437  51.745  1.00  0.00     0.169 HD
BRANCH   8  11
HETATM   11  C   UNL     1      26.060  45.917  51.282  1.00  0.00     0.159 C 
BRANCH  11  12
HETATM   12  C   UNL     1      25.587  47.051  50.423  1.00  0.00     0.017 A 
HETATM   13  N   UNL     1      26.465  47.926  49.821  1.00  0.00    -0.369 N 
HETATM   14  H   UNL     1      27.476  47.840  49.864  1.00  0.00     0.165 HD
HETATM   15  C   UNL     1      25.766  48.868  49.115  1.00  0.00     0.088 A 
HETATM   16  C   UNL     1      24.425  48.600  49.260  1.00  0.00     0.019 A 
HETATM   17  C   UNL     1      24.309  47.455  50.084  1.00  0.00     0.027 A 
ENDBRANCH  11  12
ENDBRANCH   8  11
ENDBRANCH   2   7
BRANCH   1  18
HETATM   18  N   UNL     1      28.174  42.050  52.597  1.00  0.00    -0.281 NA
HETATM   19  C   UNL     1      27.762  41.093  53.629  1.00  0.00     0.117 C 
BRANCH  18  20
HETATM   20  C   UNL     1      29.548  42.577  52.769  1.00  0.00     0.133 C 
BRANCH  20  21
HETATM   21  C   UNL     1      29.609  43.532  53.944  1.00  0.00    -0.045 A 
HETATM   22  C   UNL     1      28.673  44.569  54.082  1.00  0.00     0.008 A 
HETATM   23  C   UNL     1      28.738  45.448  55.165  1.00  0.00     0.001 A 
HETATM   24  C   UNL     1      29.733  45.297  56.127  1.00  0.00     0.000 A 
HETATM   25  C   UNL     1      30.666  44.270  56.007  1.00  0.00     0.001 A 
HETATM   26  C   UNL     1      30.607  43.393  54.921  1.00  0.00     0.008 A 
ENDBRANCH  20  21
ENDBRANCH  18  20
ENDBRANCH   1  18
TORSDOF 6
ENDMDL
MODEL 6
REMARK VINA RESULT:      -7.2     10.583     12.878
REMARK  6 active torsions:
REMARK  status: ('A' for Active; 'I' for Inactive)
REMARK    1  A    between atoms: N_2  and  C_3 
REMARK    2  A    between atoms: N_2  and  C_19 
REMARK    3  A    between atoms: C_4  and  N_5 
REMARK       I    between atoms: N_5  and  C_6 
REMARK    4  A    between atoms: C_6  and  C_7 
REMARK    5  A    between atoms: C_7  and  C_8 
REMARK    6  A    between atoms: C_19  and  C_20 
ROOT
HETATM    1  C   UNL     1      32.184  50.536  41.409  1.00  0.00     0.037 A 
HETATM    2  C   UNL     1      31.444  51.284  42.362  1.00  0.00     0.056 A 
HETATM    3  C   UNL     1      32.088  51.868  43.455  1.00  0.00     0.031 A 
HETATM    4  C   UNL     1      33.466  51.728  43.614  1.00  0.00     0.002 A 
HETATM    5  C   UNL     1      34.206  51.000  42.687  1.00  0.00     0.002 A 
HETATM    6  C   UNL     1      33.570  50.404  41.596  1.00  0.00     0.026 A 
ENDROOT
BRANCH   2   7
HETATM    7  N   UNL     1      30.065  51.435  42.105  1.00  0.00    -0.325 N 
HETATM    8  C   UNL     1      29.435  52.391  41.339  1.00  0.00     0.227 C 
HETATM    9  O   UNL     1      29.981  53.355  40.802  1.00  0.00    -0.273 OA
HETATM   10  H   UNL     1      29.498  50.777  42.635  1.00  0.00     0.169 HD
BRANCH   8  11
HETATM   11  C   UNL     1      27.924  52.179  41.246  1.00  0.00     0.159 C 
BRANCH  11  12
HETATM   12  C   UNL     1      27.557  51.259  40.120  1.00  0.00     0.017 A 
HETATM   13  N   UNL     1      26.365  50.569  40.102  1.00  0.00    -0.369 N 
HETATM   14  H   UNL     1      25.636  50.669  40.801  1.00  0.00     0.165 HD
HETATM   15  C   UNL     1      26.298  49.795  38.974  1.00  0.00     0.088 A 
HETATM   16  C   UNL     1      27.456  49.987  38.257  1.00  0.00     0.019 A 
HETATM   17  C   UNL     1      28.251  50.910  38.978  1.00  0.00     0.027 A 
ENDBRANCH  11  12
ENDBRANCH   8  11
ENDBRANCH   2   7
BRANCH   1  18
HETATM   18  N   UNL     1      31.494  49.911  40.328  1.00  0.00    -0.281 NA
HETATM   19  C   UNL     1      31.782  50.500  39.017  1.00  0.00     0.117 C 
BRANCH  18  20
HETATM   20  C   UNL     1      31.634  48.437  40.378  1.00  0.00     0.133 C 
BRANCH  20  21
HETATM   21  C   UNL     1      30.273  47.772  40.362  1.00  0.00    -0.045 A 
HETATM   22  C   UNL     1      29.971  46.764  39.434  1.00  0.00     0.008 A 
HETATM   23  C   UNL     1      28.713  46.158  39.422  1.00  0.00     0.001 A 
HETATM   24  C   UNL     1      27.744  46.548  40.342  1.00  0.00     0.000 A 
HETATM   25  C   UNL     1      28.029  47.544  41.273  1.00  0.00     0.001 A 
HETATM   26  C   UNL     1      29.285  48.155  41.283  1.00  0.00     0.008 A 
ENDBRANCH  20  21
ENDBRANCH  18  20
ENDBRANCH   1  18
TORSDOF 6
ENDMDL
MODEL 7
REMARK VINA RESULT:      -7.0     10.674     13.847
REMARK  6 active torsions:
REMARK  status: ('A' for Active; 'I' for Inactive)
REMARK    1  A    between atoms: N_2  and  C_3 
REMARK    2  A    between atoms: N_2  and  C_19 
REMARK    3  A    between atoms: C_4  and  N_5 
REMARK       I    between atoms: N_5  and  C_6 
REMARK    4  A    between atoms: C_6  and  C_7 
REMARK    5  A    between atoms: C_7  and  C_8 
REMARK    6  A    between atoms: C_19  and  C_20 
ROOT
HETATM    1  C   UNL     1      33.696  50.962  42.209  1.00  0.00     0.037 A 
HETATM    2  C   UNL     1      34.089  50.044  41.200  1.00  0.00     0.056 A 
HETATM    3  C   UNL     1      35.440  49.846  40.913  1.00  0.00     0.031 A 
HETATM    4  C   UNL     1      36.418  50.545  41.622  1.00  0.00     0.002 A 
HETATM    5  C   UNL     1      36.049  51.447  42.615  1.00  0.00     0.002 A 
HETATM    6  C   UNL     1      34.699  51.658  42.904  1.00  0.00     0.026 A 
ENDROOT
BRANCH   2   7
HETATM    7  N   UNL     1      33.051  49.329  40.567  1.00  0.00    -0.325 N 
HETATM    8  C   UNL     1      32.621  48.042  40.812  1.00  0.00     0.227 C 
HETATM    9  O   UNL     1      33.145  47.247  41.592  1.00  0.00    -0.273 OA
HETATM   10  H   UNL     1      32.647  49.841  39.786  1.00  0.00     0.169 HD
BRANCH   8  11
HETATM   11  C   UNL     1      31.416  47.644  39.959  1.00  0.00     0.159 C 
BRANCH  11  12
HETATM   12  C   UNL     1      30.121  48.029  40.609  1.00  0.00     0.017 A 
HETATM   13  N   UNL     1      30.078  48.641  41.842  1.00  0.00    -0.369 N 
HETATM   14  H   UNL     1      30.899  48.923  42.370  1.00  0.00     0.165 HD
HETATM   15  C   UNL     1      28.775  48.862  42.202  1.00  0.00     0.088 A 
HETATM   16  C   UNL     1      27.969  48.391  41.192  1.00  0.00     0.019 A 
HETATM   17  C   UNL     1      28.816  47.864  40.186  1.00  0.00     0.027 A 
ENDBRANCH  11  12
ENDBRANCH   8  11
ENDBRANCH   2   7
BRANCH   1  18
HETATM   18  N   UNL     1      32.307  51.178  42.450  1.00  0.00    -0.281 NA
HETATM   19  C   UNL     1      31.918  51.048  43.857  1.00  0.00     0.117 C 
BRANCH  18  20
HETATM   20  C   UNL     1      31.834  52.423  41.800  1.00  0.00     0.133 C 
BRANCH  20  21
HETATM   21  C   UNL     1      30.520  52.184  41.085  1.00  0.00    -0.045 A 
HETATM   22  C   UNL     1      30.489  51.642  39.790  1.00  0.00     0.008 A 
HETATM   23  C   UNL     1      29.275  51.428  39.135  1.00  0.00     0.001 A 
HETATM   24  C   UNL     1      28.076  51.745  39.768  1.00  0.00     0.000 A 
HETATM   25  C   UNL     1      28.090  52.280  41.054  1.00  0.00     0.001 A 
HETATM   26  C   UNL     1      29.304  52.500  41.710  1.00  0.00     0.008 A 
ENDBRANCH  20  21
ENDBRANCH  18  20
ENDBRANCH   1  18
TORSDOF 6
ENDMDL
MODEL 8
REMARK VINA RESULT:      -6.8      7.722     10.903
REMARK  6 active torsions:
REMARK  status: ('A' for Active; 'I' for Inactive)
REMARK    1  A    between atoms: N_2  and  C_3 
REMARK    2  A    between atoms: N_2  and  C_19 
REMARK    3  A    between atoms: C_4  and  N_5 
REMARK       I    between atoms: N_5  and  C_6 
REMARK    4  A    between atoms: C_6  and  C_7 
REMARK    5  A    between atoms: C_7  and  C_8 
REMARK    6  A    between atoms: C_19  and  C_20 
ROOT
HETATM    1  C   UNL     1      27.625  39.854  49.588  1.00  0.00     0.037 A 
HETATM    2  C   UNL     1      28.615  39.793  50.604  1.00  0.00     0.056 A 
HETATM    3  C   UNL     1      29.273  38.592  50.877  1.00  0.00     0.031 A 
HETATM    4  C   UNL     1      28.967  37.443  50.147  1.00  0.00     0.002 A 
HETATM    5  C   UNL     1      28.001  37.487  49.147  1.00  0.00     0.002 A 
HETATM    6  C   UNL     1      27.331  38.681  48.872  1.00  0.00     0.026 A 
ENDROOT
BRANCH   2   7
HETATM    7  N   UNL     1      28.915  41.005  51.259  1.00  0.00    -0.325 N 
HETATM    8  C   UNL     1      28.900  41.277  52.610  1.00  0.00     0.227 C 
HETATM    9  O   UNL     1      28.528  40.504  53.494  1.00  0.00    -0.273 OA
HETATM   10  H   UNL     1      29.084  41.768  50.607  1.00  0.00     0.169 HD
BRANCH   8  11
HETATM   11  C   UNL     1      29.355  42.699  52.938  1.00  0.00     0.159 C 
BRANCH  11  12
HETATM   12  C   UNL     1      28.309  43.459  53.696  1.00  0.00     0.017 A 
HETATM   13  N   UNL     1      27.132  42.871  54.105  1.00  0.00    -0.369 N 
HETATM   14  H   UNL     1      26.911  41.888  53.977  1.00  0.00     0.165 HD
HETATM   15  C   UNL     1      26.357  43.793  54.756  1.00  0.00     0.088 A 
HETATM   16  C   UNL     1      27.039  44.987  54.771  1.00  0.00     0.019 A 
HETATM   17  C   UNL     1      28.270  44.779  54.103  1.00  0.00     0.027 A 
ENDBRANCH  11  12
ENDBRANCH   8  11
ENDBRANCH   2   7
BRANCH   1  18
HETATM   18  N   UNL     1      26.936  41.082  49.362  1.00  0.00    -0.281 NA
HETATM   19  C   UNL     1      26.424  41.237  47.997  1.00  0.00     0.117 C 
BRANCH  18  20
HETATM   20  C   UNL     1      25.932  41.342  50.422  1.00  0.00     0.133 C 
BRANCH  20  21
HETATM   21  C   UNL     1      25.847  42.824  50.722  1.00  0.00    -0.045 A 
HETATM   22  C   UNL     1      26.888  43.696  50.365  1.00  0.00     0.008 A 
HETATM   23  C   UNL     1      26.805  45.060  50.648  1.00  0.00     0.001 A 
HETATM   24  C   UNL     1      25.678  45.572  51.286  1.00  0.00     0.000 A 
HETATM   25  C   UNL     1      24.635  44.721  51.644  1.00  0.00     0.001 A 
HETATM   26  C   UNL     1      24.718  43.354  51.366  1.00  0.00     0.008 A 
ENDBRANCH  20  21
ENDBRANCH  18  20
ENDBRANCH   1  18
TORSDOF 6
ENDMDL
MODEL 9
REMARK VINA RESULT:      -6.7      6.169      9.466
REMARK  6 active torsions:
REMARK  status: ('A' for Active; 'I' for Inactive)
REMARK    1  A    between atoms: N_2  and  C_3 
REMARK    2  A    between atoms: N_2  and  C_19 
REMARK    3  A    between atoms: C_4  and  N_5 
REMARK       I    between atoms: N_5  and  C_6 
REMARK    4  A    between atoms: C_6  and  C_7 
REMARK    5  A    between atoms: C_7  and  C_8 
REMARK    6  A    between atoms: C_19  and  C_20 
ROOT
HETATM    1  C   UNL     1      27.632  43.841  53.781  1.00  0.00     0.037 A 
HETATM    2  C   UNL     1      28.035  42.958  52.744  1.00  0.00     0.056 A 
HETATM    3  C   UNL     1      29.354  42.507  52.674  1.00  0.00     0.031 A 
HETATM    4  C   UNL     1      30.286  42.913  53.629  1.00  0.00     0.002 A 
HETATM    5  C   UNL     1      29.906  43.776  54.653  1.00  0.00     0.002 A 
HETATM    6  C   UNL     1      28.591  44.240  54.726  1.00  0.00     0.026 A 
ENDROOT
BRANCH   2   7
HETATM    7  N   UNL     1      27.027  42.542  51.849  1.00  0.00    -0.325 N 
HETATM    8  C   UNL     1      26.812  42.948  50.550  1.00  0.00     0.227 C 
HETATM    9  O   UNL     1      27.433  43.834  49.962  1.00  0.00    -0.273 OA
HETATM   10  H   UNL     1      26.352  41.920  52.287  1.00  0.00     0.169 HD
BRANCH   8  11
HETATM   11  C   UNL     1      25.651  42.212  49.879  1.00  0.00     0.159 C 
BRANCH  11  12
HETATM   12  C   UNL     1      26.122  41.322  48.769  1.00  0.00     0.017 A 
HETATM   13  N   UNL     1      27.024  41.753  47.821  1.00  0.00    -0.369 N 
HETATM   14  H   UNL     1      27.472  42.665  47.831  1.00  0.00     0.165 HD
HETATM   15  C   UNL     1      27.262  40.749  46.921  1.00  0.00     0.088 A 
HETATM   16  C   UNL     1      26.510  39.658  47.291  1.00  0.00     0.019 A 
HETATM   17  C   UNL     1      25.790  40.018  48.456  1.00  0.00     0.027 A 
ENDBRANCH  11  12
ENDBRANCH   8  11
ENDBRANCH   2   7
BRANCH   1  18
HETATM   18  N   UNL     1      26.290  44.322  53.800  1.00  0.00    -0.281 NA
HETATM   19  C   UNL     1      25.492  43.821  54.923  1.00  0.00     0.117 C 
BRANCH  18  20
HETATM   20  C   UNL     1      26.242  45.794  53.627  1.00  0.00     0.133 C 
BRANCH  20  21
HETATM   21  C   UNL     1      25.734  46.151  52.245  1.00  0.00    -0.045 A 
HETATM   22  C   UNL     1      24.712  45.407  51.636  1.00  0.00     0.008 A 
HETATM   23  C   UNL     1      24.252  45.738  50.360  1.00  0.00     0.001 A 
HETATM   24  C   UNL     1      24.802  46.822  49.681  1.00  0.00     0.000 A 
HETATM   25  C   UNL     1      25.814  47.573  50.274  1.00  0.00     0.001 A 
HETATM   26  C   UNL     1      26.280  47.239  51.548  1.00  0.00     0.008 A 
ENDBRANCH  20  21
ENDBRANCH  18  20
ENDBRANCH   1  18
TORSDOF 6
ENDMDL
MODEL 10
REMARK VINA RESULT:      -6.6     10.543     13.218
REMARK  6 active torsions:
REMARK  status: ('A' for Active; 'I' for Inactive)
REMARK    1  A    between atoms: N_2  and  C_3 
REMARK    2  A    between atoms: N_2  and  C_19 
REMARK    3  A    between atoms: C_4  and  N_5 
REMARK       I    between atoms: N_5  and  C_6 
REMARK    4  A    between atoms: C_6  and  C_7 
REMARK    5  A    between atoms: C_7  and  C_8 
REMARK    6  A    between atoms: C_19  and  C_20 
ROOT
HETATM    1  C   UNL     1      28.904  47.928  40.429  1.00  0.00     0.037 A 
HETATM    2  C   UNL     1      29.349  47.976  39.081  1.00  0.00     0.056 A 
HETATM    3  C   UNL     1      29.117  46.899  38.223  1.00  0.00     0.031 A 
HETATM    4  C   UNL     1      28.439  45.770  38.682  1.00  0.00     0.002 A 
HETATM    5  C   UNL     1      27.995  45.709  39.999  1.00  0.00     0.002 A 
HETATM    6  C   UNL     1      28.229  46.777  40.868  1.00  0.00     0.026 A 
ENDROOT
BRANCH   2   7
HETATM    7  N   UNL     1      29.974  49.172  38.670  1.00  0.00    -0.325 N 
HETATM    8  C   UNL     1      29.388  50.329  38.203  1.00  0.00     0.227 C 
HETATM    9  O   UNL     1      28.188  50.487  37.980  1.00  0.00    -0.273 OA
HETATM   10  H   UNL     1      30.988  49.097  38.663  1.00  0.00     0.169 HD
BRANCH   8  11
HETATM   11  C   UNL     1      30.402  51.439  37.923  1.00  0.00     0.159 C 
BRANCH  11  12
HETATM   12  C   UNL     1      30.614  52.317  39.119  1.00  0.00     0.017 A 
HETATM   13  N   UNL     1      29.599  53.082  39.650  1.00  0.00    -0.369 N 
HETATM   14  H   UNL     1      28.639  53.070  39.318  1.00  0.00     0.165 HD
HETATM   15  C   UNL     1      30.071  53.796  40.719  1.00  0.00     0.088 A 
HETATM   16  C   UNL     1      31.402  53.489  40.882  1.00  0.00     0.019 A 
HETATM   17  C   UNL     1      31.746  52.556  39.873  1.00  0.00     0.027 A 
ENDBRANCH  11  12
ENDBRANCH   8  11
ENDBRANCH   2   7
BRANCH   1  18
HETATM   18  N   UNL     1      29.195  49.023  41.295  1.00  0.00    -0.281 NA
HETATM   19  C   UNL     1      28.016  49.797  41.696  1.00  0.00     0.117 C 
BRANCH  18  20
HETATM   20  C   UNL     1      30.060  48.604  42.424  1.00  0.00     0.133 C 
BRANCH  20  21
HETATM   21  C   UNL     1      31.422  49.259  42.322  1.00  0.00    -0.045 A 
HETATM   22  C   UNL     1      32.387  48.786  41.419  1.00  0.00     0.008 A 
HETATM   23  C   UNL     1      33.642  49.392  41.333  1.00  0.00     0.001 A 
HETATM   24  C   UNL     1      33.946  50.483  42.143  1.00  0.00     0.000 A 
HETATM   25  C   UNL     1      32.998  50.967  43.042  1.00  0.00     0.001 A 
HETATM   26  C   UNL     1      31.743  50.359  43.133  1.00  0.00     0.008 A 
ENDBRANCH  20  21
ENDBRANCH  18  20
ENDBRANCH   1  18
TORSDOF 6
ENDMDL
