MODEL 1
REMARK VINA RESULT:      -9.2      0.000      0.000
REMARK  5 active torsions:
REMARK  status: ('A' for Active; 'I' for Inactive)
REMARK    1  A    between atoms: C_5  and  C_6 
REMARK    2  A    between atoms: C_10  and  C_11 
REMARK       I    between atoms: C_11  and  N_12 
REMARK    3  A    between atoms: N_12  and  C_13 
REMARK    4  A    between atoms: C_13  and  C_14 
REMARK    5  A    between atoms: C_14  and  O_15 
ROOT
HETATM    1  C   UNL     1      28.454  43.527  53.087  1.00  0.00     0.068 A 
HETATM    2  N   UNL     1      27.717  44.556  52.602  1.00  0.00    -0.248 NA
HETATM    3  C   UNL     1      26.996  44.398  51.478  1.00  0.00     0.068 A 
HETATM    4  C   UNL     1      26.933  43.184  50.767  1.00  0.00     0.008 A 
HETATM    5  C   UNL     1      27.657  42.110  51.328  1.00  0.00     0.046 A 
HETATM    6  C   UNL     1      28.430  42.288  52.477  1.00  0.00     0.050 A 
HETATM    7  C   UNL     1      26.288  45.494  51.002  1.00  0.00     0.032 A 
HETATM    8  C   UNL     1      25.534  45.435  49.828  1.00  0.00     0.002 A 
HETATM    9  C   UNL     1      25.491  44.256  49.099  1.00  0.00     0.001 A 
HETATM   10  C   UNL     1      26.189  43.140  49.558  1.00  0.00     0.015 A 
ENDROOT
BRANCH   5  11
HETATM   11  C   UNL     1      27.658  40.727  50.789  1.00  0.00     0.252 C 
HETATM   12  N   UNL     1      28.839  40.283  50.237  1.00  0.00    -0.354 N 
HETATM   13  H   UNL     1      29.570  40.975  50.115  1.00  0.00     0.162 HD
HETATM   14  O   UNL     1      26.613  40.087  50.780  1.00  0.00    -0.268 OA
BRANCH  12  15
HETATM   15  C   UNL     1      28.925  39.113  49.364  1.00  0.00     0.154 C 
BRANCH  15  16
HETATM   16  C   UNL     1      29.957  38.044  49.776  1.00  0.00     0.132 C 
HETATM   17  C   UNL     1      29.961  37.843  51.286  1.00  0.00     0.041 C 
BRANCH  16  18
HETATM   18  O   UNL     1      31.277  38.452  49.415  1.00  0.00    -0.394 OA
HETATM   19  H   UNL     1      31.413  39.328  49.842  1.00  0.00     0.210 HD
ENDBRANCH  16  18
ENDBRANCH  15  16
ENDBRANCH  12  15
ENDBRANCH   5  11
BRANCH   1  20
HETATM   20  C   UNL     1      29.251  43.808  54.300  1.00  0.00    -0.007 A 
HETATM   21  C   UNL     1      29.029  44.971  55.057  1.00  0.00     0.014 A 
HETATM   22  C   UNL     1      29.763  45.241  56.220  1.00  0.00     0.007 A 
HETATM   23  C   UNL     1      30.753  44.358  56.652  1.00  0.00    -0.062 A 
HETATM   24  C   UNL     1      31.529  44.619  57.908  1.00  0.00     0.048 C 
HETATM   25  C   UNL     1      30.993  43.199  55.910  1.00  0.00     0.007 A 
HETATM   26  C   UNL     1      30.258  42.934  54.750  1.00  0.00     0.014 A 
ENDBRANCH   1  20
TORSDOF 5
ENDMDL
MODEL 2
REMARK VINA RESULT:      -9.1      2.976      5.250
REMARK  5 active torsions:
REMARK  status: ('A' for Active; 'I' for Inactive)
REMARK    1  A    between atoms: C_5  and  C_6 
REMARK    2  A    between atoms: C_10  and  C_11 
REMARK       I    between atoms: C_11  and  N_12 
REMARK    3  A    between atoms: N_12  and  C_13 
REMARK    4  A    between atoms: C_13  and  C_14 
REMARK    5  A    between atoms: C_14  and  O_15 
ROOT
HETATM    1  C   UNL     1      28.079  43.716  53.275  1.00  0.00     0.068 A 
HETATM    2  N   UNL     1      28.010  42.457  52.779  1.00  0.00    -0.248 NA
HETATM    3  C   UNL     1      27.154  42.170  51.783  1.00  0.00     0.068 A 
HETATM    4  C   UNL     1      26.318  43.133  51.185  1.00  0.00     0.008 A 
HETATM    5  C   UNL     1      26.455  44.449  51.674  1.00  0.00     0.046 A 
HETATM    6  C   UNL     1      27.322  44.736  52.730  1.00  0.00     0.050 A 
HETATM    7  C   UNL     1      27.095  40.857  51.335  1.00  0.00     0.032 A 
HETATM    8  C   UNL     1      26.217  40.457  50.325  1.00  0.00     0.002 A 
HETATM    9  C   UNL     1      25.364  41.387  49.750  1.00  0.00     0.001 A 
HETATM   10  C   UNL     1      25.406  42.714  50.179  1.00  0.00     0.015 A 
ENDROOT
BRANCH   5  11
HETATM   11  C   UNL     1      25.735  45.627  51.128  1.00  0.00     0.252 C 
HETATM   12  N   UNL     1      26.459  46.464  50.309  1.00  0.00    -0.354 N 
HETATM   13  H   UNL     1      27.456  46.291  50.252  1.00  0.00     0.162 HD
HETATM   14  O   UNL     1      24.585  45.846  51.490  1.00  0.00    -0.268 OA
BRANCH  12  15
HETATM   15  C   UNL     1      26.033  47.823  49.976  1.00  0.00     0.154 C 
BRANCH  15  16
HETATM   16  C   UNL     1      27.096  48.711  49.297  1.00  0.00     0.132 C 
HETATM   17  C   UNL     1      26.448  49.691  48.328  1.00  0.00     0.041 C 
BRANCH  16  18
HETATM   18  O   UNL     1      28.002  47.917  48.530  1.00  0.00    -0.394 OA
HETATM   19  H   UNL     1      28.829  47.865  49.061  1.00  0.00     0.210 HD
ENDBRANCH  16  18
ENDBRANCH  15  16
ENDBRANCH  12  15
ENDBRANCH   5  11
BRANCH   1  20
HETATM   20  C   UNL     1      29.015  43.926  54.400  1.00  0.00    -0.007 A 
HETATM   21  C   UNL     1      28.951  45.091  55.185  1.00  0.00     0.014 A 
HETATM   22  C   UNL     1      29.818  45.296  56.266  1.00  0.00     0.007 A 
HETATM   23  C   UNL     1      30.787  44.344  56.586  1.00  0.00    -0.062 A 
HETATM   24  C   UNL     1      31.704  44.536  57.756  1.00  0.00     0.048 C 
HETATM   25  C   UNL     1      30.870  43.182  55.815  1.00  0.00     0.007 A 
HETATM   26  C   UNL     1      30.003  42.982  54.736  1.00  0.00     0.014 A 
ENDBRANCH   1  20
TORSDOF 5
ENDMDL
MODEL 3
REMARK VINA RESULT:      -8.9      1.328      1.917
REMARK  5 active torsions:
REMARK  status: ('A' for Active; 'I' for Inactive)
REMARK    1  A    between atoms: C_5  and  C_6 
REMARK    2  A    between atoms: C_10  and  C_11 
REMARK       I    between atoms: C_11  and  N_12 
REMARK    3  A    between atoms: N_12  and  C_13 
REMARK    4  A    between atoms: C_13  and  C_14 
REMARK    5  A    between atoms: C_14  and  O_15 
ROOT
HETATM    1  C   UNL     1      27.993  44.250  52.973  1.00  0.00     0.068 A 
HETATM    2  N   UNL     1      27.187  45.338  52.904  1.00  0.00    -0.248 NA
HETATM    3  C   UNL     1      26.349  45.491  51.864  1.00  0.00     0.068 A 
HETATM    4  C   UNL     1      26.232  44.549  50.824  1.00  0.00     0.008 A 
HETATM    5  C   UNL     1      27.033  43.394  50.952  1.00  0.00     0.046 A 
HETATM    6  C   UNL     1      27.925  43.255  52.017  1.00  0.00     0.050 A 
HETATM    7  C   UNL     1      25.572  46.641  51.821  1.00  0.00     0.032 A 
HETATM    8  C   UNL     1      24.693  46.902  50.767  1.00  0.00     0.002 A 
HETATM    9  C   UNL     1      24.592  46.000  49.719  1.00  0.00     0.001 A 
HETATM   10  C   UNL     1      25.358  44.835  49.741  1.00  0.00     0.015 A 
ENDROOT
BRANCH   5  11
HETATM   11  C   UNL     1      27.001  42.242  50.017  1.00  0.00     0.252 C 
HETATM   12  N   UNL     1      26.710  41.013  50.566  1.00  0.00    -0.354 N 
HETATM   13  H   UNL     1      26.676  40.966  51.578  1.00  0.00     0.162 HD
HETATM   14  O   UNL     1      27.313  42.414  48.845  1.00  0.00    -0.268 OA
BRANCH  12  15
HETATM   15  C   UNL     1      26.975  39.748  49.882  1.00  0.00     0.154 C 
BRANCH  15  16
HETATM   16  C   UNL     1      28.434  39.252  49.931  1.00  0.00     0.132 C 
HETATM   17  C   UNL     1      28.505  37.745  49.725  1.00  0.00     0.041 C 
BRANCH  16  18
HETATM   18  O   UNL     1      29.013  39.517  51.210  1.00  0.00    -0.394 OA
HETATM   19  H   UNL     1      29.968  39.297  51.123  1.00  0.00     0.210 HD
ENDBRANCH  16  18
ENDBRANCH  15  16
ENDBRANCH  12  15
ENDBRANCH   5  11
BRANCH   1  20
HETATM   20  C   UNL     1      28.914  44.190  54.128  1.00  0.00    -0.007 A 
HETATM   21  C   UNL     1      29.786  43.101  54.300  1.00  0.00     0.014 A 
HETATM   22  C   UNL     1      30.678  43.039  55.379  1.00  0.00     0.007 A 
HETATM   23  C   UNL     1      30.715  44.062  56.327  1.00  0.00    -0.062 A 
HETATM   24  C   UNL     1      31.682  44.024  57.471  1.00  0.00     0.048 C 
HETATM   25  C   UNL     1      29.852  45.151  56.176  1.00  0.00     0.007 A 
HETATM   26  C   UNL     1      28.963  45.209  55.098  1.00  0.00     0.014 A 
ENDBRANCH   1  20
TORSDOF 5
ENDMDL
MODEL 4
REMARK VINA RESULT:      -8.7      1.555      2.087
REMARK  5 active torsions:
REMARK  status: ('A' for Active; 'I' for Inactive)
REMARK    1  A    between atoms: C_5  and  C_6 
REMARK    2  A    between atoms: C_10  and  C_11 
REMARK       I    between atoms: C_11  and  N_12 
REMARK    3  A    between atoms: N_12  and  C_13 
REMARK    4  A    between atoms: C_13  and  C_14 
REMARK    5  A    between atoms: C_14  and  O_15 
ROOT
HETATM    1  C   UNL     1      27.682  42.779  52.044  1.00  0.00     0.068 A 
HETATM    2  N   UNL     1      26.385  43.170  52.011  1.00  0.00    -0.248 NA
HETATM    3  C   UNL     1      25.599  42.813  50.981  1.00  0.00     0.068 A 
HETATM    4  C   UNL     1      26.045  42.010  49.913  1.00  0.00     0.008 A 
HETATM    5  C   UNL     1      27.380  41.562  50.002  1.00  0.00     0.046 A 
HETATM    6  C   UNL     1      28.202  41.961  51.058  1.00  0.00     0.050 A 
HETATM    7  C   UNL     1      24.288  43.271  50.976  1.00  0.00     0.032 A 
HETATM    8  C   UNL     1      23.405  42.977  49.935  1.00  0.00     0.002 A 
HETATM    9  C   UNL     1      23.840  42.216  48.860  1.00  0.00     0.001 A 
HETATM   10  C   UNL     1      25.150  41.741  48.843  1.00  0.00     0.015 A 
ENDROOT
BRANCH   5  11
HETATM   11  C   UNL     1      28.023  40.640  49.033  1.00  0.00     0.252 C 
HETATM   12  N   UNL     1      28.171  39.331  49.436  1.00  0.00    -0.354 N 
HETATM   13  H   UNL     1      27.959  39.129  50.406  1.00  0.00     0.162 HD
HETATM   14  O   UNL     1      28.461  41.088  47.980  1.00  0.00    -0.268 OA
BRANCH  12  15
HETATM   15  C   UNL     1      29.074  38.388  48.776  1.00  0.00     0.154 C 
BRANCH  15  16
HETATM   16  C   UNL     1      30.193  37.801  49.661  1.00  0.00     0.132 C 
HETATM   17  C   UNL     1      29.879  37.997  51.138  1.00  0.00     0.041 C 
BRANCH  16  18
HETATM   18  O   UNL     1      31.431  38.468  49.415  1.00  0.00    -0.394 OA
HETATM   19  H   UNL     1      31.472  39.207  50.063  1.00  0.00     0.210 HD
ENDBRANCH  16  18
ENDBRANCH  15  16
ENDBRANCH  12  15
ENDBRANCH   5  11
BRANCH   1  20
HETATM   20  C   UNL     1      28.482  43.257  53.191  1.00  0.00    -0.007 A 
HETATM   21  C   UNL     1      29.721  42.670  53.503  1.00  0.00     0.014 A 
HETATM   22  C   UNL     1      30.499  43.124  54.576  1.00  0.00     0.007 A 
HETATM   23  C   UNL     1      30.052  44.175  55.379  1.00  0.00    -0.062 A 
HETATM   24  C   UNL     1      30.885  44.690  56.514  1.00  0.00     0.048 C 
HETATM   25  C   UNL     1      28.821  44.768  55.089  1.00  0.00     0.007 A 
HETATM   26  C   UNL     1      28.047  44.311  54.017  1.00  0.00     0.014 A 
ENDBRANCH   1  20
TORSDOF 5
ENDMDL
MODEL 5
REMARK VINA RESULT:      -8.2      5.580      9.935
REMARK  5 active torsions:
REMARK  status: ('A' for Active; 'I' for Inactive)
REMARK    1  A    between atoms: C_5  and  C_6 
REMARK    2  A    between atoms: C_10  and  C_11 
REMARK       I    between atoms: C_11  and  N_12 
REMARK    3  A    between atoms: N_12  and  C_13 
REMARK    4  A    between atoms: C_13  and  C_14 
REMARK    5  A    between atoms: C_14  and  O_15 
ROOT
HETATM    1  C   UNL     1      22.850  49.288  48.644  1.00  0.00     0.068 A 
HETATM    2  N   UNL     1      23.983  49.988  48.394  1.00  0.00    -0.248 NA
HETATM    3  C   UNL     1      25.182  49.460  48.695  1.00  0.00     0.068 A 
HETATM    4  C   UNL     1      25.341  48.174  49.246  1.00  0.00     0.008 A 
HETATM    5  C   UNL     1      24.151  47.439  49.437  1.00  0.00     0.046 A 
HETATM    6  C   UNL     1      22.906  48.004  49.152  1.00  0.00     0.050 A 
HETATM    7  C   UNL     1      26.311  50.232  48.454  1.00  0.00     0.032 A 
HETATM    8  C   UNL     1      27.596  49.782  48.760  1.00  0.00     0.002 A 
HETATM    9  C   UNL     1      27.766  48.530  49.334  1.00  0.00     0.001 A 
HETATM   10  C   UNL     1      26.649  47.733  49.583  1.00  0.00     0.015 A 
ENDROOT
BRANCH   5  11
HETATM   11  C   UNL     1      24.098  46.038  49.922  1.00  0.00     0.252 C 
HETATM   12  N   UNL     1      24.376  45.839  51.256  1.00  0.00    -0.354 N 
HETATM   13  H   UNL     1      24.728  46.639  51.770  1.00  0.00     0.162 HD
HETATM   14  O   UNL     1      23.901  45.134  49.120  1.00  0.00    -0.268 OA
BRANCH  12  15
HETATM   15  C   UNL     1      24.710  44.531  51.818  1.00  0.00     0.154 C 
BRANCH  15  16
HETATM   16  C   UNL     1      25.412  44.549  53.191  1.00  0.00     0.132 C 
HETATM   17  C   UNL     1      26.449  45.662  53.257  1.00  0.00     0.041 C 
BRANCH  16  18
HETATM   18  O   UNL     1      26.112  43.325  53.415  1.00  0.00    -0.394 OA
HETATM   19  H   UNL     1      25.503  42.759  53.942  1.00  0.00     0.210 HD
ENDBRANCH  16  18
ENDBRANCH  15  16
ENDBRANCH  12  15
ENDBRANCH   5  11
BRANCH   1  20
HETATM   20  C   UNL     1      21.577  49.967  48.324  1.00  0.00    -0.007 A 
HETATM   21  C   UNL     1      20.610  49.346  47.514  1.00  0.00     0.014 A 
HETATM   22  C   UNL     1      19.391  49.969  47.217  1.00  0.00     0.007 A 
HETATM   23  C   UNL     1      19.108  51.242  47.712  1.00  0.00    -0.062 A 
HETATM   24  C   UNL     1      17.797  51.911  47.426  1.00  0.00     0.048 C 
HETATM   25  C   UNL     1      20.058  51.879  48.514  1.00  0.00     0.007 A 
HETATM   26  C   UNL     1      21.274  51.254  48.808  1.00  0.00     0.014 A 
ENDBRANCH   1  20
TORSDOF 5
ENDMDL
MODEL 6
REMARK VINA RESULT:      -8.0      1.626      2.122
REMARK  5 active torsions:
REMARK  status: ('A' for Active; 'I' for Inactive)
REMARK    1  A    between atoms: C_5  and  C_6 
REMARK    2  A    between atoms: C_10  and  C_11 
REMARK       I    between atoms: C_11  and  N_12 
REMARK    3  A    between atoms: N_12  and  C_13 
REMARK    4  A    between atoms: C_13  and  C_14 
REMARK    5  A    between atoms: C_14  and  O_15 
ROOT
HETATM    1  C   UNL     1      28.145  43.126  53.251  1.00  0.00     0.068 A 
HETATM    2  N   UNL     1      26.919  43.559  52.868  1.00  0.00    -0.248 NA
HETATM    3  C   UNL     1      26.291  42.976  51.833  1.00  0.00     0.068 A 
HETATM    4  C   UNL     1      26.832  41.892  51.114  1.00  0.00     0.008 A 
HETATM    5  C   UNL     1      28.080  41.418  51.572  1.00  0.00     0.046 A 
HETATM    6  C   UNL     1      28.743  42.047  52.628  1.00  0.00     0.050 A 
HETATM    7  C   UNL     1      25.053  43.480  51.457  1.00  0.00     0.032 A 
HETATM    8  C   UNL     1      24.338  42.961  50.376  1.00  0.00     0.002 A 
HETATM    9  C   UNL     1      24.874  41.915  49.639  1.00  0.00     0.001 A 
HETATM   10  C   UNL     1      26.114  41.388  49.998  1.00  0.00     0.015 A 
ENDROOT
BRANCH   5  11
HETATM   11  C   UNL     1      28.785  40.237  51.016  1.00  0.00     0.252 C 
HETATM   12  N   UNL     1      28.801  40.120  49.644  1.00  0.00    -0.354 N 
HETATM   13  H   UNL     1      28.217  40.768  49.127  1.00  0.00     0.162 HD
HETATM   14  O   UNL     1      29.234  39.392  51.782  1.00  0.00    -0.268 OA
BRANCH  12  15
HETATM   15  C   UNL     1      29.129  38.875  48.950  1.00  0.00     0.154 C 
BRANCH  15  16
HETATM   16  C   UNL     1      28.009  37.816  48.905  1.00  0.00     0.132 C 
HETATM   17  C   UNL     1      26.688  38.439  48.473  1.00  0.00     0.041 C 
BRANCH  16  18
HETATM   18  O   UNL     1      27.792  37.257  50.201  1.00  0.00    -0.394 OA
HETATM   19  H   UNL     1      27.946  36.290  50.106  1.00  0.00     0.210 HD
ENDBRANCH  16  18
ENDBRANCH  15  16
ENDBRANCH  12  15
ENDBRANCH   5  11
BRANCH   1  20
HETATM   20  C   UNL     1      28.779  43.857  54.369  1.00  0.00    -0.007 A 
HETATM   21  C   UNL     1      30.016  43.445  54.892  1.00  0.00     0.014 A 
HETATM   22  C   UNL     1      30.638  44.138  55.939  1.00  0.00     0.007 A 
HETATM   23  C   UNL     1      30.030  45.261  56.504  1.00  0.00    -0.062 A 
HETATM   24  C   UNL     1      30.695  46.029  57.606  1.00  0.00     0.048 C 
HETATM   25  C   UNL     1      28.797  45.683  56.002  1.00  0.00     0.007 A 
HETATM   26  C   UNL     1      28.180  44.987  54.956  1.00  0.00     0.014 A 
ENDBRANCH   1  20
TORSDOF 5
ENDMDL
MODEL 7
REMARK VINA RESULT:      -7.9      2.468      3.199
REMARK  5 active torsions:
REMARK  status: ('A' for Active; 'I' for Inactive)
REMARK    1  A    between atoms: C_5  and  C_6 
REMARK    2  A    between atoms: C_10  and  C_11 
REMARK       I    between atoms: C_11  and  N_12 
REMARK    3  A    between atoms: N_12  and  C_13 
REMARK    4  A    between atoms: C_13  and  C_14 
REMARK    5  A    between atoms: C_14  and  O_15 
ROOT
HETATM    1  C   UNL     1      27.846  44.189  52.941  1.00  0.00     0.068 A 
HETATM    2  N   UNL     1      27.182  45.368  52.865  1.00  0.00    -0.248 NA
HETATM    3  C   UNL     1      26.276  45.569  51.893  1.00  0.00     0.068 A 
HETATM    4  C   UNL     1      25.942  44.592  50.936  1.00  0.00     0.008 A 
HETATM    5  C   UNL     1      26.598  43.351  51.076  1.00  0.00     0.046 A 
HETATM    6  C   UNL     1      27.563  43.157  52.068  1.00  0.00     0.050 A 
HETATM    7  C   UNL     1      25.650  46.808  51.835  1.00  0.00     0.032 A 
HETATM    8  C   UNL     1      24.716  47.121  50.846  1.00  0.00     0.002 A 
HETATM    9  C   UNL     1      24.402  46.180  49.877  1.00  0.00     0.001 A 
HETATM   10  C   UNL     1      25.013  44.927  49.914  1.00  0.00     0.015 A 
ENDROOT
BRANCH   5  11
HETATM   11  C   UNL     1      26.332  42.160  50.231  1.00  0.00     0.252 C 
HETATM   12  N   UNL     1      26.717  42.244  48.912  1.00  0.00    -0.354 N 
HETATM   13  H   UNL     1      27.023  43.153  48.586  1.00  0.00     0.162 HD
HETATM   14  O   UNL     1      25.719  41.212  50.709  1.00  0.00    -0.268 OA
BRANCH  12  15
HETATM   15  C   UNL     1      26.229  41.334  47.876  1.00  0.00     0.154 C 
BRANCH  15  16
HETATM   16  C   UNL     1      24.771  41.552  47.423  1.00  0.00     0.132 C 
HETATM   17  C   UNL     1      24.535  40.957  46.041  1.00  0.00     0.041 C 
BRANCH  16  18
HETATM   18  O   UNL     1      24.479  42.946  47.323  1.00  0.00    -0.394 OA
HETATM   19  H   UNL     1      24.699  43.331  48.201  1.00  0.00     0.210 HD
ENDBRANCH  16  18
ENDBRANCH  15  16
ENDBRANCH  12  15
ENDBRANCH   5  11
BRANCH   1  20
HETATM   20  C   UNL     1      28.858  44.075  54.013  1.00  0.00    -0.007 A 
HETATM   21  C   UNL     1      28.943  45.041  55.032  1.00  0.00     0.014 A 
HETATM   22  C   UNL     1      29.883  44.937  56.065  1.00  0.00     0.007 A 
HETATM   23  C   UNL     1      30.778  43.867  56.102  1.00  0.00    -0.062 A 
HETATM   24  C   UNL     1      31.772  43.727  57.215  1.00  0.00     0.048 C 
HETATM   25  C   UNL     1      30.714  42.900  55.096  1.00  0.00     0.007 A 
HETATM   26  C   UNL     1      29.773  43.008  54.066  1.00  0.00     0.014 A 
ENDBRANCH   1  20
TORSDOF 5
ENDMDL
MODEL 8
REMARK VINA RESULT:      -7.9      1.640      5.792
REMARK  5 active torsions:
REMARK  status: ('A' for Active; 'I' for Inactive)
REMARK    1  A    between atoms: C_5  and  C_6 
REMARK    2  A    between atoms: C_10  and  C_11 
REMARK       I    between atoms: C_11  and  N_12 
REMARK    3  A    between atoms: N_12  and  C_13 
REMARK    4  A    between atoms: C_13  and  C_14 
REMARK    5  A    between atoms: C_14  and  O_15 
ROOT
HETATM    1  C   UNL     1      26.837  44.538  52.021  1.00  0.00     0.068 A 
HETATM    2  N   UNL     1      27.419  45.221  53.036  1.00  0.00    -0.248 NA
HETATM    3  C   UNL     1      28.334  44.619  53.815  1.00  0.00     0.068 A 
HETATM    4  C   UNL     1      28.760  43.291  53.619  1.00  0.00     0.008 A 
HETATM    5  C   UNL     1      28.187  42.623  52.516  1.00  0.00     0.046 A 
HETATM    6  C   UNL     1      27.214  43.241  51.729  1.00  0.00     0.050 A 
HETATM    7  C   UNL     1      28.873  45.350  54.866  1.00  0.00     0.032 A 
HETATM    8  C   UNL     1      29.808  44.803  55.746  1.00  0.00     0.002 A 
HETATM    9  C   UNL     1      30.212  43.485  55.586  1.00  0.00     0.001 A 
HETATM   10  C   UNL     1      29.689  42.731  54.536  1.00  0.00     0.015 A 
ENDROOT
BRANCH   5  11
HETATM   11  C   UNL     1      28.558  41.254  52.080  1.00  0.00     0.252 C 
HETATM   12  N   UNL     1      28.440  40.984  50.734  1.00  0.00    -0.354 N 
HETATM   13  H   UNL     1      27.983  41.691  50.170  1.00  0.00     0.162 HD
HETATM   14  O   UNL     1      28.860  40.418  52.923  1.00  0.00    -0.268 OA
BRANCH  12  15
HETATM   15  C   UNL     1      28.420  39.628  50.188  1.00  0.00     0.154 C 
BRANCH  15  16
HETATM   16  C   UNL     1      27.065  39.149  49.630  1.00  0.00     0.132 C 
HETATM   17  C   UNL     1      26.576  40.070  48.520  1.00  0.00     0.041 C 
BRANCH  16  18
HETATM   18  O   UNL     1      26.064  39.174  50.649  1.00  0.00    -0.394 OA
HETATM   19  H   UNL     1      26.551  39.167  51.504  1.00  0.00     0.210 HD
ENDBRANCH  16  18
ENDBRANCH  15  16
ENDBRANCH  12  15
ENDBRANCH   5  11
BRANCH   1  20
HETATM   20  C   UNL     1      25.808  45.266  51.247  1.00  0.00    -0.007 A 
HETATM   21  C   UNL     1      25.720  46.668  51.303  1.00  0.00     0.014 A 
HETATM   22  C   UNL     1      24.763  47.373  50.561  1.00  0.00     0.007 A 
HETATM   23  C   UNL     1      23.855  46.692  49.749  1.00  0.00    -0.062 A 
HETATM   24  C   UNL     1      22.843  47.434  48.929  1.00  0.00     0.048 C 
HETATM   25  C   UNL     1      23.922  45.299  49.684  1.00  0.00     0.007 A 
HETATM   26  C   UNL     1      24.879  44.598  50.427  1.00  0.00     0.014 A 
ENDBRANCH   1  20
TORSDOF 5
ENDMDL
MODEL 9
REMARK VINA RESULT:      -7.9      3.397      4.565
REMARK  5 active torsions:
REMARK  status: ('A' for Active; 'I' for Inactive)
REMARK    1  A    between atoms: C_5  and  C_6 
REMARK    2  A    between atoms: C_10  and  C_11 
REMARK       I    between atoms: C_11  and  N_12 
REMARK    3  A    between atoms: N_12  and  C_13 
REMARK    4  A    between atoms: C_13  and  C_14 
REMARK    5  A    between atoms: C_14  and  O_15 
ROOT
HETATM    1  C   UNL     1      26.654  44.530  52.259  1.00  0.00     0.068 A 
HETATM    2  N   UNL     1      26.467  45.839  51.963  1.00  0.00    -0.248 NA
HETATM    3  C   UNL     1      25.520  46.202  51.081  1.00  0.00     0.068 A 
HETATM    4  C   UNL     1      24.665  45.281  50.446  1.00  0.00     0.008 A 
HETATM    5  C   UNL     1      24.835  43.930  50.819  1.00  0.00     0.046 A 
HETATM    6  C   UNL     1      25.842  43.555  51.712  1.00  0.00     0.050 A 
HETATM    7  C   UNL     1      25.393  47.552  50.783  1.00  0.00     0.032 A 
HETATM    8  C   UNL     1      24.459  48.023  49.859  1.00  0.00     0.002 A 
HETATM    9  C   UNL     1      23.632  47.124  49.201  1.00  0.00     0.001 A 
HETATM   10  C   UNL     1      23.736  45.763  49.484  1.00  0.00     0.015 A 
ENDROOT
BRANCH   5  11
HETATM   11  C   UNL     1      23.986  42.812  50.338  1.00  0.00     0.252 C 
HETATM   12  N   UNL     1      24.443  42.124  49.237  1.00  0.00    -0.354 N 
HETATM   13  H   UNL     1      25.246  42.516  48.758  1.00  0.00     0.162 HD
HETATM   14  O   UNL     1      22.903  42.611  50.874  1.00  0.00    -0.268 OA
BRANCH  12  15
HETATM   15  C   UNL     1      23.593  41.248  48.431  1.00  0.00     0.154 C 
BRANCH  15  16
HETATM   16  C   UNL     1      22.739  41.948  47.354  1.00  0.00     0.132 C 
HETATM   17  C   UNL     1      23.593  42.875  46.500  1.00  0.00     0.041 C 
BRANCH  16  18
HETATM   18  O   UNL     1      21.733  42.761  47.958  1.00  0.00    -0.394 OA
HETATM   19  H   UNL     1      21.600  43.522  47.349  1.00  0.00     0.210 HD
ENDBRANCH  16  18
ENDBRANCH  15  16
ENDBRANCH  12  15
ENDBRANCH   5  11
BRANCH   1  20
HETATM   20  C   UNL     1      27.749  44.222  53.204  1.00  0.00    -0.007 A 
HETATM   21  C   UNL     1      28.587  43.112  53.001  1.00  0.00     0.014 A 
HETATM   22  C   UNL     1      29.640  42.818  53.877  1.00  0.00     0.007 A 
HETATM   23  C   UNL     1      29.878  43.622  54.993  1.00  0.00    -0.062 A 
HETATM   24  C   UNL     1      31.017  43.337  55.924  1.00  0.00     0.048 C 
HETATM   25  C   UNL     1      29.053  44.727  55.215  1.00  0.00     0.007 A 
HETATM   26  C   UNL     1      28.002  45.016  54.338  1.00  0.00     0.014 A 
ENDBRANCH   1  20
TORSDOF 5
ENDMDL
MODEL 10
REMARK VINA RESULT:      -7.7      1.596      5.731
REMARK  5 active torsions:
REMARK  status: ('A' for Active; 'I' for Inactive)
REMARK    1  A    between atoms: C_5  and  C_6 
REMARK    2  A    between atoms: C_10  and  C_11 
REMARK       I    between atoms: C_11  and  N_12 
REMARK    3  A    between atoms: N_12  and  C_13 
REMARK    4  A    between atoms: C_13  and  C_14 
REMARK    5  A    between atoms: C_14  and  O_15 
ROOT
HETATM    1  C   UNL     1      26.166  44.444  51.153  1.00  0.00     0.068 A 
HETATM    2  N   UNL     1      26.885  44.922  52.197  1.00  0.00    -0.248 NA
HETATM    3  C   UNL     1      27.716  44.108  52.872  1.00  0.00     0.068 A 
HETATM    4  C   UNL     1      27.914  42.756  52.533  1.00  0.00     0.008 A 
HETATM    5  C   UNL     1      27.204  42.299  51.402  1.00  0.00     0.046 A 
HETATM    6  C   UNL     1      26.317  43.139  50.724  1.00  0.00     0.050 A 
HETATM    7  C   UNL     1      28.402  44.637  53.958  1.00  0.00     0.032 A 
HETATM    8  C   UNL     1      29.265  43.863  54.737  1.00  0.00     0.002 A 
HETATM    9  C   UNL     1      29.443  42.521  54.436  1.00  0.00     0.001 A 
HETATM   10  C   UNL     1      28.770  41.967  53.348  1.00  0.00     0.015 A 
ENDROOT
BRANCH   5  11
HETATM   11  C   UNL     1      27.332  40.939  50.824  1.00  0.00     0.252 C 
HETATM   12  N   UNL     1      28.542  40.628  50.244  1.00  0.00    -0.354 N 
HETATM   13  H   UNL     1      29.200  41.391  50.134  1.00  0.00     0.162 HD
HETATM   14  O   UNL     1      26.354  40.200  50.809  1.00  0.00    -0.268 OA
BRANCH  12  15
HETATM   15  C   UNL     1      28.728  39.497  49.336  1.00  0.00     0.154 C 
BRANCH  15  16
HETATM   16  C   UNL     1      28.805  38.108  50.002  1.00  0.00     0.132 C 
HETATM   17  C   UNL     1      30.098  37.953  50.791  1.00  0.00     0.041 C 
BRANCH  16  18
HETATM   18  O   UNL     1      28.803  37.076  49.015  1.00  0.00    -0.394 OA
HETATM   19  H   UNL     1      27.875  37.013  48.694  1.00  0.00     0.210 HD
ENDBRANCH  16  18
ENDBRANCH  15  16
ENDBRANCH  12  15
ENDBRANCH   5  11
BRANCH   1  20
HETATM   20  C   UNL     1      25.244  45.399  50.501  1.00  0.00    -0.007 A 
HETATM   21  C   UNL     1      24.236  44.950  49.630  1.00  0.00     0.014 A 
HETATM   22  C   UNL     1      23.343  45.840  49.020  1.00  0.00     0.007 A 
HETATM   23  C   UNL     1      23.441  47.212  49.254  1.00  0.00    -0.062 A 
HETATM   24  C   UNL     1      22.476  48.175  48.630  1.00  0.00     0.048 C 
HETATM   25  C   UNL     1      24.439  47.679  50.112  1.00  0.00     0.007 A 
HETATM   26  C   UNL     1      25.330  46.786  50.719  1.00  0.00     0.014 A 
ENDBRANCH   1  20
TORSDOF 5
ENDMDL
