MODEL 1
REMARK VINA RESULT:      -8.2      0.000      0.000
REMARK  10 active torsions:
REMARK  status: ('A' for Active; 'I' for Inactive)
REMARK    1  A    between atoms: C_2  and  C_3 
REMARK    2  A    between atoms: C_3  and  C_4 
REMARK    3  A    between atoms: N_7  and  C_9 
REMARK    4  A    between atoms: C_9  and  C_10 
REMARK    5  A    between atoms: C_12  and  O_13 
REMARK    6  A    between atoms: O_13  and  C_14 
REMARK    7  A    between atoms: C_16  and  O_17 
REMARK    8  A    between atoms: N_25  and  C_26 
REMARK    9  A    between atoms: C_26  and  C_27 
REMARK   10  A    between atoms: C_27  and  C_28 
ROOT
HETATM    1  C   UNL     1      19.527  51.122  47.813  1.00  0.00     0.026 C 
HETATM    2  C   UNL     1      19.215  52.488  48.450  1.00  0.00     0.035 C 
HETATM    3  C   UNL     1      17.988  52.501  49.362  1.00  0.00     0.235 C 
HETATM    4  N   UNL     1      16.780  51.933  48.658  1.00  0.00    -0.067 N 
HETATM    5  H   UNL     1      16.542  52.594  47.908  1.00  0.00     0.280 HD
HETATM    6  C   UNL     1      17.021  50.582  48.029  1.00  0.00     0.235 C 
HETATM    7  C   UNL     1      18.242  50.614  47.129  1.00  0.00     0.035 C 
ENDROOT
BRANCH   1   8
HETATM    8  C   UNL     1      20.235  50.117  48.776  1.00  0.00     0.119 C 
HETATM    9  N   UNL     1      19.975  48.728  48.438  1.00  0.00    -0.324 N 
HETATM   10  C   UNL     1      21.142  47.990  48.423  1.00  0.00     0.326 C 
HETATM   11  H   UNL     1      19.189  48.207  48.815  1.00  0.00     0.165 HD
HETATM   12  O   UNL     1      21.140  46.773  48.424  1.00  0.00    -0.247 OA
HETATM   13  N   UNL     1      22.201  48.835  48.421  1.00  0.00    -0.268 N 
HETATM   14  C   UNL     1      21.775  50.122  48.610  1.00  0.00     0.256 C 
HETATM   15  O   UNL     1      22.478  51.120  48.670  1.00  0.00    -0.270 OA
BRANCH   8  16
HETATM   16  C   UNL     1      19.902  50.307  50.280  1.00  0.00     0.037 C 
HETATM   17  C   UNL     1      18.914  49.310  50.872  1.00  0.00     0.008 C 
ENDBRANCH   8  16
BRANCH  13  18
HETATM   18  C   UNL     1      23.589  48.404  48.491  1.00  0.00     0.142 C 
BRANCH  18  19
HETATM   19  C   UNL     1      23.989  47.882  49.875  1.00  0.00     0.068 C 
BRANCH  19  20
HETATM   20  C   UNL     1      25.100  46.885  49.779  1.00  0.00     0.010 A 
HETATM   21  S   UNL     1      24.791  45.203  49.918  1.00  0.00    -0.085 SA
HETATM   22  C   UNL     1      26.459  44.893  49.697  1.00  0.00     0.166 A 
HETATM   23  N   UNL     1      27.223  45.948  49.526  1.00  0.00    -0.258 NA
HETATM   24  C   UNL     1      26.456  47.100  49.576  1.00  0.00     0.044 A 
HETATM   25  C   UNL     1      27.143  48.409  49.406  1.00  0.00     0.071 C 
ENDBRANCH  19  20
ENDBRANCH  18  19
ENDBRANCH  13  18
ENDBRANCH   1   8
BRANCH   4  26
HETATM   26  C   UNL     1      15.547  51.847  49.550  1.00  0.00     0.273 C 
BRANCH  26  27
HETATM   27  C   UNL     1      14.733  53.108  49.641  1.00  0.00    -0.030 A 
HETATM   28  C   UNL     1      14.228  53.525  50.891  1.00  0.00     0.048 A 
HETATM   29  C   UNL     1      13.490  54.702  51.003  1.00  0.00     0.102 A 
HETATM   30  C   UNL     1      13.262  55.460  49.852  1.00  0.00     0.099 A 
HETATM   31  C   UNL     1      13.746  55.065  48.611  1.00  0.00     0.040 A 
HETATM   32  C   UNL     1      14.483  53.888  48.501  1.00  0.00     0.012 A 
BRANCH  29  33
HETATM   33  O   UNL     1      12.955  55.215  52.154  1.00  0.00    -0.349 OA
BRANCH  33  34
HETATM   34  C   UNL     1      13.855  55.804  53.093  1.00  0.00     0.171 C 
HETATM   35  C   UNL     1      13.040  56.560  54.124  1.00  0.00     0.034 C 
ENDBRANCH  33  34
ENDBRANCH  29  33
BRANCH  30  36
HETATM   36  O   UNL     1      12.544  56.621  49.918  1.00  0.00    -0.358 OA
HETATM   37  H   UNL     1      13.200  57.345  49.903  1.00  0.00     0.218 HD
ENDBRANCH  30  36
ENDBRANCH  26  27
ENDBRANCH   4  26
TORSDOF 10
ENDMDL
MODEL 2
REMARK VINA RESULT:      -8.0      3.802     11.050
REMARK  10 active torsions:
REMARK  status: ('A' for Active; 'I' for Inactive)
REMARK    1  A    between atoms: C_2  and  C_3 
REMARK    2  A    between atoms: C_3  and  C_4 
REMARK    3  A    between atoms: N_7  and  C_9 
REMARK    4  A    between atoms: C_9  and  C_10 
REMARK    5  A    between atoms: C_12  and  O_13 
REMARK    6  A    between atoms: O_13  and  C_14 
REMARK    7  A    between atoms: C_16  and  O_17 
REMARK    8  A    between atoms: N_25  and  C_26 
REMARK    9  A    between atoms: C_26  and  C_27 
REMARK   10  A    between atoms: C_27  and  C_28 
ROOT
HETATM    1  C   UNL     1      19.022  50.433  50.184  1.00  0.00     0.026 C 
HETATM    2  C   UNL     1      20.401  51.095  50.346  1.00  0.00     0.035 C 
HETATM    3  C   UNL     1      21.449  50.645  49.328  1.00  0.00     0.235 C 
HETATM    4  N   UNL     1      21.561  49.141  49.292  1.00  0.00    -0.067 N 
HETATM    5  H   UNL     1      21.954  48.855  50.197  1.00  0.00     0.280 HD
HETATM    6  C   UNL     1      20.239  48.436  49.114  1.00  0.00     0.235 C 
HETATM    7  C   UNL     1      19.231  48.906  50.146  1.00  0.00     0.035 C 
ENDROOT
BRANCH   1   8
HETATM    8  C   UNL     1      18.157  51.036  49.032  1.00  0.00     0.119 C 
HETATM    9  N   UNL     1      17.190  50.094  48.495  1.00  0.00    -0.324 N 
HETATM   10  C   UNL     1      15.939  50.667  48.386  1.00  0.00     0.326 C 
HETATM   11  H   UNL     1      17.402  49.469  47.723  1.00  0.00     0.165 HD
HETATM   12  O   UNL     1      15.049  50.162  47.729  1.00  0.00    -0.247 OA
HETATM   13  N   UNL     1      15.918  51.822  49.095  1.00  0.00    -0.268 N 
HETATM   14  C   UNL     1      17.178  52.126  49.534  1.00  0.00     0.256 C 
HETATM   15  O   UNL     1      17.503  53.105  50.191  1.00  0.00    -0.270 OA
BRANCH   8  16
HETATM   16  C   UNL     1      18.966  51.613  47.841  1.00  0.00     0.037 C 
HETATM   17  C   UNL     1      18.990  50.760  46.579  1.00  0.00     0.008 C 
ENDBRANCH   8  16
BRANCH  13  18
HETATM   18  C   UNL     1      14.784  52.733  49.135  1.00  0.00     0.142 C 
BRANCH  18  19
HETATM   19  C   UNL     1      14.183  52.885  50.537  1.00  0.00     0.068 C 
BRANCH  19  20
HETATM   20  C   UNL     1      13.449  54.180  50.676  1.00  0.00     0.010 A 
HETATM   21  S   UNL     1      12.089  54.534  49.690  1.00  0.00    -0.085 SA
HETATM   22  C   UNL     1      11.929  56.044  50.478  1.00  0.00     0.166 A 
HETATM   23  N   UNL     1      12.812  56.300  51.417  1.00  0.00    -0.258 NA
HETATM   24  C   UNL     1      13.694  55.240  51.538  1.00  0.00     0.044 A 
HETATM   25  C   UNL     1      14.777  55.340  52.554  1.00  0.00     0.071 C 
ENDBRANCH  19  20
ENDBRANCH  18  19
ENDBRANCH  13  18
ENDBRANCH   1   8
BRANCH   4  26
HETATM   26  C   UNL     1      22.534  48.635  48.234  1.00  0.00     0.273 C 
BRANCH  26  27
HETATM   27  C   UNL     1      23.991  48.783  48.578  1.00  0.00    -0.030 A 
HETATM   28  C   UNL     1      24.572  47.929  49.540  1.00  0.00     0.048 A 
HETATM   29  C   UNL     1      25.925  48.034  49.858  1.00  0.00     0.102 A 
HETATM   30  C   UNL     1      26.693  49.001  49.205  1.00  0.00     0.099 A 
HETATM   31  C   UNL     1      26.139  49.854  48.258  1.00  0.00     0.040 A 
HETATM   32  C   UNL     1      24.786  49.748  47.942  1.00  0.00     0.012 A 
BRANCH  29  33
HETATM   33  O   UNL     1      26.605  47.264  50.764  1.00  0.00    -0.349 OA
BRANCH  33  34
HETATM   34  C   UNL     1      25.847  46.657  51.811  1.00  0.00     0.171 C 
HETATM   35  C   UNL     1      26.314  47.237  53.133  1.00  0.00     0.034 C 
ENDBRANCH  33  34
ENDBRANCH  29  33
BRANCH  30  36
HETATM   36  O   UNL     1      28.023  49.136  49.487  1.00  0.00    -0.358 OA
HETATM   37  H   UNL     1      28.318  49.939  49.016  1.00  0.00     0.218 HD
ENDBRANCH  30  36
ENDBRANCH  26  27
ENDBRANCH   4  26
TORSDOF 10
ENDMDL
MODEL 3
REMARK VINA RESULT:      -7.8      5.461      9.044
REMARK  10 active torsions:
REMARK  status: ('A' for Active; 'I' for Inactive)
REMARK    1  A    between atoms: C_2  and  C_3 
REMARK    2  A    between atoms: C_3  and  C_4 
REMARK    3  A    between atoms: N_7  and  C_9 
REMARK    4  A    between atoms: C_9  and  C_10 
REMARK    5  A    between atoms: C_12  and  O_13 
REMARK    6  A    between atoms: O_13  and  C_14 
REMARK    7  A    between atoms: C_16  and  O_17 
REMARK    8  A    between atoms: N_25  and  C_26 
REMARK    9  A    between atoms: C_26  and  C_27 
REMARK   10  A    between atoms: C_27  and  C_28 
ROOT
HETATM    1  C   UNL     1      24.242  42.778  49.971  1.00  0.00     0.026 C 
HETATM    2  C   UNL     1      24.339  42.619  48.443  1.00  0.00     0.035 C 
HETATM    3  C   UNL     1      23.773  43.791  47.643  1.00  0.00     0.235 C 
HETATM    4  N   UNL     1      22.364  44.115  48.074  1.00  0.00    -0.067 N 
HETATM    5  H   UNL     1      21.781  43.317  47.793  1.00  0.00     0.280 HD
HETATM    6  C   UNL     1      22.211  44.302  49.564  1.00  0.00     0.235 C 
HETATM    7  C   UNL     1      22.779  43.116  50.320  1.00  0.00     0.035 C 
ENDROOT
BRANCH   1   8
HETATM    8  C   UNL     1      25.328  43.717  50.583  1.00  0.00     0.119 C 
HETATM    9  N   UNL     1      24.779  44.690  51.513  1.00  0.00    -0.324 N 
HETATM   10  C   UNL     1      25.512  44.733  52.682  1.00  0.00     0.326 C 
HETATM   11  H   UNL     1      24.454  45.606  51.222  1.00  0.00     0.165 HD
HETATM   12  O   UNL     1      25.400  45.641  53.485  1.00  0.00    -0.247 OA
HETATM   13  N   UNL     1      26.325  43.650  52.737  1.00  0.00    -0.268 N 
HETATM   14  C   UNL     1      26.281  42.970  51.550  1.00  0.00     0.256 C 
HETATM   15  O   UNL     1      26.904  41.957  51.268  1.00  0.00    -0.270 OA
BRANCH   8  16
HETATM   16  C   UNL     1      26.186  44.489  49.546  1.00  0.00     0.037 C 
HETATM   17  C   UNL     1      26.395  45.970  49.828  1.00  0.00     0.008 C 
ENDBRANCH   8  16
BRANCH  13  18
HETATM   18  C   UNL     1      27.299  43.413  53.791  1.00  0.00     0.142 C 
BRANCH  18  19
HETATM   19  C   UNL     1      28.672  44.026  53.491  1.00  0.00     0.068 C 
BRANCH  19  20
HETATM   20  C   UNL     1      29.361  44.456  54.746  1.00  0.00     0.010 A 
HETATM   21  S   UNL     1      30.560  43.470  55.478  1.00  0.00    -0.085 SA
HETATM   22  C   UNL     1      30.758  44.646  56.705  1.00  0.00     0.166 A 
HETATM   23  N   UNL     1      29.998  45.714  56.607  1.00  0.00    -0.258 NA
HETATM   24  C   UNL     1      29.187  45.616  55.489  1.00  0.00     0.044 A 
HETATM   25  C   UNL     1      28.246  46.733  55.204  1.00  0.00     0.071 C 
ENDBRANCH  19  20
ENDBRANCH  18  19
ENDBRANCH  13  18
ENDBRANCH   1   8
BRANCH   4  26
HETATM   26  C   UNL     1      21.780  45.330  47.363  1.00  0.00     0.273 C 
BRANCH  26  27
HETATM   27  C   UNL     1      21.925  46.635  48.098  1.00  0.00    -0.030 A 
HETATM   28  C   UNL     1      20.788  47.438  48.327  1.00  0.00     0.048 A 
HETATM   29  C   UNL     1      20.895  48.640  49.025  1.00  0.00     0.102 A 
HETATM   30  C   UNL     1      22.152  49.031  49.493  1.00  0.00     0.099 A 
HETATM   31  C   UNL     1      23.285  48.256  49.275  1.00  0.00     0.040 A 
HETATM   32  C   UNL     1      23.175  47.056  48.576  1.00  0.00     0.012 A 
BRANCH  29  33
HETATM   33  O   UNL     1      19.871  49.501  49.316  1.00  0.00    -0.349 OA
BRANCH  33  34
HETATM   34  C   UNL     1      18.628  48.929  49.724  1.00  0.00     0.171 C 
HETATM   35  C   UNL     1      18.669  48.724  51.227  1.00  0.00     0.034 C 
ENDBRANCH  33  34
ENDBRANCH  29  33
BRANCH  30  36
HETATM   36  O   UNL     1      22.301  50.201  50.183  1.00  0.00    -0.358 OA
HETATM   37  H   UNL     1      21.568  50.778  49.895  1.00  0.00     0.218 HD
ENDBRANCH  30  36
ENDBRANCH  26  27
ENDBRANCH   4  26
TORSDOF 10
ENDMDL
MODEL 4
REMARK VINA RESULT:      -7.8     13.874     18.115
REMARK  10 active torsions:
REMARK  status: ('A' for Active; 'I' for Inactive)
REMARK    1  A    between atoms: C_2  and  C_3 
REMARK    2  A    between atoms: C_3  and  C_4 
REMARK    3  A    between atoms: N_7  and  C_9 
REMARK    4  A    between atoms: C_9  and  C_10 
REMARK    5  A    between atoms: C_12  and  O_13 
REMARK    6  A    between atoms: O_13  and  C_14 
REMARK    7  A    between atoms: C_16  and  O_17 
REMARK    8  A    between atoms: N_25  and  C_26 
REMARK    9  A    between atoms: C_26  and  C_27 
REMARK   10  A    between atoms: C_27  and  C_28 
ROOT
HETATM    1  C   UNL     1      31.100  49.998  42.548  1.00  0.00     0.026 C 
HETATM    2  C   UNL     1      32.140  50.774  43.374  1.00  0.00     0.035 C 
HETATM    3  C   UNL     1      33.427  51.115  42.623  1.00  0.00     0.235 C 
HETATM    4  N   UNL     1      34.031  49.884  41.993  1.00  0.00    -0.067 N 
HETATM    5  H   UNL     1      34.344  49.284  42.766  1.00  0.00     0.280 HD
HETATM    6  C   UNL     1      33.061  49.091  41.152  1.00  0.00     0.235 C 
HETATM    7  C   UNL     1      31.802  48.769  41.935  1.00  0.00     0.035 C 
ENDROOT
BRANCH   1   8
HETATM    8  C   UNL     1      30.283  50.886  41.557  1.00  0.00     0.119 C 
HETATM    9  N   UNL     1      30.827  50.881  40.209  1.00  0.00    -0.324 N 
HETATM   10  C   UNL     1      29.836  50.671  39.270  1.00  0.00     0.326 C 
HETATM   11  H   UNL     1      31.527  51.546  39.896  1.00  0.00     0.165 HD
HETATM   12  O   UNL     1      30.010  50.885  38.085  1.00  0.00    -0.247 OA
HETATM   13  N   UNL     1      28.719  50.228  39.896  1.00  0.00    -0.268 N 
HETATM   14  C   UNL     1      28.881  50.301  41.253  1.00  0.00     0.256 C 
HETATM   15  O   UNL     1      28.059  49.988  42.102  1.00  0.00    -0.270 OA
BRANCH   8  16
HETATM   16  C   UNL     1      30.114  52.366  41.991  1.00  0.00     0.037 C 
HETATM   17  C   UNL     1      30.879  53.392  41.166  1.00  0.00     0.008 C 
ENDBRANCH   8  16
BRANCH  13  18
HETATM   18  C   UNL     1      27.451  49.983  39.226  1.00  0.00     0.142 C 
BRANCH  18  19
HETATM   19  C   UNL     1      27.475  48.744  38.324  1.00  0.00     0.068 C 
BRANCH  19  20
HETATM   20  C   UNL     1      27.722  47.500  39.117  1.00  0.00     0.010 A 
HETATM   21  S   UNL     1      26.452  46.747  39.992  1.00  0.00    -0.085 SA
HETATM   22  C   UNL     1      27.548  45.540  40.513  1.00  0.00     0.166 A 
HETATM   23  N   UNL     1      28.783  45.659  40.081  1.00  0.00    -0.258 NA
HETATM   24  C   UNL     1      28.898  46.784  39.282  1.00  0.00     0.044 A 
HETATM   25  C   UNL     1      30.230  47.096  38.696  1.00  0.00     0.071 C 
ENDBRANCH  19  20
ENDBRANCH  18  19
ENDBRANCH  13  18
ENDBRANCH   1   8
BRANCH   4  26
HETATM   26  C   UNL     1      35.274  50.181  41.162  1.00  0.00     0.273 C 
BRANCH  26  27
HETATM   27  C   UNL     1      36.368  50.917  41.884  1.00  0.00    -0.030 A 
HETATM   28  C   UNL     1      37.120  50.254  42.876  1.00  0.00     0.048 A 
HETATM   29  C   UNL     1      38.154  50.910  43.543  1.00  0.00     0.102 A 
HETATM   30  C   UNL     1      38.429  52.238  43.206  1.00  0.00     0.099 A 
HETATM   31  C   UNL     1      37.698  52.911  42.235  1.00  0.00     0.040 A 
HETATM   32  C   UNL     1      36.665  52.253  41.570  1.00  0.00     0.012 A 
BRANCH  29  33
HETATM   33  O   UNL     1      38.956  50.377  44.516  1.00  0.00    -0.349 OA
BRANCH  33  34
HETATM   34  C   UNL     1      39.895  49.377  44.118  1.00  0.00     0.171 C 
HETATM   35  C   UNL     1      39.507  48.070  44.783  1.00  0.00     0.034 C 
ENDBRANCH  33  34
ENDBRANCH  29  33
BRANCH  30  36
HETATM   36  O   UNL     1      39.434  52.917  43.835  1.00  0.00    -0.358 OA
HETATM   37  H   UNL     1      39.023  53.719  44.211  1.00  0.00     0.218 HD
ENDBRANCH  30  36
ENDBRANCH  26  27
ENDBRANCH   4  26
TORSDOF 10
ENDMDL
MODEL 5
REMARK VINA RESULT:      -7.7     13.819     17.744
REMARK  10 active torsions:
REMARK  status: ('A' for Active; 'I' for Inactive)
REMARK    1  A    between atoms: C_2  and  C_3 
REMARK    2  A    between atoms: C_3  and  C_4 
REMARK    3  A    between atoms: N_7  and  C_9 
REMARK    4  A    between atoms: C_9  and  C_10 
REMARK    5  A    between atoms: C_12  and  O_13 
REMARK    6  A    between atoms: O_13  and  C_14 
REMARK    7  A    between atoms: C_16  and  O_17 
REMARK    8  A    between atoms: N_25  and  C_26 
REMARK    9  A    between atoms: C_26  and  C_27 
REMARK   10  A    between atoms: C_27  and  C_28 
ROOT
HETATM    1  C   UNL     1      31.164  50.365  42.441  1.00  0.00     0.026 C 
HETATM    2  C   UNL     1      32.172  51.099  43.342  1.00  0.00     0.035 C 
HETATM    3  C   UNL     1      33.543  51.331  42.709  1.00  0.00     0.235 C 
HETATM    4  N   UNL     1      34.120  50.044  42.172  1.00  0.00    -0.067 N 
HETATM    5  H   UNL     1      34.318  49.450  42.988  1.00  0.00     0.280 HD
HETATM    6  C   UNL     1      33.181  49.288  41.264  1.00  0.00     0.235 C 
HETATM    7  C   UNL     1      31.836  49.074  41.931  1.00  0.00     0.035 C 
ENDROOT
BRANCH   1   8
HETATM    8  C   UNL     1      30.505  51.271  41.353  1.00  0.00     0.119 C 
HETATM    9  N   UNL     1      31.090  51.091  40.034  1.00  0.00    -0.324 N 
HETATM   10  C   UNL     1      30.113  50.938  39.071  1.00  0.00     0.326 C 
HETATM   11  H   UNL     1      31.881  51.634  39.705  1.00  0.00     0.165 HD
HETATM   12  O   UNL     1      30.354  51.034  37.882  1.00  0.00    -0.247 OA
HETATM   13  N   UNL     1      28.926  50.692  39.677  1.00  0.00    -0.268 N 
HETATM   14  C   UNL     1      29.050  50.849  41.031  1.00  0.00     0.256 C 
HETATM   15  O   UNL     1      28.165  50.711  41.863  1.00  0.00    -0.270 OA
BRANCH   8  16
HETATM   16  C   UNL     1      30.518  52.789  41.670  1.00  0.00     0.037 C 
HETATM   17  C   UNL     1      31.305  53.664  40.704  1.00  0.00     0.008 C 
ENDBRANCH   8  16
BRANCH  13  18
HETATM   18  C   UNL     1      27.661  50.561  38.971  1.00  0.00     0.142 C 
BRANCH  18  19
HETATM   19  C   UNL     1      27.508  49.215  38.253  1.00  0.00     0.068 C 
BRANCH  19  20
HETATM   20  C   UNL     1      27.646  48.072  39.207  1.00  0.00     0.010 A 
HETATM   21  S   UNL     1      26.383  47.677  40.299  1.00  0.00    -0.085 SA
HETATM   22  C   UNL     1      27.330  46.386  40.904  1.00  0.00     0.166 A 
HETATM   23  N   UNL     1      28.512  46.231  40.352  1.00  0.00    -0.258 NA
HETATM   24  C   UNL     1      28.709  47.196  39.379  1.00  0.00     0.044 A 
HETATM   25  C   UNL     1      29.998  47.190  38.635  1.00  0.00     0.071 C 
ENDBRANCH  19  20
ENDBRANCH  18  19
ENDBRANCH  13  18
ENDBRANCH   1   8
BRANCH   4  26
HETATM   26  C   UNL     1      35.452  50.231  41.457  1.00  0.00     0.273 C 
BRANCH  26  27
HETATM   27  C   UNL     1      36.075  51.592  41.606  1.00  0.00    -0.030 A 
HETATM   28  C   UNL     1      36.137  52.459  40.495  1.00  0.00     0.048 A 
HETATM   29  C   UNL     1      36.689  53.733  40.616  1.00  0.00     0.102 A 
HETATM   30  C   UNL     1      37.179  54.133  41.861  1.00  0.00     0.099 A 
HETATM   31  C   UNL     1      37.131  53.294  42.968  1.00  0.00     0.040 A 
HETATM   32  C   UNL     1      36.579  52.020  42.844  1.00  0.00     0.012 A 
BRANCH  29  33
HETATM   33  O   UNL     1      36.801  54.664  39.619  1.00  0.00    -0.349 OA
BRANCH  33  34
HETATM   34  C   UNL     1      35.595  55.108  38.995  1.00  0.00     0.171 C 
HETATM   35  C   UNL     1      35.260  56.486  39.534  1.00  0.00     0.034 C 
ENDBRANCH  33  34
ENDBRANCH  29  33
BRANCH  30  36
HETATM   36  O   UNL     1      37.727  55.374  42.024  1.00  0.00    -0.358 OA
HETATM   37  H   UNL     1      38.540  55.243  42.550  1.00  0.00     0.218 HD
ENDBRANCH  30  36
ENDBRANCH  26  27
ENDBRANCH   4  26
TORSDOF 10
ENDMDL
MODEL 6
REMARK VINA RESULT:      -7.6      0.992      2.037
REMARK  10 active torsions:
REMARK  status: ('A' for Active; 'I' for Inactive)
REMARK    1  A    between atoms: C_2  and  C_3 
REMARK    2  A    between atoms: C_3  and  C_4 
REMARK    3  A    between atoms: N_7  and  C_9 
REMARK    4  A    between atoms: C_9  and  C_10 
REMARK    5  A    between atoms: C_12  and  O_13 
REMARK    6  A    between atoms: O_13  and  C_14 
REMARK    7  A    between atoms: C_16  and  O_17 
REMARK    8  A    between atoms: N_25  and  C_26 
REMARK    9  A    between atoms: C_26  and  C_27 
REMARK   10  A    between atoms: C_27  and  C_28 
ROOT
HETATM    1  C   UNL     1      19.197  50.186  49.610  1.00  0.00     0.026 C 
HETATM    2  C   UNL     1      17.791  49.561  49.573  1.00  0.00     0.035 C 
HETATM    3  C   UNL     1      16.828  50.215  48.582  1.00  0.00     0.235 C 
HETATM    4  N   UNL     1      16.762  51.708  48.792  1.00  0.00    -0.067 N 
HETATM    5  H   UNL     1      16.317  51.854  49.707  1.00  0.00     0.280 HD
HETATM    6  C   UNL     1      18.113  52.380  48.819  1.00  0.00     0.235 C 
HETATM    7  C   UNL     1      19.034  51.705  49.817  1.00  0.00     0.035 C 
ENDROOT
BRANCH   1   8
HETATM    8  C   UNL     1      20.119  49.748  48.429  1.00  0.00     0.119 C 
HETATM    9  N   UNL     1      21.136  50.736  48.107  1.00  0.00    -0.324 N 
HETATM   10  C   UNL     1      22.380  50.151  47.981  1.00  0.00     0.326 C 
HETATM   11  H   UNL     1      20.985  51.482  47.435  1.00  0.00     0.165 HD
HETATM   12  O   UNL     1      23.319  50.728  47.466  1.00  0.00    -0.247 OA
HETATM   13  N   UNL     1      22.335  48.898  48.495  1.00  0.00    -0.268 N 
HETATM   14  C   UNL     1      21.045  48.564  48.806  1.00  0.00     0.256 C 
HETATM   15  O   UNL     1      20.660  47.504  49.277  1.00  0.00    -0.270 OA
BRANCH   8  16
HETATM   16  C   UNL     1      19.375  49.392  47.115  1.00  0.00     0.037 C 
HETATM   17  C   UNL     1      19.249  50.518  46.097  1.00  0.00     0.008 C 
ENDBRANCH   8  16
BRANCH  13  18
HETATM   18  C   UNL     1      23.446  47.959  48.455  1.00  0.00     0.142 C 
BRANCH  18  19
HETATM   19  C   UNL     1      24.132  47.779  49.814  1.00  0.00     0.068 C 
BRANCH  19  20
HETATM   20  C   UNL     1      25.276  46.820  49.721  1.00  0.00     0.010 A 
HETATM   21  S   UNL     1      25.018  45.127  49.833  1.00  0.00    -0.085 SA
HETATM   22  C   UNL     1      26.698  44.873  49.633  1.00  0.00     0.166 A 
HETATM   23  N   UNL     1      27.431  45.954  49.489  1.00  0.00    -0.258 NA
HETATM   24  C   UNL     1      26.627  47.080  49.543  1.00  0.00     0.044 A 
HETATM   25  C   UNL     1      27.274  48.413  49.402  1.00  0.00     0.071 C 
ENDBRANCH  19  20
ENDBRANCH  18  19
ENDBRANCH  13  18
ENDBRANCH   1   8
BRANCH   4  26
HETATM   26  C   UNL     1      15.877  52.421  47.777  1.00  0.00     0.273 C 
BRANCH  26  27
HETATM   27  C   UNL     1      14.811  53.305  48.363  1.00  0.00    -0.030 A 
HETATM   28  C   UNL     1      14.621  53.337  49.761  1.00  0.00     0.048 A 
HETATM   29  C   UNL     1      13.654  54.165  50.328  1.00  0.00     0.102 A 
HETATM   30  C   UNL     1      12.878  54.963  49.483  1.00  0.00     0.099 A 
HETATM   31  C   UNL     1      13.046  54.942  48.104  1.00  0.00     0.040 A 
HETATM   32  C   UNL     1      14.013  54.113  47.539  1.00  0.00     0.012 A 
BRANCH  29  33
HETATM   33  O   UNL     1      13.378  54.291  51.663  1.00  0.00    -0.349 OA
BRANCH  33  34
HETATM   34  C   UNL     1      14.240  55.127  52.437  1.00  0.00     0.171 C 
HETATM   35  C   UNL     1      13.380  55.986  53.344  1.00  0.00     0.034 C 
ENDBRANCH  33  34
ENDBRANCH  29  33
BRANCH  30  36
HETATM   36  O   UNL     1      11.919  55.789  49.999  1.00  0.00    -0.358 OA
HETATM   37  H   UNL     1      11.164  55.214  50.230  1.00  0.00     0.218 HD
ENDBRANCH  30  36
ENDBRANCH  26  27
ENDBRANCH   4  26
TORSDOF 10
ENDMDL
MODEL 7
REMARK VINA RESULT:      -7.6     13.599     17.870
REMARK  10 active torsions:
REMARK  status: ('A' for Active; 'I' for Inactive)
REMARK    1  A    between atoms: C_2  and  C_3 
REMARK    2  A    between atoms: C_3  and  C_4 
REMARK    3  A    between atoms: N_7  and  C_9 
REMARK    4  A    between atoms: C_9  and  C_10 
REMARK    5  A    between atoms: C_12  and  O_13 
REMARK    6  A    between atoms: O_13  and  C_14 
REMARK    7  A    between atoms: C_16  and  O_17 
REMARK    8  A    between atoms: N_25  and  C_26 
REMARK    9  A    between atoms: C_26  and  C_27 
REMARK   10  A    between atoms: C_27  and  C_28 
ROOT
HETATM    1  C   UNL     1      31.369  50.052  42.400  1.00  0.00     0.026 C 
HETATM    2  C   UNL     1      32.072  50.844  43.517  1.00  0.00     0.035 C 
HETATM    3  C   UNL     1      33.361  51.545  43.088  1.00  0.00     0.235 C 
HETATM    4  N   UNL     1      34.308  50.580  42.418  1.00  0.00    -0.067 N 
HETATM    5  H   UNL     1      34.612  49.919  43.143  1.00  0.00     0.280 HD
HETATM    6  C   UNL     1      33.678  49.787  41.298  1.00  0.00     0.235 C 
HETATM    7  C   UNL     1      32.407  49.104  41.767  1.00  0.00     0.035 C 
ENDROOT
BRANCH   1   8
HETATM    8  C   UNL     1      30.554  50.939  41.407  1.00  0.00     0.119 C 
HETATM    9  N   UNL     1      31.091  50.921  40.056  1.00  0.00    -0.324 N 
HETATM   10  C   UNL     1      30.095  50.711  39.124  1.00  0.00     0.326 C 
HETATM   11  H   UNL     1      31.794  51.579  39.735  1.00  0.00     0.165 HD
HETATM   12  O   UNL     1      30.265  50.915  37.936  1.00  0.00    -0.247 OA
HETATM   13  N   UNL     1      28.978  50.279  39.758  1.00  0.00    -0.268 N 
HETATM   14  C   UNL     1      29.147  50.360  41.114  1.00  0.00     0.256 C 
HETATM   15  O   UNL     1      28.326  50.059  41.968  1.00  0.00    -0.270 OA
BRANCH   8  16
HETATM   16  C   UNL     1      30.397  52.422  41.832  1.00  0.00     0.037 C 
HETATM   17  C   UNL     1      31.016  53.451  40.895  1.00  0.00     0.008 C 
ENDBRANCH   8  16
BRANCH  13  18
HETATM   18  C   UNL     1      27.705  50.038  39.095  1.00  0.00     0.142 C 
BRANCH  18  19
HETATM   19  C   UNL     1      27.641  48.679  38.389  1.00  0.00     0.068 C 
BRANCH  19  20
HETATM   20  C   UNL     1      27.378  47.574  39.362  1.00  0.00     0.010 A 
HETATM   21  S   UNL     1      25.786  47.243  39.911  1.00  0.00    -0.085 SA
HETATM   22  C   UNL     1      26.398  45.964  40.869  1.00  0.00     0.166 A 
HETATM   23  N   UNL     1      27.696  45.769  40.807  1.00  0.00    -0.258 NA
HETATM   24  C   UNL     1      28.272  46.690  39.949  1.00  0.00     0.044 A 
HETATM   25  C   UNL     1      29.746  46.634  39.745  1.00  0.00     0.071 C 
ENDBRANCH  19  20
ENDBRANCH  18  19
ENDBRANCH  13  18
ENDBRANCH   1   8
BRANCH   4  26
HETATM   26  C   UNL     1      35.577  51.245  41.897  1.00  0.00     0.273 C 
BRANCH  26  27
HETATM   27  C   UNL     1      36.714  51.316  42.879  1.00  0.00    -0.030 A 
HETATM   28  C   UNL     1      36.725  52.327  43.862  1.00  0.00     0.048 A 
HETATM   29  C   UNL     1      37.757  52.399  44.797  1.00  0.00     0.102 A 
HETATM   30  C   UNL     1      38.778  51.447  44.739  1.00  0.00     0.099 A 
HETATM   31  C   UNL     1      38.788  50.445  43.775  1.00  0.00     0.040 A 
HETATM   32  C   UNL     1      37.755  50.376  42.842  1.00  0.00     0.012 A 
BRANCH  29  33
HETATM   33  O   UNL     1      37.879  53.323  45.799  1.00  0.00    -0.349 OA
BRANCH  33  34
HETATM   34  C   UNL     1      37.733  54.699  45.445  1.00  0.00     0.171 C 
HETATM   35  C   UNL     1      39.086  55.221  45.000  1.00  0.00     0.034 C 
ENDBRANCH  33  34
ENDBRANCH  29  33
BRANCH  30  36
HETATM   36  O   UNL     1      39.808  51.480  45.636  1.00  0.00    -0.358 OA
HETATM   37  H   UNL     1      39.684  52.297  46.158  1.00  0.00     0.218 HD
ENDBRANCH  30  36
ENDBRANCH  26  27
ENDBRANCH   4  26
TORSDOF 10
ENDMDL
MODEL 8
REMARK VINA RESULT:      -7.4     13.677     16.219
REMARK  10 active torsions:
REMARK  status: ('A' for Active; 'I' for Inactive)
REMARK    1  A    between atoms: C_2  and  C_3 
REMARK    2  A    between atoms: C_3  and  C_4 
REMARK    3  A    between atoms: N_7  and  C_9 
REMARK    4  A    between atoms: C_9  and  C_10 
REMARK    5  A    between atoms: C_12  and  O_13 
REMARK    6  A    between atoms: O_13  and  C_14 
REMARK    7  A    between atoms: C_16  and  O_17 
REMARK    8  A    between atoms: N_25  and  C_26 
REMARK    9  A    between atoms: C_26  and  C_27 
REMARK   10  A    between atoms: C_27  and  C_28 
ROOT
HETATM    1  C   UNL     1      29.055  51.644  40.620  1.00  0.00     0.026 C 
HETATM    2  C   UNL     1      28.316  50.850  41.711  1.00  0.00     0.035 C 
HETATM    3  C   UNL     1      27.675  49.549  41.230  1.00  0.00     0.235 C 
HETATM    4  N   UNL     1      26.791  49.789  40.030  1.00  0.00    -0.067 N 
HETATM    5  H   UNL     1      25.998  50.352  40.360  1.00  0.00     0.280 HD
HETATM    6  C   UNL     1      27.469  50.548  38.916  1.00  0.00     0.235 C 
HETATM    7  C   UNL     1      28.087  51.833  39.434  1.00  0.00     0.035 C 
ENDROOT
BRANCH   1   8
HETATM    8  C   UNL     1      30.468  51.080  40.268  1.00  0.00     0.119 C 
HETATM    9  N   UNL     1      30.652  50.856  38.844  1.00  0.00    -0.324 N 
HETATM   10  C   UNL     1      31.851  51.381  38.405  1.00  0.00     0.326 C 
HETATM   11  H   UNL     1      30.421  49.977  38.391  1.00  0.00     0.165 HD
HETATM   12  O   UNL     1      32.331  51.088  37.326  1.00  0.00    -0.247 OA
HETATM   13  N   UNL     1      32.346  52.210  39.356  1.00  0.00    -0.268 N 
HETATM   14  C   UNL     1      31.595  52.119  40.495  1.00  0.00     0.256 C 
HETATM   15  O   UNL     1      31.780  52.727  41.540  1.00  0.00    -0.270 OA
BRANCH   8  16
HETATM   16  C   UNL     1      30.851  49.770  41.005  1.00  0.00     0.037 C 
HETATM   17  C   UNL     1      31.010  48.536  40.127  1.00  0.00     0.008 C 
ENDBRANCH   8  16
BRANCH  13  18
HETATM   18  C   UNL     1      33.638  52.873  39.266  1.00  0.00     0.142 C 
BRANCH  18  19
HETATM   19  C   UNL     1      34.822  51.910  39.410  1.00  0.00     0.068 C 
BRANCH  19  20
HETATM   20  C   UNL     1      35.571  52.156  40.680  1.00  0.00     0.010 A 
HETATM   21  S   UNL     1      36.857  53.291  40.739  1.00  0.00    -0.085 SA
HETATM   22  C   UNL     1      37.072  52.939  42.400  1.00  0.00     0.166 A 
HETATM   23  N   UNL     1      36.257  52.042  42.908  1.00  0.00    -0.258 NA
HETATM   24  C   UNL     1      35.393  51.581  41.930  1.00  0.00     0.044 A 
HETATM   25  C   UNL     1      34.388  50.550  42.310  1.00  0.00     0.071 C 
ENDBRANCH  19  20
ENDBRANCH  18  19
ENDBRANCH  13  18
ENDBRANCH   1   8
BRANCH   4  26
HETATM   26  C   UNL     1      26.190  48.510  39.459  1.00  0.00     0.273 C 
BRANCH  26  27
HETATM   27  C   UNL     1      27.149  47.362  39.308  1.00  0.00    -0.030 A 
HETATM   28  C   UNL     1      27.114  46.296  40.232  1.00  0.00     0.048 A 
HETATM   29  C   UNL     1      27.978  45.211  40.099  1.00  0.00     0.102 A 
HETATM   30  C   UNL     1      28.878  45.200  39.030  1.00  0.00     0.099 A 
HETATM   31  C   UNL     1      28.931  46.241  38.111  1.00  0.00     0.040 A 
HETATM   32  C   UNL     1      28.066  47.325  38.247  1.00  0.00     0.012 A 
BRANCH  29  33
HETATM   33  O   UNL     1      28.039  44.119  40.922  1.00  0.00    -0.349 OA
BRANCH  33  34
HETATM   34  C   UNL     1      26.843  43.355  41.090  1.00  0.00     0.171 C 
HETATM   35  C   UNL     1      26.479  43.362  42.563  1.00  0.00     0.034 C 
ENDBRANCH  33  34
ENDBRANCH  29  33
BRANCH  30  36
HETATM   36  O   UNL     1      29.741  44.155  38.862  1.00  0.00    -0.358 OA
HETATM   37  H   UNL     1      29.525  43.763  37.993  1.00  0.00     0.218 HD
ENDBRANCH  30  36
ENDBRANCH  26  27
ENDBRANCH   4  26
TORSDOF 10
ENDMDL
MODEL 9
REMARK VINA RESULT:      -7.3     14.718     19.485
REMARK  10 active torsions:
REMARK  status: ('A' for Active; 'I' for Inactive)
REMARK    1  A    between atoms: C_2  and  C_3 
REMARK    2  A    between atoms: C_3  and  C_4 
REMARK    3  A    between atoms: N_7  and  C_9 
REMARK    4  A    between atoms: C_9  and  C_10 
REMARK    5  A    between atoms: C_12  and  O_13 
REMARK    6  A    between atoms: O_13  and  C_14 
REMARK    7  A    between atoms: C_16  and  O_17 
REMARK    8  A    between atoms: N_25  and  C_26 
REMARK    9  A    between atoms: C_26  and  C_27 
REMARK   10  A    between atoms: C_27  and  C_28 
ROOT
HETATM    1  C   UNL     1      34.854  51.113  40.282  1.00  0.00     0.026 C 
HETATM    2  C   UNL     1      36.130  50.290  40.536  1.00  0.00     0.035 C 
HETATM    3  C   UNL     1      37.212  51.020  41.330  1.00  0.00     0.235 C 
HETATM    4  N   UNL     1      37.535  52.357  40.709  1.00  0.00    -0.067 N 
HETATM    5  H   UNL     1      37.979  52.159  39.804  1.00  0.00     0.280 HD
HETATM    6  C   UNL     1      36.322  53.218  40.454  1.00  0.00     0.235 C 
HETATM    7  C   UNL     1      35.275  52.459  39.660  1.00  0.00     0.035 C 
ENDROOT
BRANCH   1   8
HETATM    8  C   UNL     1      33.894  51.195  41.511  1.00  0.00     0.119 C 
HETATM    9  N   UNL     1      32.987  52.328  41.447  1.00  0.00    -0.324 N 
HETATM   10  C   UNL     1      31.689  51.946  41.722  1.00  0.00     0.326 C 
HETATM   11  H   UNL     1      33.216  53.239  41.833  1.00  0.00     0.165 HD
HETATM   12  O   UNL     1      30.816  52.753  41.981  1.00  0.00    -0.247 OA
HETATM   13  N   UNL     1      31.602  50.595  41.663  1.00  0.00    -0.268 N 
HETATM   14  C   UNL     1      32.850  50.050  41.525  1.00  0.00     0.256 C 
HETATM   15  O   UNL     1      33.121  48.861  41.452  1.00  0.00    -0.270 OA
BRANCH   8  16
HETATM   16  C   UNL     1      34.601  51.234  42.891  1.00  0.00     0.037 C 
HETATM   17  C   UNL     1      33.844  51.945  44.005  1.00  0.00     0.008 C 
ENDBRANCH   8  16
BRANCH  13  18
HETATM   18  C   UNL     1      30.400  49.840  41.981  1.00  0.00     0.142 C 
BRANCH  18  19
HETATM   19  C   UNL     1      29.844  49.059  40.784  1.00  0.00     0.068 C 
BRANCH  19  20
HETATM   20  C   UNL     1      29.241  49.978  39.770  1.00  0.00     0.010 A 
HETATM   21  S   UNL     1      27.580  50.404  39.844  1.00  0.00    -0.085 SA
HETATM   22  C   UNL     1      27.782  51.378  38.452  1.00  0.00     0.166 A 
HETATM   23  N   UNL     1      28.993  51.408  37.942  1.00  0.00    -0.258 NA
HETATM   24  C   UNL     1      29.839  50.604  38.686  1.00  0.00     0.044 A 
HETATM   25  C   UNL     1      31.263  50.502  38.264  1.00  0.00     0.071 C 
ENDBRANCH  19  20
ENDBRANCH  18  19
ENDBRANCH  13  18
ENDBRANCH   1   8
BRANCH   4  26
HETATM   26  C   UNL     1      38.552  53.164  41.508  1.00  0.00     0.273 C 
BRANCH  26  27
HETATM   27  C   UNL     1      38.437  53.040  43.002  1.00  0.00    -0.030 A 
HETATM   28  C   UNL     1      39.372  52.256  43.712  1.00  0.00     0.048 A 
HETATM   29  C   UNL     1      39.299  52.145  45.100  1.00  0.00     0.102 A 
HETATM   30  C   UNL     1      38.282  52.827  45.772  1.00  0.00     0.099 A 
HETATM   31  C   UNL     1      37.349  53.601  45.092  1.00  0.00     0.040 A 
HETATM   32  C   UNL     1      37.424  53.710  43.705  1.00  0.00     0.012 A 
BRANCH  29  33
HETATM   33  O   UNL     1      40.145  51.425  45.899  1.00  0.00    -0.349 OA
BRANCH  33  34
HETATM   34  C   UNL     1      40.637  50.185  45.388  1.00  0.00     0.171 C 
HETATM   35  C   UNL     1      42.133  50.131  45.633  1.00  0.00     0.034 C 
ENDBRANCH  33  34
ENDBRANCH  29  33
BRANCH  30  36
HETATM   36  O   UNL     1      38.175  52.746  47.132  1.00  0.00    -0.358 OA
HETATM   37  H   UNL     1      37.310  53.141  47.358  1.00  0.00     0.218 HD
ENDBRANCH  30  36
ENDBRANCH  26  27
ENDBRANCH   4  26
TORSDOF 10
ENDMDL
MODEL 10
REMARK VINA RESULT:      -7.3      3.964      9.491
REMARK  10 active torsions:
REMARK  status: ('A' for Active; 'I' for Inactive)
REMARK    1  A    between atoms: C_2  and  C_3 
REMARK    2  A    between atoms: C_3  and  C_4 
REMARK    3  A    between atoms: N_7  and  C_9 
REMARK    4  A    between atoms: C_9  and  C_10 
REMARK    5  A    between atoms: C_12  and  O_13 
REMARK    6  A    between atoms: O_13  and  C_14 
REMARK    7  A    between atoms: C_16  and  O_17 
REMARK    8  A    between atoms: N_25  and  C_26 
REMARK    9  A    between atoms: C_26  and  C_27 
REMARK   10  A    between atoms: C_27  and  C_28 
ROOT
HETATM    1  C   UNL     1      18.754  50.239  50.006  1.00  0.00     0.026 C 
HETATM    2  C   UNL     1      19.866  51.290  50.171  1.00  0.00     0.035 C 
HETATM    3  C   UNL     1      20.944  51.254  49.089  1.00  0.00     0.235 C 
HETATM    4  N   UNL     1      21.517  49.866  48.937  1.00  0.00    -0.067 N 
HETATM    5  H   UNL     1      22.027  49.664  49.806  1.00  0.00     0.280 HD
HETATM    6  C   UNL     1      20.472  48.793  48.752  1.00  0.00     0.235 C 
HETATM    7  C   UNL     1      19.425  48.860  49.848  1.00  0.00     0.035 C 
ENDROOT
BRANCH   1   8
HETATM    8  C   UNL     1      17.684  50.608  48.930  1.00  0.00     0.119 C 
HETATM    9  N   UNL     1      18.243  51.325  47.796  1.00  0.00    -0.324 N 
HETATM   10  C   UNL     1      17.807  50.788  46.601  1.00  0.00     0.326 C 
HETATM   11  H   UNL     1      18.315  52.337  47.766  1.00  0.00     0.165 HD
HETATM   12  O   UNL     1      17.931  51.375  45.542  1.00  0.00    -0.247 OA
HETATM   13  N   UNL     1      17.246  49.577  46.837  1.00  0.00    -0.268 N 
HETATM   14  C   UNL     1      17.138  49.365  48.185  1.00  0.00     0.256 C 
HETATM   15  O   UNL     1      16.667  48.378  48.730  1.00  0.00    -0.270 OA
BRANCH   8  16
HETATM   16  C   UNL     1      16.480  51.431  49.461  1.00  0.00     0.037 C 
HETATM   17  C   UNL     1      16.759  52.898  49.761  1.00  0.00     0.008 C 
ENDBRANCH   8  16
BRANCH  13  18
HETATM   18  C   UNL     1      16.605  48.762  45.817  1.00  0.00     0.142 C 
BRANCH  18  19
HETATM   19  C   UNL     1      17.593  47.897  45.027  1.00  0.00     0.068 C 
BRANCH  19  20
HETATM   20  C   UNL     1      17.308  46.441  45.213  1.00  0.00     0.010 A 
HETATM   21  S   UNL     1      16.311  45.589  44.107  1.00  0.00    -0.085 SA
HETATM   22  C   UNL     1      16.542  44.160  45.021  1.00  0.00     0.166 A 
HETATM   23  N   UNL     1      17.306  44.275  46.084  1.00  0.00    -0.258 NA
HETATM   24  C   UNL     1      17.749  45.580  46.209  1.00  0.00     0.044 A 
HETATM   25  C   UNL     1      18.630  45.916  47.361  1.00  0.00     0.071 C 
ENDBRANCH  19  20
ENDBRANCH  18  19
ENDBRANCH  13  18
ENDBRANCH   1   8
BRANCH   4  26
HETATM   26  C   UNL     1      22.541  49.755  47.814  1.00  0.00     0.273 C 
BRANCH  26  27
HETATM   27  C   UNL     1      23.953  49.489  48.257  1.00  0.00    -0.030 A 
HETATM   28  C   UNL     1      24.210  48.469  49.197  1.00  0.00     0.048 A 
HETATM   29  C   UNL     1      25.513  48.189  49.605  1.00  0.00     0.102 A 
HETATM   30  C   UNL     1      26.559  48.940  49.062  1.00  0.00     0.099 A 
HETATM   31  C   UNL     1      26.327  49.952  48.138  1.00  0.00     0.040 A 
HETATM   32  C   UNL     1      25.024  50.229  47.732  1.00  0.00     0.012 A 
BRANCH  29  33
HETATM   33  O   UNL     1      25.892  47.226  50.501  1.00  0.00    -0.349 OA
BRANCH  33  34
HETATM   34  C   UNL     1      25.020  46.108  50.672  1.00  0.00     0.171 C 
HETATM   35  C   UNL     1      25.631  44.915  49.962  1.00  0.00     0.034 C 
ENDBRANCH  33  34
ENDBRANCH  29  33
BRANCH  30  36
HETATM   36  O   UNL     1      27.851  48.698  49.434  1.00  0.00    -0.358 OA
HETATM   37  H   UNL     1      27.905  48.925  50.383  1.00  0.00     0.218 HD
ENDBRANCH  30  36
ENDBRANCH  26  27
ENDBRANCH   4  26
TORSDOF 10
ENDMDL
