MODEL 1
REMARK VINA RESULT:      -8.1      0.000      0.000
REMARK  7 active torsions:
REMARK  status: ('A' for Active; 'I' for Inactive)
REMARK    1  A    between atoms: C_4  and  C_5 
REMARK    2  A    between atoms: C_9  and  C_10 
REMARK    3  A    between atoms: C_10  and  C_11 
REMARK    4  A    between atoms: C_11  and  C_12 
REMARK    5  A    between atoms: C_12  and  O_13 
REMARK    6  A    between atoms: C_18  and  C_19 
REMARK       I    between atoms: C_19  and  N_20 
REMARK    7  A    between atoms: N_20  and  C_21 
ROOT
HETATM    1  C   UNL     1      26.601  42.347  51.707  1.00  0.00     0.202 A 
HETATM    2  N   UNL     1      27.182  41.316  50.839  1.00  0.00    -0.083 N 
HETATM    3  C   UNL     1      28.391  40.726  51.061  1.00  0.00     0.726 A 
HETATM    4  N   UNL     1      28.584  39.776  50.183  1.00  0.00    -0.046 NA
HETATM    5  C   UNL     1      27.415  39.785  49.459  1.00  0.00     0.166 A 
HETATM    6  N   UNL     1      26.505  40.689  49.851  1.00  0.00    -0.140 NA
HETATM    7  N   UNL     1      29.133  41.127  52.107  1.00  0.00    -0.192 N 
HETATM    8  C   UNL     1      28.695  42.047  53.054  1.00  0.00     0.037 A 
HETATM    9  C   UNL     1      29.634  42.261  54.219  1.00  0.00     0.070 C 
HETATM   10  C   UNL     1      27.485  42.657  52.916  1.00  0.00     0.062 A 
HETATM   11  H   UNL     1      30.018  40.659  52.280  1.00  0.00     0.184 HD
ENDROOT
BRANCH  10  12
HETATM   12  C   UNL     1      27.031  43.696  53.908  1.00  0.00     0.256 C 
HETATM   13  N   UNL     1      27.625  44.937  53.779  1.00  0.00    -0.323 N 
HETATM   14  H   UNL     1      28.370  45.045  53.112  1.00  0.00     0.169 HD
HETATM   15  O   UNL     1      26.226  43.386  54.780  1.00  0.00    -0.267 OA
BRANCH  13  16
HETATM   16  C   UNL     1      27.364  46.101  54.547  1.00  0.00     0.041 A 
HETATM   17  C   UNL     1      26.426  47.042  54.060  1.00  0.00    -0.035 A 
HETATM   18  C   UNL     1      25.734  46.884  52.732  1.00  0.00     0.050 C 
HETATM   19  C   UNL     1      26.143  48.193  54.818  1.00  0.00     0.009 A 
HETATM   20  C   UNL     1      26.769  48.414  56.043  1.00  0.00     0.001 A 
HETATM   21  C   UNL     1      27.686  47.489  56.523  1.00  0.00     0.002 A 
HETATM   22  C   UNL     1      27.981  46.343  55.781  1.00  0.00     0.030 A 
ENDBRANCH  13  16
ENDBRANCH  10  12
BRANCH   1  23
HETATM   23  C   UNL     1      26.206  43.565  50.875  1.00  0.00    -0.028 A 
HETATM   24  C   UNL     1      24.864  43.886  50.606  1.00  0.00     0.016 A 
HETATM   25  C   UNL     1      24.532  44.995  49.814  1.00  0.00    -0.061 A 
HETATM   26  C   UNL     1      23.101  45.315  49.499  1.00  0.00     0.048 C 
HETATM   27  C   UNL     1      25.554  45.806  49.310  1.00  0.00     0.007 A 
HETATM   28  C   UNL     1      26.887  45.521  49.593  1.00  0.00     0.001 A 
HETATM   29  C   UNL     1      27.211  44.410  50.371  1.00  0.00     0.010 A 
ENDBRANCH   1  23
BRANCH   5  30
HETATM   30  C   UNL     1      27.161  38.826  48.355  1.00  0.00     0.085 C 
BRANCH  30  31
HETATM   31  C   UNL     1      27.902  37.501  48.523  1.00  0.00     0.034 C 
BRANCH  31  32
HETATM   32  C   UNL     1      27.268  36.585  49.564  1.00  0.00     0.164 C 
BRANCH  32  33
HETATM   33  O   UNL     1      28.121  36.483  50.699  1.00  0.00    -0.401 OA
HETATM   34  H   UNL     1      27.748  35.802  51.286  1.00  0.00     0.209 HD
ENDBRANCH  32  33
ENDBRANCH  31  32
ENDBRANCH  30  31
ENDBRANCH   5  30
TORSDOF 7
ENDMDL
MODEL 2
REMARK VINA RESULT:      -8.0      2.499      3.977
REMARK  7 active torsions:
REMARK  status: ('A' for Active; 'I' for Inactive)
REMARK    1  A    between atoms: C_4  and  C_5 
REMARK    2  A    between atoms: C_9  and  C_10 
REMARK    3  A    between atoms: C_10  and  C_11 
REMARK    4  A    between atoms: C_11  and  C_12 
REMARK    5  A    between atoms: C_12  and  O_13 
REMARK    6  A    between atoms: C_18  and  C_19 
REMARK       I    between atoms: C_19  and  N_20 
REMARK    7  A    between atoms: N_20  and  C_21 
ROOT
HETATM    1  C   UNL     1      25.737  43.075  51.570  1.00  0.00     0.202 A 
HETATM    2  N   UNL     1      25.413  42.422  50.297  1.00  0.00    -0.083 N 
HETATM    3  C   UNL     1      26.123  41.382  49.772  1.00  0.00     0.726 A 
HETATM    4  N   UNL     1      25.529  40.947  48.691  1.00  0.00    -0.046 NA
HETATM    5  C   UNL     1      24.404  41.733  48.621  1.00  0.00     0.166 A 
HETATM    6  N   UNL     1      24.268  42.629  49.609  1.00  0.00    -0.140 NA
HETATM    7  N   UNL     1      27.214  40.942  50.419  1.00  0.00    -0.192 N 
HETATM    8  C   UNL     1      27.615  41.416  51.665  1.00  0.00     0.037 A 
HETATM    9  C   UNL     1      28.796  40.695  52.273  1.00  0.00     0.070 C 
HETATM   10  C   UNL     1      26.937  42.433  52.266  1.00  0.00     0.062 A 
HETATM   11  H   UNL     1      27.717  40.147  50.034  1.00  0.00     0.184 HD
ENDROOT
BRANCH  10  12
HETATM   12  C   UNL     1      27.401  42.988  53.588  1.00  0.00     0.256 C 
HETATM   13  N   UNL     1      28.650  43.579  53.576  1.00  0.00    -0.323 N 
HETATM   14  H   UNL     1      29.199  43.523  52.735  1.00  0.00     0.169 HD
HETATM   15  O   UNL     1      26.697  42.847  54.582  1.00  0.00    -0.267 OA
BRANCH  13  16
HETATM   16  C   UNL     1      29.315  44.211  54.659  1.00  0.00     0.041 A 
HETATM   17  C   UNL     1      28.841  45.465  55.111  1.00  0.00    -0.035 A 
HETATM   18  C   UNL     1      27.693  46.183  54.453  1.00  0.00     0.050 C 
HETATM   19  C   UNL     1      29.479  46.096  56.195  1.00  0.00     0.009 A 
HETATM   20  C   UNL     1      30.564  45.499  56.832  1.00  0.00     0.001 A 
HETATM   21  C   UNL     1      31.027  44.266  56.391  1.00  0.00     0.002 A 
HETATM   22  C   UNL     1      30.407  43.628  55.314  1.00  0.00     0.030 A 
ENDBRANCH  13  16
ENDBRANCH  10  12
BRANCH   1  23
HETATM   23  C   UNL     1      25.850  44.585  51.365  1.00  0.00    -0.028 A 
HETATM   24  C   UNL     1      26.698  45.148  50.396  1.00  0.00     0.016 A 
HETATM   25  C   UNL     1      26.803  46.538  50.250  1.00  0.00    -0.061 A 
HETATM   26  C   UNL     1      27.735  47.138  49.239  1.00  0.00     0.048 C 
HETATM   27  C   UNL     1      26.031  47.372  51.065  1.00  0.00     0.007 A 
HETATM   28  C   UNL     1      25.162  46.830  52.008  1.00  0.00     0.001 A 
HETATM   29  C   UNL     1      25.070  45.447  52.156  1.00  0.00     0.010 A 
ENDBRANCH   1  23
BRANCH   5  30
HETATM   30  C   UNL     1      23.386  41.565  47.553  1.00  0.00     0.085 C 
BRANCH  30  31
HETATM   31  C   UNL     1      23.402  42.690  46.520  1.00  0.00     0.034 C 
BRANCH  31  32
HETATM   32  C   UNL     1      22.500  43.861  46.892  1.00  0.00     0.164 C 
BRANCH  32  33
HETATM   33  O   UNL     1      21.595  43.464  47.917  1.00  0.00    -0.401 OA
HETATM   34  H   UNL     1      21.715  44.074  48.666  1.00  0.00     0.209 HD
ENDBRANCH  32  33
ENDBRANCH  31  32
ENDBRANCH  30  31
ENDBRANCH   5  30
TORSDOF 7
ENDMDL
MODEL 3
REMARK VINA RESULT:      -7.8      4.621      7.735
REMARK  7 active torsions:
REMARK  status: ('A' for Active; 'I' for Inactive)
REMARK    1  A    between atoms: C_4  and  C_5 
REMARK    2  A    between atoms: C_9  and  C_10 
REMARK    3  A    between atoms: C_10  and  C_11 
REMARK    4  A    between atoms: C_11  and  C_12 
REMARK    5  A    between atoms: C_12  and  O_13 
REMARK    6  A    between atoms: C_18  and  C_19 
REMARK       I    between atoms: C_19  and  N_20 
REMARK    7  A    between atoms: N_20  and  C_21 
ROOT
HETATM    1  C   UNL     1      23.451  46.547  49.705  1.00  0.00     0.202 A 
HETATM    2  N   UNL     1      24.639  45.861  50.226  1.00  0.00    -0.083 N 
HETATM    3  C   UNL     1      25.896  46.392  50.204  1.00  0.00     0.726 A 
HETATM    4  N   UNL     1      26.719  45.595  50.835  1.00  0.00    -0.046 NA
HETATM    5  C   UNL     1      25.893  44.593  51.284  1.00  0.00     0.166 A 
HETATM    6  N   UNL     1      24.597  44.733  50.969  1.00  0.00    -0.140 NA
HETATM    7  N   UNL     1      26.089  47.593  49.635  1.00  0.00    -0.192 N 
HETATM    8  C   UNL     1      25.057  48.393  49.154  1.00  0.00     0.037 A 
HETATM    9  C   UNL     1      25.481  49.761  48.671  1.00  0.00     0.070 C 
HETATM   10  C   UNL     1      23.771  47.943  49.170  1.00  0.00     0.062 A 
HETATM   11  H   UNL     1      27.024  47.991  49.652  1.00  0.00     0.184 HD
ENDROOT
BRANCH  10  12
HETATM   12  C   UNL     1      22.658  48.782  48.598  1.00  0.00     0.256 C 
HETATM   13  N   UNL     1      21.758  49.281  49.520  1.00  0.00    -0.323 N 
HETATM   14  H   UNL     1      21.842  48.988  50.478  1.00  0.00     0.169 HD
HETATM   15  O   UNL     1      22.579  48.931  47.383  1.00  0.00    -0.267 OA
BRANCH  13  16
HETATM   16  C   UNL     1      20.645  50.123  49.268  1.00  0.00     0.041 A 
HETATM   17  C   UNL     1      19.349  49.655  49.593  1.00  0.00    -0.035 A 
HETATM   18  C   UNL     1      19.100  48.277  50.144  1.00  0.00     0.050 C 
HETATM   19  C   UNL     1      18.236  50.486  49.365  1.00  0.00     0.009 A 
HETATM   20  C   UNL     1      18.394  51.763  48.832  1.00  0.00     0.001 A 
HETATM   21  C   UNL     1      19.665  52.224  48.517  1.00  0.00     0.002 A 
HETATM   22  C   UNL     1      20.780  51.410  48.733  1.00  0.00     0.030 A 
ENDBRANCH  13  16
ENDBRANCH  10  12
BRANCH   1  23
HETATM   23  C   UNL     1      22.717  45.639  48.721  1.00  0.00    -0.028 A 
HETATM   24  C   UNL     1      21.320  45.677  48.565  1.00  0.00     0.016 A 
HETATM   25  C   UNL     1      20.670  44.811  47.675  1.00  0.00    -0.061 A 
HETATM   26  C   UNL     1      19.176  44.829  47.536  1.00  0.00     0.048 C 
HETATM   27  C   UNL     1      21.429  43.916  46.913  1.00  0.00     0.007 A 
HETATM   28  C   UNL     1      22.815  43.888  47.032  1.00  0.00     0.001 A 
HETATM   29  C   UNL     1      23.455  44.744  47.928  1.00  0.00     0.010 A 
ENDBRANCH   1  23
BRANCH   5  30
HETATM   30  C   UNL     1      26.395  43.462  52.106  1.00  0.00     0.085 C 
BRANCH  30  31
HETATM   31  C   UNL     1      27.067  43.909  53.403  1.00  0.00     0.034 C 
BRANCH  31  32
HETATM   32  C   UNL     1      26.114  43.942  54.592  1.00  0.00     0.164 C 
BRANCH  32  33
HETATM   33  O   UNL     1      24.770  43.819  54.136  1.00  0.00    -0.401 OA
HETATM   34  H   UNL     1      24.782  43.265  53.337  1.00  0.00     0.209 HD
ENDBRANCH  32  33
ENDBRANCH  31  32
ENDBRANCH  30  31
ENDBRANCH   5  30
TORSDOF 7
ENDMDL
MODEL 4
REMARK VINA RESULT:      -7.6     16.620     18.327
REMARK  7 active torsions:
REMARK  status: ('A' for Active; 'I' for Inactive)
REMARK    1  A    between atoms: C_4  and  C_5 
REMARK    2  A    between atoms: C_9  and  C_10 
REMARK    3  A    between atoms: C_10  and  C_11 
REMARK    4  A    between atoms: C_11  and  C_12 
REMARK    5  A    between atoms: C_12  and  O_13 
REMARK    6  A    between atoms: C_18  and  C_19 
REMARK       I    between atoms: C_19  and  N_20 
REMARK    7  A    between atoms: N_20  and  C_21 
ROOT
HETATM    1  C   UNL     1      39.190  43.341  63.985  1.00  0.00     0.202 A 
HETATM    2  N   UNL     1      39.174  41.884  64.153  1.00  0.00    -0.083 N 
HETATM    3  C   UNL     1      38.129  41.190  64.688  1.00  0.00     0.726 A 
HETATM    4  N   UNL     1      38.366  39.906  64.604  1.00  0.00    -0.046 NA
HETATM    5  C   UNL     1      39.571  39.859  63.945  1.00  0.00     0.166 A 
HETATM    6  N   UNL     1      40.089  41.050  63.610  1.00  0.00    -0.140 NA
HETATM    7  N   UNL     1      37.058  41.864  65.138  1.00  0.00    -0.192 N 
HETATM    8  C   UNL     1      36.896  43.238  64.994  1.00  0.00     0.037 A 
HETATM    9  C   UNL     1      35.561  43.776  65.455  1.00  0.00     0.070 C 
HETATM   10  C   UNL     1      37.885  43.995  64.441  1.00  0.00     0.062 A 
HETATM   11  H   UNL     1      36.273  41.334  65.507  1.00  0.00     0.184 HD
ENDROOT
BRANCH  10  12
HETATM   12  C   UNL     1      37.738  45.491  64.336  1.00  0.00     0.256 C 
HETATM   13  N   UNL     1      38.349  46.217  65.340  1.00  0.00    -0.323 N 
HETATM   14  H   UNL     1      38.763  45.719  66.109  1.00  0.00     0.169 HD
HETATM   15  O   UNL     1      37.066  45.968  63.428  1.00  0.00    -0.267 OA
BRANCH  13  16
HETATM   16  C   UNL     1      38.403  47.629  65.471  1.00  0.00     0.041 A 
HETATM   17  C   UNL     1      37.343  48.293  66.132  1.00  0.00    -0.035 A 
HETATM   18  C   UNL     1      36.132  47.567  66.654  1.00  0.00     0.050 C 
HETATM   19  C   UNL     1      37.390  49.691  66.285  1.00  0.00     0.009 A 
HETATM   20  C   UNL     1      38.469  50.427  65.801  1.00  0.00     0.001 A 
HETATM   21  C   UNL     1      39.512  49.776  65.156  1.00  0.00     0.002 A 
HETATM   22  C   UNL     1      39.478  48.388  64.992  1.00  0.00     0.030 A 
ENDBRANCH  13  16
ENDBRANCH  10  12
BRANCH   1  23
HETATM   23  C   UNL     1      40.451  43.924  64.619  1.00  0.00    -0.028 A 
HETATM   24  C   UNL     1      41.391  44.661  63.878  1.00  0.00     0.016 A 
HETATM   25  C   UNL     1      42.555  45.158  64.480  1.00  0.00    -0.061 A 
HETATM   26  C   UNL     1      43.574  45.914  63.680  1.00  0.00     0.048 C 
HETATM   27  C   UNL     1      42.766  44.939  65.846  1.00  0.00     0.007 A 
HETATM   28  C   UNL     1      41.830  44.240  66.602  1.00  0.00     0.001 A 
HETATM   29  C   UNL     1      40.680  43.737  65.994  1.00  0.00     0.010 A 
ENDBRANCH   1  23
BRANCH   5  30
HETATM   30  C   UNL     1      40.226  38.576  63.584  1.00  0.00     0.085 C 
BRANCH  30  31
HETATM   31  C   UNL     1      40.898  37.886  64.770  1.00  0.00     0.034 C 
BRANCH  31  32
HETATM   32  C   UNL     1      42.398  37.695  64.582  1.00  0.00     0.164 C 
BRANCH  32  33
HETATM   33  O   UNL     1      42.643  36.502  63.843  1.00  0.00    -0.401 OA
HETATM   34  H   UNL     1      43.564  36.536  63.529  1.00  0.00     0.209 HD
ENDBRANCH  32  33
ENDBRANCH  31  32
ENDBRANCH  30  31
ENDBRANCH   5  30
TORSDOF 7
ENDMDL
MODEL 5
REMARK VINA RESULT:      -7.6      2.785      6.829
REMARK  7 active torsions:
REMARK  status: ('A' for Active; 'I' for Inactive)
REMARK    1  A    between atoms: C_4  and  C_5 
REMARK    2  A    between atoms: C_9  and  C_10 
REMARK    3  A    between atoms: C_10  and  C_11 
REMARK    4  A    between atoms: C_11  and  C_12 
REMARK    5  A    between atoms: C_12  and  O_13 
REMARK    6  A    between atoms: C_18  and  C_19 
REMARK       I    between atoms: C_19  and  N_20 
REMARK    7  A    between atoms: N_20  and  C_21 
ROOT
HETATM    1  C   UNL     1      27.704  43.253  51.005  1.00  0.00     0.202 A 
HETATM    2  N   UNL     1      28.250  42.957  52.334  1.00  0.00    -0.083 N 
HETATM    3  C   UNL     1      28.126  41.750  52.957  1.00  0.00     0.726 A 
HETATM    4  N   UNL     1      28.806  41.761  54.074  1.00  0.00    -0.046 NA
HETATM    5  C   UNL     1      29.389  43.006  54.066  1.00  0.00     0.166 A 
HETATM    6  N   UNL     1      29.109  43.764  52.996  1.00  0.00    -0.140 NA
HETATM    7  N   UNL     1      27.427  40.773  52.357  1.00  0.00    -0.192 N 
HETATM    8  C   UNL     1      26.902  40.878  51.072  1.00  0.00     0.037 A 
HETATM    9  C   UNL     1      26.263  39.617  50.538  1.00  0.00     0.070 C 
HETATM   10  C   UNL     1      27.013  42.043  50.375  1.00  0.00     0.062 A 
HETATM   11  H   UNL     1      27.367  39.869  52.817  1.00  0.00     0.184 HD
ENDROOT
BRANCH  10  12
HETATM   12  C   UNL     1      26.397  42.180  49.007  1.00  0.00     0.256 C 
HETATM   13  N   UNL     1      25.021  42.308  48.988  1.00  0.00    -0.323 N 
HETATM   14  H   UNL     1      24.519  42.212  49.854  1.00  0.00     0.169 HD
HETATM   15  O   UNL     1      27.114  42.121  48.014  1.00  0.00    -0.267 OA
BRANCH  13  16
HETATM   16  C   UNL     1      24.188  42.489  47.854  1.00  0.00     0.041 A 
HETATM   17  C   UNL     1      23.553  43.739  47.667  1.00  0.00    -0.035 A 
HETATM   18  C   UNL     1      23.680  44.869  48.654  1.00  0.00     0.050 C 
HETATM   19  C   UNL     1      22.737  43.939  46.537  1.00  0.00     0.009 A 
HETATM   20  C   UNL     1      22.554  42.926  45.599  1.00  0.00     0.001 A 
HETATM   21  C   UNL     1      23.181  41.700  45.780  1.00  0.00     0.002 A 
HETATM   22  C   UNL     1      23.991  41.484  46.898  1.00  0.00     0.030 A 
ENDBRANCH  13  16
ENDBRANCH  10  12
BRANCH   1  23
HETATM   23  C   UNL     1      26.849  44.517  51.064  1.00  0.00    -0.028 A 
HETATM   24  C   UNL     1      27.097  45.629  50.239  1.00  0.00     0.016 A 
HETATM   25  C   UNL     1      26.313  46.788  50.336  1.00  0.00    -0.061 A 
HETATM   26  C   UNL     1      26.601  47.986  49.480  1.00  0.00     0.048 C 
HETATM   27  C   UNL     1      25.253  46.823  51.249  1.00  0.00     0.007 A 
HETATM   28  C   UNL     1      24.974  45.719  52.050  1.00  0.00     0.001 A 
HETATM   29  C   UNL     1      25.765  44.574  51.957  1.00  0.00     0.010 A 
ENDBRANCH   1  23
BRANCH   5  30
HETATM   30  C   UNL     1      30.306  43.457  55.144  1.00  0.00     0.085 C 
BRANCH  30  31
HETATM   31  C   UNL     1      29.949  44.832  55.705  1.00  0.00     0.034 C 
BRANCH  31  32
HETATM   32  C   UNL     1      30.545  45.091  57.084  1.00  0.00     0.164 C 
BRANCH  32  33
HETATM   33  O   UNL     1      31.283  43.951  57.512  1.00  0.00    -0.401 OA
HETATM   34  H   UNL     1      32.035  43.843  56.904  1.00  0.00     0.209 HD
ENDBRANCH  32  33
ENDBRANCH  31  32
ENDBRANCH  30  31
ENDBRANCH   5  30
TORSDOF 7
ENDMDL
MODEL 6
REMARK VINA RESULT:      -7.6      7.118     11.270
REMARK  7 active torsions:
REMARK  status: ('A' for Active; 'I' for Inactive)
REMARK    1  A    between atoms: C_4  and  C_5 
REMARK    2  A    between atoms: C_9  and  C_10 
REMARK    3  A    between atoms: C_10  and  C_11 
REMARK    4  A    between atoms: C_11  and  C_12 
REMARK    5  A    between atoms: C_12  and  O_13 
REMARK    6  A    between atoms: C_18  and  C_19 
REMARK       I    between atoms: C_19  and  N_20 
REMARK    7  A    between atoms: N_20  and  C_21 
ROOT
HETATM    1  C   UNL     1      21.076  48.142  47.565  1.00  0.00     0.202 A 
HETATM    2  N   UNL     1      22.228  47.652  48.331  1.00  0.00    -0.083 N 
HETATM    3  C   UNL     1      22.516  46.331  48.511  1.00  0.00     0.726 A 
HETATM    4  N   UNL     1      23.657  46.213  49.141  1.00  0.00    -0.046 NA
HETATM    5  C   UNL     1      24.067  47.518  49.281  1.00  0.00     0.166 A 
HETATM    6  N   UNL     1      23.239  48.438  48.763  1.00  0.00    -0.140 NA
HETATM    7  N   UNL     1      21.686  45.405  48.004  1.00  0.00    -0.192 N 
HETATM    8  C   UNL     1      20.590  45.708  47.203  1.00  0.00     0.037 A 
HETATM    9  C   UNL     1      19.865  44.511  46.631  1.00  0.00     0.070 C 
HETATM   10  C   UNL     1      20.256  47.005  46.954  1.00  0.00     0.062 A 
HETATM   11  H   UNL     1      21.929  44.424  48.118  1.00  0.00     0.184 HD
ENDROOT
BRANCH  10  12
HETATM   12  C   UNL     1      19.036  47.340  46.135  1.00  0.00     0.256 C 
HETATM   13  N   UNL     1      17.827  47.192  46.787  1.00  0.00    -0.323 N 
HETATM   14  H   UNL     1      17.826  46.793  47.710  1.00  0.00     0.169 HD
HETATM   15  O   UNL     1      19.169  47.663  44.960  1.00  0.00    -0.267 OA
BRANCH  13  16
HETATM   16  C   UNL     1      16.533  47.468  46.275  1.00  0.00     0.041 A 
HETATM   17  C   UNL     1      15.740  48.447  46.920  1.00  0.00    -0.035 A 
HETATM   18  C   UNL     1      16.193  49.168  48.162  1.00  0.00     0.050 C 
HETATM   19  C   UNL     1      14.461  48.745  46.414  1.00  0.00     0.009 A 
HETATM   20  C   UNL     1      13.970  48.095  45.285  1.00  0.00     0.001 A 
HETATM   21  C   UNL     1      14.749  47.137  44.649  1.00  0.00     0.002 A 
HETATM   22  C   UNL     1      16.020  46.827  45.141  1.00  0.00     0.030 A 
ENDBRANCH  13  16
ENDBRANCH  10  12
BRANCH   1  23
HETATM   23  C   UNL     1      20.271  49.127  48.410  1.00  0.00    -0.028 A 
HETATM   24  C   UNL     1      19.962  50.422  47.959  1.00  0.00     0.016 A 
HETATM   25  C   UNL     1      19.247  51.316  48.769  1.00  0.00    -0.061 A 
HETATM   26  C   UNL     1      18.949  52.710  48.300  1.00  0.00     0.048 C 
HETATM   27  C   UNL     1      18.813  50.899  50.031  1.00  0.00     0.007 A 
HETATM   28  C   UNL     1      19.082  49.609  50.480  1.00  0.00     0.001 A 
HETATM   29  C   UNL     1      19.805  48.729  49.675  1.00  0.00     0.010 A 
ENDBRANCH   1  23
BRANCH   5  30
HETATM   30  C   UNL     1      25.360  47.877  49.916  1.00  0.00     0.085 C 
BRANCH  30  31
HETATM   31  C   UNL     1      26.165  48.897  49.113  1.00  0.00     0.034 C 
BRANCH  31  32
HETATM   32  C   UNL     1      27.657  48.588  49.072  1.00  0.00     0.164 C 
BRANCH  32  33
HETATM   33  O   UNL     1      28.399  49.803  49.021  1.00  0.00    -0.401 OA
HETATM   34  H   UNL     1      28.046  50.330  48.284  1.00  0.00     0.209 HD
ENDBRANCH  32  33
ENDBRANCH  31  32
ENDBRANCH  30  31
ENDBRANCH   5  30
TORSDOF 7
ENDMDL
MODEL 7
REMARK VINA RESULT:      -7.5      2.728      4.061
REMARK  7 active torsions:
REMARK  status: ('A' for Active; 'I' for Inactive)
REMARK    1  A    between atoms: C_4  and  C_5 
REMARK    2  A    between atoms: C_9  and  C_10 
REMARK    3  A    between atoms: C_10  and  C_11 
REMARK    4  A    between atoms: C_11  and  C_12 
REMARK    5  A    between atoms: C_12  and  O_13 
REMARK    6  A    between atoms: C_18  and  C_19 
REMARK       I    between atoms: C_19  and  N_20 
REMARK    7  A    between atoms: N_20  and  C_21 
ROOT
HETATM    1  C   UNL     1      25.311  43.541  50.508  1.00  0.00     0.202 A 
HETATM    2  N   UNL     1      25.182  42.767  49.267  1.00  0.00    -0.083 N 
HETATM    3  C   UNL     1      25.916  41.653  48.985  1.00  0.00     0.726 A 
HETATM    4  N   UNL     1      25.500  41.126  47.862  1.00  0.00    -0.046 NA
HETATM    5  C   UNL     1      24.448  41.939  47.513  1.00  0.00     0.166 A 
HETATM    6  N   UNL     1      24.188  42.940  48.367  1.00  0.00    -0.140 NA
HETATM    7  N   UNL     1      26.852  41.247  49.859  1.00  0.00    -0.192 N 
HETATM    8  C   UNL     1      27.051  41.836  51.103  1.00  0.00     0.037 A 
HETATM    9  C   UNL     1      28.067  41.144  51.983  1.00  0.00     0.070 C 
HETATM   10  C   UNL     1      26.334  42.935  51.469  1.00  0.00     0.062 A 
HETATM   11  H   UNL     1      27.372  40.399  49.651  1.00  0.00     0.184 HD
ENDROOT
BRANCH  10  12
HETATM   12  C   UNL     1      26.587  43.612  52.792  1.00  0.00     0.256 C 
HETATM   13  N   UNL     1      27.888  44.024  53.006  1.00  0.00    -0.323 N 
HETATM   14  H   UNL     1      28.588  43.774  52.329  1.00  0.00     0.169 HD
HETATM   15  O   UNL     1      25.672  43.711  53.603  1.00  0.00    -0.267 OA
BRANCH  13  16
HETATM   16  C   UNL     1      28.397  44.714  54.136  1.00  0.00     0.041 A 
HETATM   17  C   UNL     1      29.534  44.192  54.797  1.00  0.00    -0.035 A 
HETATM   18  C   UNL     1      30.192  42.903  54.383  1.00  0.00     0.050 C 
HETATM   19  C   UNL     1      30.062  44.874  55.910  1.00  0.00     0.009 A 
HETATM   20  C   UNL     1      29.485  46.058  56.362  1.00  0.00     0.001 A 
HETATM   21  C   UNL     1      28.372  46.573  55.711  1.00  0.00     0.002 A 
HETATM   22  C   UNL     1      27.833  45.906  54.608  1.00  0.00     0.030 A 
ENDBRANCH  13  16
ENDBRANCH  10  12
BRANCH   1  23
HETATM   23  C   UNL     1      25.538  45.015  50.179  1.00  0.00    -0.028 A 
HETATM   24  C   UNL     1      24.483  45.943  50.133  1.00  0.00     0.016 A 
HETATM   25  C   UNL     1      24.717  47.285  49.799  1.00  0.00    -0.061 A 
HETATM   26  C   UNL     1      23.586  48.267  49.716  1.00  0.00     0.048 C 
HETATM   27  C   UNL     1      26.025  47.707  49.536  1.00  0.00     0.007 A 
HETATM   28  C   UNL     1      27.085  46.807  49.609  1.00  0.00     0.001 A 
HETATM   29  C   UNL     1      26.844  45.471  49.930  1.00  0.00     0.010 A 
ENDBRANCH   1  23
BRANCH   5  30
HETATM   30  C   UNL     1      23.627  41.694  46.300  1.00  0.00     0.085 C 
BRANCH  30  31
HETATM   31  C   UNL     1      22.127  41.653  46.585  1.00  0.00     0.034 C 
BRANCH  31  32
HETATM   32  C   UNL     1      21.437  42.995  46.366  1.00  0.00     0.164 C 
BRANCH  32  33
HETATM   33  O   UNL     1      21.131  43.590  47.623  1.00  0.00    -0.401 OA
HETATM   34  H   UNL     1      20.707  44.448  47.445  1.00  0.00     0.209 HD
ENDBRANCH  32  33
ENDBRANCH  31  32
ENDBRANCH  30  31
ENDBRANCH   5  30
TORSDOF 7
ENDMDL
MODEL 8
REMARK VINA RESULT:      -7.4      2.903      7.376
REMARK  7 active torsions:
REMARK  status: ('A' for Active; 'I' for Inactive)
REMARK    1  A    between atoms: C_4  and  C_5 
REMARK    2  A    between atoms: C_9  and  C_10 
REMARK    3  A    between atoms: C_10  and  C_11 
REMARK    4  A    between atoms: C_11  and  C_12 
REMARK    5  A    between atoms: C_12  and  O_13 
REMARK    6  A    between atoms: C_18  and  C_19 
REMARK       I    between atoms: C_19  and  N_20 
REMARK    7  A    between atoms: N_20  and  C_21 
ROOT
HETATM    1  C   UNL     1      27.728  42.553  50.429  1.00  0.00     0.202 A 
HETATM    2  N   UNL     1      28.263  42.518  51.795  1.00  0.00    -0.083 N 
HETATM    3  C   UNL     1      28.759  41.396  52.391  1.00  0.00     0.726 A 
HETATM    4  N   UNL     1      29.257  41.705  53.561  1.00  0.00    -0.046 NA
HETATM    5  C   UNL     1      29.089  43.068  53.616  1.00  0.00     0.166 A 
HETATM    6  N   UNL     1      28.517  43.620  52.536  1.00  0.00    -0.140 NA
HETATM    7  N   UNL     1      28.725  40.232  51.723  1.00  0.00    -0.192 N 
HETATM    8  C   UNL     1      28.309  40.113  50.401  1.00  0.00     0.037 A 
HETATM    9  C   UNL     1      28.472  38.735  49.801  1.00  0.00     0.070 C 
HETATM   10  C   UNL     1      27.828  41.196  49.730  1.00  0.00     0.062 A 
HETATM   11  H   UNL     1      29.126  39.409  52.166  1.00  0.00     0.184 HD
ENDROOT
BRANCH  10  12
HETATM   12  C   UNL     1      27.321  41.060  48.317  1.00  0.00     0.256 C 
HETATM   13  N   UNL     1      26.107  40.415  48.183  1.00  0.00    -0.323 N 
HETATM   14  H   UNL     1      25.690  40.003  49.001  1.00  0.00     0.169 HD
HETATM   15  O   UNL     1      28.010  41.467  47.388  1.00  0.00    -0.267 OA
BRANCH  13  16
HETATM   16  C   UNL     1      25.383  40.181  46.986  1.00  0.00     0.041 A 
HETATM   17  C   UNL     1      24.400  41.119  46.590  1.00  0.00    -0.035 A 
HETATM   18  C   UNL     1      24.053  42.327  47.418  1.00  0.00     0.050 C 
HETATM   19  C   UNL     1      23.685  40.911  45.396  1.00  0.00     0.009 A 
HETATM   20  C   UNL     1      23.938  39.799  44.596  1.00  0.00     0.001 A 
HETATM   21  C   UNL     1      24.905  38.880  44.982  1.00  0.00     0.002 A 
HETATM   22  C   UNL     1      25.621  39.070  46.167  1.00  0.00     0.030 A 
ENDBRANCH  13  16
ENDBRANCH  10  12
BRANCH   1  23
HETATM   23  C   UNL     1      26.331  43.168  50.432  1.00  0.00    -0.028 A 
HETATM   24  C   UNL     1      26.082  44.464  49.947  1.00  0.00     0.016 A 
HETATM   25  C   UNL     1      24.793  45.015  49.990  1.00  0.00    -0.061 A 
HETATM   26  C   UNL     1      24.535  46.410  49.503  1.00  0.00     0.048 C 
HETATM   27  C   UNL     1      23.738  44.249  50.498  1.00  0.00     0.007 A 
HETATM   28  C   UNL     1      23.962  42.953  50.953  1.00  0.00     0.001 A 
HETATM   29  C   UNL     1      25.248  42.415  50.919  1.00  0.00     0.010 A 
ENDBRANCH   1  23
BRANCH   5  30
HETATM   30  C   UNL     1      29.555  43.876  54.771  1.00  0.00     0.085 C 
BRANCH  30  31
HETATM   31  C   UNL     1      30.738  43.252  55.508  1.00  0.00     0.034 C 
BRANCH  31  32
HETATM   32  C   UNL     1      31.094  43.978  56.799  1.00  0.00     0.164 C 
BRANCH  32  33
HETATM   33  O   UNL     1      32.092  43.247  57.504  1.00  0.00    -0.401 OA
HETATM   34  H   UNL     1      32.490  42.616  56.879  1.00  0.00     0.209 HD
ENDBRANCH  32  33
ENDBRANCH  31  32
ENDBRANCH  30  31
ENDBRANCH   5  30
TORSDOF 7
ENDMDL
MODEL 9
REMARK VINA RESULT:      -7.3      2.999      7.310
REMARK  7 active torsions:
REMARK  status: ('A' for Active; 'I' for Inactive)
REMARK    1  A    between atoms: C_4  and  C_5 
REMARK    2  A    between atoms: C_9  and  C_10 
REMARK    3  A    between atoms: C_10  and  C_11 
REMARK    4  A    between atoms: C_11  and  C_12 
REMARK    5  A    between atoms: C_12  and  O_13 
REMARK    6  A    between atoms: C_18  and  C_19 
REMARK       I    between atoms: C_19  and  N_20 
REMARK    7  A    between atoms: N_20  and  C_21 
ROOT
HETATM    1  C   UNL     1      26.058  42.411  51.507  1.00  0.00     0.202 A 
HETATM    2  N   UNL     1      27.217  42.907  52.258  1.00  0.00    -0.083 N 
HETATM    3  C   UNL     1      27.469  44.228  52.484  1.00  0.00     0.726 A 
HETATM    4  N   UNL     1      28.507  44.348  53.271  1.00  0.00    -0.046 NA
HETATM    5  C   UNL     1      28.833  43.042  53.551  1.00  0.00     0.166 A 
HETATM    6  N   UNL     1      28.043  42.120  52.982  1.00  0.00    -0.140 NA
HETATM    7  N   UNL     1      26.645  45.150  51.960  1.00  0.00    -0.192 N 
HETATM    8  C   UNL     1      25.473  44.839  51.279  1.00  0.00     0.037 A 
HETATM    9  C   UNL     1      24.627  46.028  50.884  1.00  0.00     0.070 C 
HETATM   10  C   UNL     1      25.139  43.540  51.040  1.00  0.00     0.062 A 
HETATM   11  H   UNL     1      26.826  46.130  52.162  1.00  0.00     0.184 HD
ENDROOT
BRANCH  10  12
HETATM   12  C   UNL     1      23.900  43.198  50.252  1.00  0.00     0.256 C 
HETATM   13  N   UNL     1      23.991  43.405  48.889  1.00  0.00    -0.323 N 
HETATM   14  H   UNL     1      24.818  43.845  48.524  1.00  0.00     0.169 HD
HETATM   15  O   UNL     1      22.896  42.819  50.843  1.00  0.00    -0.267 OA
BRANCH  13  16
HETATM   16  C   UNL     1      22.999  43.137  47.910  1.00  0.00     0.041 A 
HETATM   17  C   UNL     1      22.940  41.845  47.336  1.00  0.00    -0.035 A 
HETATM   18  C   UNL     1      23.922  40.759  47.682  1.00  0.00     0.050 C 
HETATM   19  C   UNL     1      21.951  41.559  46.376  1.00  0.00     0.009 A 
HETATM   20  C   UNL     1      21.028  42.528  45.990  1.00  0.00     0.001 A 
HETATM   21  C   UNL     1      21.084  43.795  46.556  1.00  0.00     0.002 A 
HETATM   22  C   UNL     1      22.061  44.096  47.507  1.00  0.00     0.030 A 
ENDBRANCH  13  16
ENDBRANCH  10  12
BRANCH   1  23
HETATM   23  C   UNL     1      26.522  41.466  50.400  1.00  0.00    -0.028 A 
HETATM   24  C   UNL     1      26.331  40.075  50.472  1.00  0.00     0.016 A 
HETATM   25  C   UNL     1      26.794  39.229  49.455  1.00  0.00    -0.061 A 
HETATM   26  C   UNL     1      26.620  37.742  49.551  1.00  0.00     0.048 C 
HETATM   27  C   UNL     1      27.430  39.785  48.339  1.00  0.00     0.007 A 
HETATM   28  C   UNL     1      27.599  41.163  48.237  1.00  0.00     0.001 A 
HETATM   29  C   UNL     1      27.147  41.998  49.258  1.00  0.00     0.010 A 
ENDBRANCH   1  23
BRANCH   5  30
HETATM   30  C   UNL     1      29.950  42.683  54.461  1.00  0.00     0.085 C 
BRANCH  30  31
HETATM   31  C   UNL     1      30.374  43.829  55.378  1.00  0.00     0.034 C 
BRANCH  31  32
HETATM   32  C   UNL     1      31.273  43.380  56.524  1.00  0.00     0.164 C 
BRANCH  32  33
HETATM   33  O   UNL     1      31.081  44.232  57.649  1.00  0.00    -0.401 OA
HETATM   34  H   UNL     1      30.190  44.615  57.577  1.00  0.00     0.209 HD
ENDBRANCH  32  33
ENDBRANCH  31  32
ENDBRANCH  30  31
ENDBRANCH   5  30
TORSDOF 7
ENDMDL
MODEL 10
REMARK VINA RESULT:      -7.1      3.421      6.080
REMARK  7 active torsions:
REMARK  status: ('A' for Active; 'I' for Inactive)
REMARK    1  A    between atoms: C_4  and  C_5 
REMARK    2  A    between atoms: C_9  and  C_10 
REMARK    3  A    between atoms: C_10  and  C_11 
REMARK    4  A    between atoms: C_11  and  C_12 
REMARK    5  A    between atoms: C_12  and  O_13 
REMARK    6  A    between atoms: C_18  and  C_19 
REMARK       I    between atoms: C_19  and  N_20 
REMARK    7  A    between atoms: N_20  and  C_21 
ROOT
HETATM    1  C   UNL     1      27.846  40.456  48.607  1.00  0.00     0.202 A 
HETATM    2  N   UNL     1      27.425  40.364  47.205  1.00  0.00    -0.083 N 
HETATM    3  C   UNL     1      26.402  41.089  46.667  1.00  0.00     0.726 A 
HETATM    4  N   UNL     1      26.339  40.870  45.379  1.00  0.00    -0.046 NA
HETATM    5  C   UNL     1      27.402  40.027  45.159  1.00  0.00     0.166 A 
HETATM    6  N   UNL     1      28.125  39.718  46.245  1.00  0.00    -0.140 NA
HETATM    7  N   UNL     1      25.694  41.909  47.461  1.00  0.00    -0.192 N 
HETATM    8  C   UNL     1      26.008  42.153  48.794  1.00  0.00     0.037 A 
HETATM    9  C   UNL     1      25.161  43.207  49.468  1.00  0.00     0.070 C 
HETATM   10  C   UNL     1      27.036  41.489  49.393  1.00  0.00     0.062 A 
HETATM   11  H   UNL     1      24.954  42.466  47.042  1.00  0.00     0.184 HD
ENDROOT
BRANCH  10  12
HETATM   12  C   UNL     1      27.344  41.706  50.852  1.00  0.00     0.256 C 
HETATM   13  N   UNL     1      28.271  42.695  51.120  1.00  0.00    -0.323 N 
HETATM   14  H   UNL     1      28.741  43.134  50.347  1.00  0.00     0.169 HD
HETATM   15  O   UNL     1      26.815  40.987  51.693  1.00  0.00    -0.267 OA
BRANCH  13  16
HETATM   16  C   UNL     1      28.718  43.134  52.393  1.00  0.00     0.041 A 
HETATM   17  C   UNL     1      27.992  44.150  53.057  1.00  0.00    -0.035 A 
HETATM   18  C   UNL     1      26.795  44.825  52.442  1.00  0.00     0.050 C 
HETATM   19  C   UNL     1      28.413  44.585  54.327  1.00  0.00     0.009 A 
HETATM   20  C   UNL     1      29.529  44.022  54.942  1.00  0.00     0.001 A 
HETATM   21  C   UNL     1      30.239  43.021  54.292  1.00  0.00     0.002 A 
HETATM   22  C   UNL     1      29.837  42.581  53.029  1.00  0.00     0.030 A 
ENDBRANCH  13  16
ENDBRANCH  10  12
BRANCH   1  23
HETATM   23  C   UNL     1      27.882  39.063  49.232  1.00  0.00    -0.028 A 
HETATM   24  C   UNL     1      28.942  38.637  50.051  1.00  0.00     0.016 A 
HETATM   25  C   UNL     1      28.963  37.341  50.587  1.00  0.00    -0.061 A 
HETATM   26  C   UNL     1      30.112  36.875  51.432  1.00  0.00     0.048 C 
HETATM   27  C   UNL     1      27.897  36.474  50.323  1.00  0.00     0.007 A 
HETATM   28  C   UNL     1      26.824  36.892  49.541  1.00  0.00     0.001 A 
HETATM   29  C   UNL     1      26.815  38.177  49.001  1.00  0.00     0.010 A 
ENDBRANCH   1  23
BRANCH   5  30
HETATM   30  C   UNL     1      27.754  39.535  43.802  1.00  0.00     0.085 C 
BRANCH  30  31
HETATM   31  C   UNL     1      28.991  40.213  43.216  1.00  0.00     0.034 C 
BRANCH  31  32
HETATM   32  C   UNL     1      28.936  40.356  41.699  1.00  0.00     0.164 C 
BRANCH  32  33
HETATM   33  O   UNL     1      28.904  41.736  41.346  1.00  0.00    -0.401 OA
HETATM   34  H   UNL     1      29.606  42.183  41.850  1.00  0.00     0.209 HD
ENDBRANCH  32  33
ENDBRANCH  31  32
ENDBRANCH  30  31
ENDBRANCH   5  30
TORSDOF 7
ENDMDL
