MODEL 1
REMARK VINA RESULT:      -8.1      0.000      0.000
REMARK  5 active torsions:
REMARK  status: ('A' for Active; 'I' for Inactive)
REMARK    1  A    between atoms: C_4  and  C_5 
REMARK    2  A    between atoms: C_5  and  N_6 
REMARK    3  A    between atoms: N_6  and  C_9 
REMARK    4  A    between atoms: C_12  and  O_13 
REMARK    5  A    between atoms: O_13  and  C_14 
ROOT
HETATM    1  C   UNL     1      28.669  44.068  53.450  1.00  0.00     0.164 A 
HETATM    2  N   UNL     1      28.570  44.944  54.471  1.00  0.00    -0.236 NA
HETATM    3  C   UNL     1      29.448  44.787  55.493  1.00  0.00     0.142 A 
HETATM    4  C   UNL     1      30.411  43.789  55.541  1.00  0.00     0.062 A 
HETATM    5  C   UNL     1      31.302  43.693  56.653  1.00  0.00     0.101 C 
HETATM    6  N   UNL     1      32.021  43.620  57.560  1.00  0.00    -0.191 NA
HETATM    7  C   UNL     1      30.476  42.892  54.475  1.00  0.00     0.028 A 
HETATM    8  C   UNL     1      29.585  43.029  53.412  1.00  0.00     0.059 A 
ENDROOT
BRANCH   1   9
HETATM    9  O   UNL     1      27.795  44.161  52.384  1.00  0.00    -0.329 OA
BRANCH   9  10
HETATM   10  C   UNL     1      26.674  45.026  52.611  1.00  0.00     0.130 C 
HETATM   11  C   UNL     1      26.599  45.976  51.406  1.00  0.00     0.034 C 
HETATM   12  C   UNL     1      26.265  45.240  50.105  1.00  0.00     0.035 C 
HETATM   13  C   UNL     1      24.995  44.389  50.203  1.00  0.00     0.186 C 
HETATM   14  C   UNL     1      25.049  43.461  51.422  1.00  0.00     0.035 C 
HETATM   15  C   UNL     1      25.383  44.200  52.722  1.00  0.00     0.034 C 
BRANCH  13  16
HETATM   16  N   UNL     1      23.775  45.260  50.327  1.00  0.00    -0.067 N 
HETATM   17  H   UNL     1      23.942  46.047  50.967  1.00  0.00     0.278 HD
HETATM   18  H   UNL     1      23.018  44.720  50.769  1.00  0.00     0.278 HD
BRANCH  16  19
HETATM   19  C   UNL     1      23.215  45.820  49.055  1.00  0.00     0.280 C 
BRANCH  19  20
HETATM   20  C   UNL     1      23.183  47.304  49.096  1.00  0.00     0.027 A 
HETATM   21  S   UNL     1      21.756  48.171  48.692  1.00  0.00    -0.077 SA
HETATM   22  C   UNL     1      22.579  49.652  48.983  1.00  0.00     0.071 A 
HETATM   23  C   UNL     1      21.884  50.959  48.816  1.00  0.00     0.078 C 
HETATM   24  N   UNL     1      23.833  49.523  49.357  1.00  0.00    -0.258 NA
HETATM   25  C   UNL     1      24.177  48.193  49.443  1.00  0.00     0.133 A 
ENDBRANCH  19  20
ENDBRANCH  16  19
ENDBRANCH  13  16
ENDBRANCH   9  10
ENDBRANCH   1   9
TORSDOF 5
ENDMDL
MODEL 2
REMARK VINA RESULT:      -7.2      6.444      9.921
REMARK  5 active torsions:
REMARK  status: ('A' for Active; 'I' for Inactive)
REMARK    1  A    between atoms: C_4  and  C_5 
REMARK    2  A    between atoms: C_5  and  N_6 
REMARK    3  A    between atoms: N_6  and  C_9 
REMARK    4  A    between atoms: C_12  and  O_13 
REMARK    5  A    between atoms: O_13  and  C_14 
ROOT
HETATM    1  C   UNL     1      22.631  49.730  48.633  1.00  0.00     0.164 A 
HETATM    2  N   UNL     1      23.024  48.684  49.389  1.00  0.00    -0.236 NA
HETATM    3  C   UNL     1      24.359  48.454  49.462  1.00  0.00     0.142 A 
HETATM    4  C   UNL     1      25.313  49.217  48.805  1.00  0.00     0.062 A 
HETATM    5  C   UNL     1      26.703  48.912  48.935  1.00  0.00     0.101 C 
HETATM    6  N   UNL     1      27.828  48.657  49.044  1.00  0.00    -0.191 NA
HETATM    7  C   UNL     1      24.872  50.282  48.020  1.00  0.00     0.028 A 
HETATM    8  C   UNL     1      23.505  50.541  47.926  1.00  0.00     0.059 A 
ENDROOT
BRANCH   1   9
HETATM    9  O   UNL     1      21.285  50.011  48.503  1.00  0.00    -0.329 OA
BRANCH   9  10
HETATM   10  C   UNL     1      20.845  51.156  49.245  1.00  0.00     0.130 C 
HETATM   11  C   UNL     1      19.906  51.946  48.321  1.00  0.00     0.034 C 
HETATM   12  C   UNL     1      18.623  51.175  47.998  1.00  0.00     0.035 C 
HETATM   13  C   UNL     1      17.876  50.698  49.248  1.00  0.00     0.186 C 
HETATM   14  C   UNL     1      18.815  49.936  50.190  1.00  0.00     0.035 C 
HETATM   15  C   UNL     1      20.098  50.710  50.512  1.00  0.00     0.034 C 
BRANCH  13  16
HETATM   16  N   UNL     1      17.295  51.863  50.001  1.00  0.00    -0.067 N 
HETATM   17  H   UNL     1      18.014  52.345  50.556  1.00  0.00     0.278 HD
HETATM   18  H   UNL     1      16.620  51.513  50.696  1.00  0.00     0.278 HD
BRANCH  16  19
HETATM   19  C   UNL     1      16.577  52.899  49.190  1.00  0.00     0.280 C 
BRANCH  19  20
HETATM   20  C   UNL     1      15.419  53.450  49.938  1.00  0.00     0.027 A 
HETATM   21  S   UNL     1      15.234  55.144  50.163  1.00  0.00    -0.077 SA
HETATM   22  C   UNL     1      13.786  54.863  51.047  1.00  0.00     0.071 A 
HETATM   23  C   UNL     1      12.999  55.998  51.605  1.00  0.00     0.078 C 
HETATM   24  N   UNL     1      13.453  53.598  51.173  1.00  0.00    -0.258 NA
HETATM   25  C   UNL     1      14.363  52.791  50.529  1.00  0.00     0.133 A 
ENDBRANCH  19  20
ENDBRANCH  16  19
ENDBRANCH  13  16
ENDBRANCH   9  10
ENDBRANCH   1   9
TORSDOF 5
ENDMDL
MODEL 3
REMARK VINA RESULT:      -7.2      1.215      1.681
REMARK  5 active torsions:
REMARK  status: ('A' for Active; 'I' for Inactive)
REMARK    1  A    between atoms: C_4  and  C_5 
REMARK    2  A    between atoms: C_5  and  N_6 
REMARK    3  A    between atoms: N_6  and  C_9 
REMARK    4  A    between atoms: C_12  and  O_13 
REMARK    5  A    between atoms: O_13  and  C_14 
ROOT
HETATM    1  C   UNL     1      27.695  42.929  52.666  1.00  0.00     0.164 A 
HETATM    2  N   UNL     1      27.326  43.499  53.832  1.00  0.00    -0.236 NA
HETATM    3  C   UNL     1      28.315  43.743  54.728  1.00  0.00     0.142 A 
HETATM    4  C   UNL     1      29.650  43.434  54.512  1.00  0.00     0.062 A 
HETATM    5  C   UNL     1      30.634  43.727  55.506  1.00  0.00     0.101 C 
HETATM    6  N   UNL     1      31.426  43.966  56.318  1.00  0.00    -0.191 NA
HETATM    7  C   UNL     1      29.995  42.833  53.301  1.00  0.00     0.028 A 
HETATM    8  C   UNL     1      28.998  42.570  52.362  1.00  0.00     0.059 A 
ENDROOT
BRANCH   1   9
HETATM    9  O   UNL     1      26.736  42.639  51.715  1.00  0.00    -0.329 OA
BRANCH   9  10
HETATM   10  C   UNL     1      26.860  43.391  50.501  1.00  0.00     0.130 C 
HETATM   11  C   UNL     1      25.815  42.829  49.526  1.00  0.00     0.034 C 
HETATM   12  C   UNL     1      24.380  43.084  49.998  1.00  0.00     0.035 C 
HETATM   13  C   UNL     1      24.100  44.560  50.299  1.00  0.00     0.186 C 
HETATM   14  C   UNL     1      25.157  45.137  51.247  1.00  0.00     0.035 C 
HETATM   15  C   UNL     1      26.591  44.880  50.772  1.00  0.00     0.034 C 
BRANCH  13  16
HETATM   16  N   UNL     1      24.105  45.375  49.034  1.00  0.00    -0.067 N 
HETATM   17  H   UNL     1      24.481  44.835  48.244  1.00  0.00     0.278 HD
HETATM   18  H   UNL     1      24.755  46.165  49.145  1.00  0.00     0.278 HD
BRANCH  16  19
HETATM   19  C   UNL     1      22.793  45.957  48.603  1.00  0.00     0.280 C 
BRANCH  19  20
HETATM   20  C   UNL     1      22.751  47.419  48.860  1.00  0.00     0.027 A 
HETATM   21  S   UNL     1      21.381  48.357  48.416  1.00  0.00    -0.077 SA
HETATM   22  C   UNL     1      22.157  49.767  49.022  1.00  0.00     0.071 A 
HETATM   23  C   UNL     1      21.483  51.095  48.967  1.00  0.00     0.078 C 
HETATM   24  N   UNL     1      23.355  49.565  49.523  1.00  0.00    -0.258 NA
HETATM   25  C   UNL     1      23.691  48.233  49.453  1.00  0.00     0.133 A 
ENDBRANCH  19  20
ENDBRANCH  16  19
ENDBRANCH  13  16
ENDBRANCH   9  10
ENDBRANCH   1   9
TORSDOF 5
ENDMDL
MODEL 4
REMARK VINA RESULT:      -7.2      2.302      2.562
REMARK  5 active torsions:
REMARK  status: ('A' for Active; 'I' for Inactive)
REMARK    1  A    between atoms: C_4  and  C_5 
REMARK    2  A    between atoms: C_5  and  N_6 
REMARK    3  A    between atoms: N_6  and  C_9 
REMARK    4  A    between atoms: C_12  and  O_13 
REMARK    5  A    between atoms: O_13  and  C_14 
ROOT
HETATM    1  C   UNL     1      28.557  44.305  53.588  1.00  0.00     0.164 A 
HETATM    2  N   UNL     1      28.629  45.168  54.622  1.00  0.00    -0.236 NA
HETATM    3  C   UNL     1      29.547  44.892  55.582  1.00  0.00     0.142 A 
HETATM    4  C   UNL     1      30.387  43.788  55.555  1.00  0.00     0.062 A 
HETATM    5  C   UNL     1      31.332  43.568  56.604  1.00  0.00     0.101 C 
HETATM    6  N   UNL     1      32.095  43.396  57.460  1.00  0.00    -0.191 NA
HETATM    7  C   UNL     1      30.277  42.908  54.478  1.00  0.00     0.028 A 
HETATM    8  C   UNL     1      29.341  43.167  53.478  1.00  0.00     0.059 A 
ENDROOT
BRANCH   1   9
HETATM    9  O   UNL     1      27.633  44.519  52.584  1.00  0.00    -0.329 OA
BRANCH   9  10
HETATM   10  C   UNL     1      26.376  43.860  52.787  1.00  0.00     0.130 C 
HETATM   11  C   UNL     1      25.340  44.962  53.057  1.00  0.00     0.034 C 
HETATM   12  C   UNL     1      25.116  45.862  51.839  1.00  0.00     0.035 C 
HETATM   13  C   UNL     1      24.755  45.081  50.571  1.00  0.00     0.186 C 
HETATM   14  C   UNL     1      25.767  43.959  50.312  1.00  0.00     0.035 C 
HETATM   15  C   UNL     1      25.990  43.060  51.534  1.00  0.00     0.034 C 
BRANCH  13  16
HETATM   16  N   UNL     1      23.389  44.464  50.692  1.00  0.00    -0.067 N 
HETATM   17  H   UNL     1      22.658  45.185  50.749  1.00  0.00     0.278 HD
HETATM   18  H   UNL     1      23.326  43.956  51.585  1.00  0.00     0.278 HD
BRANCH  16  19
HETATM   19  C   UNL     1      22.989  43.497  49.619  1.00  0.00     0.280 C 
BRANCH  19  20
HETATM   20  C   UNL     1      22.565  44.213  48.390  1.00  0.00     0.027 A 
HETATM   21  S   UNL     1      21.233  45.300  48.412  1.00  0.00    -0.077 SA
HETATM   22  C   UNL     1      21.458  45.603  46.735  1.00  0.00     0.071 A 
HETATM   23  C   UNL     1      20.571  46.550  46.003  1.00  0.00     0.078 C 
HETATM   24  N   UNL     1      22.455  44.945  46.184  1.00  0.00    -0.258 NA
HETATM   25  C   UNL     1      23.100  44.170  47.121  1.00  0.00     0.133 A 
ENDBRANCH  19  20
ENDBRANCH  16  19
ENDBRANCH  13  16
ENDBRANCH   9  10
ENDBRANCH   1   9
TORSDOF 5
ENDMDL
MODEL 5
REMARK VINA RESULT:      -7.0      2.855      4.309
REMARK  5 active torsions:
REMARK  status: ('A' for Active; 'I' for Inactive)
REMARK    1  A    between atoms: C_4  and  C_5 
REMARK    2  A    between atoms: C_5  and  N_6 
REMARK    3  A    between atoms: N_6  and  C_9 
REMARK    4  A    between atoms: C_12  and  O_13 
REMARK    5  A    between atoms: O_13  and  C_14 
ROOT
HETATM    1  C   UNL     1      28.321  44.628  53.884  1.00  0.00     0.164 A 
HETATM    2  N   UNL     1      28.679  45.521  54.830  1.00  0.00    -0.236 NA
HETATM    3  C   UNL     1      29.648  45.132  55.696  1.00  0.00     0.142 A 
HETATM    4  C   UNL     1      30.265  43.890  55.661  1.00  0.00     0.062 A 
HETATM    5  C   UNL     1      31.281  43.557  56.608  1.00  0.00     0.101 C 
HETATM    6  N   UNL     1      32.105  43.294  57.381  1.00  0.00    -0.191 NA
HETATM    7  C   UNL     1      29.861  42.986  54.679  1.00  0.00     0.028 A 
HETATM    8  C   UNL     1      28.866  43.359  53.776  1.00  0.00     0.059 A 
ENDROOT
BRANCH   1   9
HETATM    9  O   UNL     1      27.329  44.954  52.979  1.00  0.00    -0.329 OA
BRANCH   9  10
HETATM   10  C   UNL     1      26.957  43.886  52.098  1.00  0.00     0.130 C 
HETATM   11  C   UNL     1      25.427  43.930  51.973  1.00  0.00     0.034 C 
HETATM   12  C   UNL     1      24.937  45.201  51.273  1.00  0.00     0.035 C 
HETATM   13  C   UNL     1      25.598  45.430  49.909  1.00  0.00     0.186 C 
HETATM   14  C   UNL     1      27.124  45.356  50.021  1.00  0.00     0.035 C 
HETATM   15  C   UNL     1      27.612  44.083  50.723  1.00  0.00     0.034 C 
BRANCH  13  16
HETATM   16  N   UNL     1      25.146  44.396  48.915  1.00  0.00    -0.067 N 
HETATM   17  H   UNL     1      25.385  43.447  49.229  1.00  0.00     0.278 HD
HETATM   18  H   UNL     1      25.670  44.521  48.037  1.00  0.00     0.278 HD
BRANCH  16  19
HETATM   19  C   UNL     1      23.693  44.403  48.550  1.00  0.00     0.280 C 
BRANCH  19  20
HETATM   20  C   UNL     1      23.343  43.207  47.743  1.00  0.00     0.027 A 
HETATM   21  S   UNL     1      23.076  41.681  48.489  1.00  0.00    -0.077 SA
HETATM   22  C   UNL     1      22.775  40.985  46.946  1.00  0.00     0.071 A 
HETATM   23  C   UNL     1      22.437  39.540  46.811  1.00  0.00     0.078 C 
HETATM   24  N   UNL     1      22.864  41.822  45.936  1.00  0.00    -0.258 NA
HETATM   25  C   UNL     1      23.166  43.088  46.382  1.00  0.00     0.133 A 
ENDBRANCH  19  20
ENDBRANCH  16  19
ENDBRANCH  13  16
ENDBRANCH   9  10
ENDBRANCH   1   9
TORSDOF 5
ENDMDL
MODEL 6
REMARK VINA RESULT:      -6.9      3.693      5.731
REMARK  5 active torsions:
REMARK  status: ('A' for Active; 'I' for Inactive)
REMARK    1  A    between atoms: C_4  and  C_5 
REMARK    2  A    between atoms: C_5  and  N_6 
REMARK    3  A    between atoms: N_6  and  C_9 
REMARK    4  A    between atoms: C_12  and  O_13 
REMARK    5  A    between atoms: O_13  and  C_14 
ROOT
HETATM    1  C   UNL     1      28.473  44.270  53.807  1.00  0.00     0.164 A 
HETATM    2  N   UNL     1      28.581  45.237  54.741  1.00  0.00    -0.236 NA
HETATM    3  C   UNL     1      29.531  45.060  55.693  1.00  0.00     0.142 A 
HETATM    4  C   UNL     1      30.370  43.955  55.754  1.00  0.00     0.062 A 
HETATM    5  C   UNL     1      31.350  43.844  56.787  1.00  0.00     0.101 C 
HETATM    6  N   UNL     1      32.142  43.760  57.630  1.00  0.00    -0.191 NA
HETATM    7  C   UNL     1      30.222  42.968  54.780  1.00  0.00     0.028 A 
HETATM    8  C   UNL     1      29.252  43.124  53.791  1.00  0.00     0.059 A 
ENDROOT
BRANCH   1   9
HETATM    9  O   UNL     1      27.515  44.380  52.819  1.00  0.00    -0.329 OA
BRANCH   9  10
HETATM   10  C   UNL     1      27.893  43.804  51.561  1.00  0.00     0.130 C 
HETATM   11  C   UNL     1      27.069  42.518  51.400  1.00  0.00     0.034 C 
HETATM   12  C   UNL     1      25.570  42.799  51.264  1.00  0.00     0.035 C 
HETATM   13  C   UNL     1      25.243  43.794  50.146  1.00  0.00     0.186 C 
HETATM   14  C   UNL     1      26.084  45.068  50.282  1.00  0.00     0.035 C 
HETATM   15  C   UNL     1      27.584  44.783  50.417  1.00  0.00     0.034 C 
BRANCH  13  16
HETATM   16  N   UNL     1      25.516  43.190  48.795  1.00  0.00    -0.067 N 
HETATM   17  H   UNL     1      26.506  43.288  48.536  1.00  0.00     0.278 HD
HETATM   18  H   UNL     1      25.003  43.723  48.078  1.00  0.00     0.278 HD
BRANCH  16  19
HETATM   19  C   UNL     1      25.138  41.752  48.612  1.00  0.00     0.280 C 
BRANCH  19  20
HETATM   20  C   UNL     1      26.341  40.912  48.382  1.00  0.00     0.027 A 
HETATM   21  S   UNL     1      26.538  39.407  49.188  1.00  0.00    -0.077 SA
HETATM   22  C   UNL     1      28.049  39.187  48.397  1.00  0.00     0.071 A 
HETATM   23  C   UNL     1      28.869  37.967  48.640  1.00  0.00     0.078 C 
HETATM   24  N   UNL     1      28.394  40.162  47.585  1.00  0.00    -0.258 NA
HETATM   25  C   UNL     1      27.420  41.134  47.555  1.00  0.00     0.133 A 
ENDBRANCH  19  20
ENDBRANCH  16  19
ENDBRANCH  13  16
ENDBRANCH   9  10
ENDBRANCH   1   9
TORSDOF 5
ENDMDL
MODEL 7
REMARK VINA RESULT:      -6.4      5.268      8.708
REMARK  5 active torsions:
REMARK  status: ('A' for Active; 'I' for Inactive)
REMARK    1  A    between atoms: C_4  and  C_5 
REMARK    2  A    between atoms: C_5  and  N_6 
REMARK    3  A    between atoms: N_6  and  C_9 
REMARK    4  A    between atoms: C_12  and  O_13 
REMARK    5  A    between atoms: O_13  and  C_14 
ROOT
HETATM    1  C   UNL     1      27.408  39.544  49.768  1.00  0.00     0.164 A 
HETATM    2  N   UNL     1      26.424  39.333  48.870  1.00  0.00    -0.236 NA
HETATM    3  C   UNL     1      26.688  38.447  47.876  1.00  0.00     0.142 A 
HETATM    4  C   UNL     1      27.893  37.773  47.740  1.00  0.00     0.062 A 
HETATM    5  C   UNL     1      28.092  36.852  46.666  1.00  0.00     0.101 C 
HETATM    6  N   UNL     1      28.247  36.107  45.791  1.00  0.00    -0.191 NA
HETATM    7  C   UNL     1      28.893  38.025  48.678  1.00  0.00     0.028 A 
HETATM    8  C   UNL     1      28.650  38.932  49.709  1.00  0.00     0.059 A 
ENDROOT
BRANCH   1   9
HETATM    9  O   UNL     1      27.211  40.445  50.796  1.00  0.00    -0.329 OA
BRANCH   9  10
HETATM   10  C   UNL     1      28.226  41.452  50.903  1.00  0.00     0.130 C 
HETATM   11  C   UNL     1      27.551  42.793  50.576  1.00  0.00     0.034 C 
HETATM   12  C   UNL     1      26.501  43.186  51.620  1.00  0.00     0.035 C 
HETATM   13  C   UNL     1      27.047  43.190  53.052  1.00  0.00     0.186 C 
HETATM   14  C   UNL     1      27.750  41.866  53.373  1.00  0.00     0.035 C 
HETATM   15  C   UNL     1      28.800  41.476  52.327  1.00  0.00     0.034 C 
BRANCH  13  16
HETATM   16  N   UNL     1      28.035  44.307  53.245  1.00  0.00    -0.067 N 
HETATM   17  H   UNL     1      28.083  44.911  52.415  1.00  0.00     0.278 HD
HETATM   18  H   UNL     1      28.981  43.910  53.335  1.00  0.00     0.278 HD
BRANCH  16  19
HETATM   19  C   UNL     1      27.827  45.191  54.437  1.00  0.00     0.280 C 
BRANCH  19  20
HETATM   20  C   UNL     1      28.945  45.052  55.403  1.00  0.00     0.027 A 
HETATM   21  S   UNL     1      30.061  43.749  55.286  1.00  0.00    -0.077 SA
HETATM   22  C   UNL     1      30.892  44.342  56.669  1.00  0.00     0.071 A 
HETATM   23  C   UNL     1      32.096  43.641  57.197  1.00  0.00     0.078 C 
HETATM   24  N   UNL     1      30.383  45.436  57.192  1.00  0.00    -0.258 NA
HETATM   25  C   UNL     1      29.291  45.856  56.468  1.00  0.00     0.133 A 
ENDBRANCH  19  20
ENDBRANCH  16  19
ENDBRANCH  13  16
ENDBRANCH   9  10
ENDBRANCH   1   9
TORSDOF 5
ENDMDL
MODEL 8
REMARK VINA RESULT:      -6.4      3.096      4.130
REMARK  5 active torsions:
REMARK  status: ('A' for Active; 'I' for Inactive)
REMARK    1  A    between atoms: C_4  and  C_5 
REMARK    2  A    between atoms: C_5  and  N_6 
REMARK    3  A    between atoms: N_6  and  C_9 
REMARK    4  A    between atoms: C_12  and  O_13 
REMARK    5  A    between atoms: O_13  and  C_14 
ROOT
HETATM    1  C   UNL     1      27.594  42.298  51.248  1.00  0.00     0.164 A 
HETATM    2  N   UNL     1      28.277  41.756  52.277  1.00  0.00    -0.236 NA
HETATM    3  C   UNL     1      28.848  40.545  52.057  1.00  0.00     0.142 A 
HETATM    4  C   UNL     1      28.757  39.852  50.859  1.00  0.00     0.062 A 
HETATM    5  C   UNL     1      29.391  38.581  50.705  1.00  0.00     0.101 C 
HETATM    6  N   UNL     1      29.907  37.549  50.588  1.00  0.00    -0.191 NA
HETATM    7  C   UNL     1      28.032  40.435  49.820  1.00  0.00     0.028 A 
HETATM    8  C   UNL     1      27.434  41.679  50.018  1.00  0.00     0.059 A 
ENDROOT
BRANCH   1   9
HETATM    9  O   UNL     1      26.975  43.522  51.409  1.00  0.00    -0.329 OA
BRANCH   9  10
HETATM   10  C   UNL     1      25.823  43.717  50.577  1.00  0.00     0.130 C 
HETATM   11  C   UNL     1      24.687  44.180  51.501  1.00  0.00     0.034 C 
HETATM   12  C   UNL     1      24.960  45.556  52.116  1.00  0.00     0.035 C 
HETATM   13  C   UNL     1      25.279  46.630  51.071  1.00  0.00     0.186 C 
HETATM   14  C   UNL     1      26.391  46.162  50.126  1.00  0.00     0.035 C 
HETATM   15  C   UNL     1      26.115  44.785  49.512  1.00  0.00     0.034 C 
BRANCH  13  16
HETATM   16  N   UNL     1      24.064  46.953  50.246  1.00  0.00    -0.067 N 
HETATM   17  H   UNL     1      23.242  47.119  50.841  1.00  0.00     0.278 HD
HETATM   18  H   UNL     1      23.814  46.131  49.678  1.00  0.00     0.278 HD
BRANCH  16  19
HETATM   19  C   UNL     1      24.180  48.109  49.299  1.00  0.00     0.280 C 
BRANCH  19  20
HETATM   20  C   UNL     1      22.874  48.795  49.137  1.00  0.00     0.027 A 
HETATM   21  S   UNL     1      22.773  50.511  49.099  1.00  0.00    -0.077 SA
HETATM   22  C   UNL     1      21.067  50.402  48.914  1.00  0.00     0.071 A 
HETATM   23  C   UNL     1      20.231  51.629  48.798  1.00  0.00     0.078 C 
HETATM   24  N   UNL     1      20.593  49.176  48.882  1.00  0.00    -0.258 NA
HETATM   25  C   UNL     1      21.613  48.259  48.987  1.00  0.00     0.133 A 
ENDBRANCH  19  20
ENDBRANCH  16  19
ENDBRANCH  13  16
ENDBRANCH   9  10
ENDBRANCH   1   9
TORSDOF 5
ENDMDL
MODEL 9
REMARK VINA RESULT:      -6.4      7.280     11.018
REMARK  5 active torsions:
REMARK  status: ('A' for Active; 'I' for Inactive)
REMARK    1  A    between atoms: C_4  and  C_5 
REMARK    2  A    between atoms: C_5  and  N_6 
REMARK    3  A    between atoms: N_6  and  C_9 
REMARK    4  A    between atoms: C_12  and  O_13 
REMARK    5  A    between atoms: O_13  and  C_14 
ROOT
HETATM    1  C   UNL     1      21.455  49.892  48.696  1.00  0.00     0.164 A 
HETATM    2  N   UNL     1      22.046  48.776  49.169  1.00  0.00    -0.236 NA
HETATM    3  C   UNL     1      23.399  48.722  49.084  1.00  0.00     0.142 A 
HETATM    4  C   UNL     1      24.182  49.730  48.541  1.00  0.00     0.062 A 
HETATM    5  C   UNL     1      25.604  49.599  48.491  1.00  0.00     0.101 C 
HETATM    6  N   UNL     1      26.757  49.485  48.454  1.00  0.00    -0.191 NA
HETATM    7  C   UNL     1      23.538  50.865  48.049  1.00  0.00     0.028 A 
HETATM    8  C   UNL     1      22.148  50.947  48.122  1.00  0.00     0.059 A 
ENDROOT
BRANCH   1   9
HETATM    9  O   UNL     1      20.079  50.006  48.737  1.00  0.00    -0.329 OA
BRANCH   9  10
HETATM   10  C   UNL     1      19.570  51.232  48.196  1.00  0.00     0.130 C 
HETATM   11  C   UNL     1      18.594  50.846  47.074  1.00  0.00     0.034 C 
HETATM   12  C   UNL     1      17.359  50.111  47.604  1.00  0.00     0.035 C 
HETATM   13  C   UNL     1      16.632  50.879  48.713  1.00  0.00     0.186 C 
HETATM   14  C   UNL     1      17.606  51.294  49.821  1.00  0.00     0.035 C 
HETATM   15  C   UNL     1      18.841  52.029  49.288  1.00  0.00     0.034 C 
BRANCH  13  16
HETATM   16  N   UNL     1      15.980  52.120  48.168  1.00  0.00    -0.067 N 
HETATM   17  H   UNL     1      15.283  51.889  47.449  1.00  0.00     0.278 HD
HETATM   18  H   UNL     1      16.688  52.683  47.675  1.00  0.00     0.278 HD
BRANCH  16  19
HETATM   19  C   UNL     1      15.325  53.029  49.162  1.00  0.00     0.280 C 
BRANCH  19  20
HETATM   20  C   UNL     1      14.442  54.010  48.483  1.00  0.00     0.027 A 
HETATM   21  S   UNL     1      13.658  55.258  49.368  1.00  0.00    -0.077 SA
HETATM   22  C   UNL     1      12.930  55.823  47.916  1.00  0.00     0.071 A 
HETATM   23  C   UNL     1      12.025  57.007  47.925  1.00  0.00     0.078 C 
HETATM   24  N   UNL     1      13.242  55.137  46.839  1.00  0.00    -0.258 NA
HETATM   25  C   UNL     1      14.115  54.120  47.149  1.00  0.00     0.133 A 
ENDBRANCH  19  20
ENDBRANCH  16  19
ENDBRANCH  13  16
ENDBRANCH   9  10
ENDBRANCH   1   9
TORSDOF 5
ENDMDL
MODEL 10
REMARK VINA RESULT:      -6.3      4.353      4.891
REMARK  5 active torsions:
REMARK  status: ('A' for Active; 'I' for Inactive)
REMARK    1  A    between atoms: C_4  and  C_5 
REMARK    2  A    between atoms: C_5  and  N_6 
REMARK    3  A    between atoms: N_6  and  C_9 
REMARK    4  A    between atoms: C_12  and  O_13 
REMARK    5  A    between atoms: O_13  and  C_14 
ROOT
HETATM    1  C   UNL     1      28.794  43.249  52.638  1.00  0.00     0.164 A 
HETATM    2  N   UNL     1      28.154  44.237  53.297  1.00  0.00    -0.236 NA
HETATM    3  C   UNL     1      28.697  44.634  54.475  1.00  0.00     0.142 A 
HETATM    4  C   UNL     1      29.844  44.079  55.024  1.00  0.00     0.062 A 
HETATM    5  C   UNL     1      30.355  44.556  56.270  1.00  0.00     0.101 C 
HETATM    6  N   UNL     1      30.764  44.947  57.282  1.00  0.00    -0.191 NA
HETATM    7  C   UNL     1      30.473  43.051  54.324  1.00  0.00     0.028 A 
HETATM    8  C   UNL     1      29.936  42.622  53.111  1.00  0.00     0.059 A 
ENDROOT
BRANCH   1   9
HETATM    9  O   UNL     1      28.286  42.786  51.440  1.00  0.00    -0.329 OA
BRANCH   9  10
HETATM   10  C   UNL     1      27.320  41.735  51.573  1.00  0.00     0.130 C 
HETATM   11  C   UNL     1      26.019  42.249  50.940  1.00  0.00     0.034 C 
HETATM   12  C   UNL     1      26.153  42.466  49.430  1.00  0.00     0.035 C 
HETATM   13  C   UNL     1      26.663  41.227  48.686  1.00  0.00     0.186 C 
HETATM   14  C   UNL     1      27.944  40.690  49.333  1.00  0.00     0.035 C 
HETATM   15  C   UNL     1      27.808  40.474  50.844  1.00  0.00     0.034 C 
BRANCH  13  16
HETATM   16  N   UNL     1      25.632  40.132  48.700  1.00  0.00    -0.067 N 
HETATM   17  H   UNL     1      24.905  40.313  49.403  1.00  0.00     0.278 HD
HETATM   18  H   UNL     1      26.077  39.254  49.002  1.00  0.00     0.278 HD
BRANCH  16  19
HETATM   19  C   UNL     1      24.945  39.838  47.401  1.00  0.00     0.280 C 
BRANCH  19  20
HETATM   20  C   UNL     1      23.742  40.691  47.232  1.00  0.00     0.027 A 
HETATM   21  S   UNL     1      23.127  41.058  45.669  1.00  0.00    -0.077 SA
HETATM   22  C   UNL     1      21.879  41.998  46.385  1.00  0.00     0.071 A 
HETATM   23  C   UNL     1      20.861  42.687  45.544  1.00  0.00     0.078 C 
HETATM   24  N   UNL     1      21.907  42.043  47.699  1.00  0.00    -0.258 NA
HETATM   25  C   UNL     1      22.949  41.288  48.187  1.00  0.00     0.133 A 
ENDBRANCH  19  20
ENDBRANCH  16  19
ENDBRANCH  13  16
ENDBRANCH   9  10
ENDBRANCH   1   9
TORSDOF 5
ENDMDL
