MODEL 1
REMARK VINA RESULT:      -9.5      0.000      0.000
REMARK  6 active torsions:
REMARK  status: ('A' for Active; 'I' for Inactive)
REMARK    1  A    between atoms: O_2  and  C_3 
REMARK    2  A    between atoms: C_6  and  C_7 
REMARK    3  A    between atoms: C_13  and  C_14 
REMARK       I    between atoms: C_14  and  N_15 
REMARK    4  A    between atoms: N_15  and  C_16 
REMARK    5  A    between atoms: C_18  and  O_19 
REMARK    6  A    between atoms: C_24  and  C_25 
ROOT
HETATM    1  C   UNL     1      26.996  43.714  53.100  1.00  0.00     0.118 C 
HETATM    2  N   UNL     1      26.464  44.854  52.337  1.00  0.00    -0.365 N 
HETATM    3  C   UNL     1      25.752  44.594  51.201  1.00  0.00     0.138 C 
HETATM    4  N   UNL     1      25.756  43.336  50.635  1.00  0.00    -0.240 N 
HETATM    5  N   UNL     1      24.863  43.192  49.645  1.00  0.00    -0.181 NA
HETATM    6  C   UNL     1      24.400  44.430  49.466  1.00  0.00     0.160 C 
HETATM    7  C   UNL     1      24.938  45.364  50.386  1.00  0.00     0.096 C 
HETATM    8  C   UNL     1      26.475  42.192  51.165  1.00  0.00     0.221 C 
HETATM    9  C   UNL     1      27.563  42.661  52.142  1.00  0.00     0.066 C 
HETATM   10  H   UNL     1      26.106  45.572  52.969  1.00  0.00     0.161 HD
ENDROOT
BRANCH   7  11
HETATM   11  C   UNL     1      24.627  46.785  50.412  1.00  0.00     0.261 C 
HETATM   12  N   UNL     1      23.902  47.227  49.322  1.00  0.00    -0.323 N 
HETATM   13  H   UNL     1      23.640  46.514  48.651  1.00  0.00     0.169 HD
HETATM   14  O   UNL     1      24.987  47.475  51.360  1.00  0.00    -0.267 OA
BRANCH  12  15
HETATM   15  C   UNL     1      23.442  48.537  49.068  1.00  0.00     0.037 A 
HETATM   16  C   UNL     1      22.196  49.020  49.481  1.00  0.00     0.066 A 
HETATM   17  C   UNL     1      21.822  50.328  49.176  1.00  0.00     0.067 A 
HETATM   18  C   UNL     1      22.672  51.173  48.476  1.00  0.00     0.036 A 
HETATM   19  C   UNL     1      23.915  50.702  48.063  1.00  0.00     0.005 A 
HETATM   20  C   UNL     1      24.295  49.387  48.351  1.00  0.00     0.029 A 
BRANCH  17  21
HETATM   21  O   UNL     1      20.604  50.820  49.549  1.00  0.00    -0.361 OA
HETATM   22  H   UNL     1      20.630  51.789  49.479  1.00  0.00     0.217 HD
ENDBRANCH  17  21
ENDBRANCH  12  15
ENDBRANCH   7  11
BRANCH   1  23
HETATM   23  C   UNL     1      28.073  44.180  54.061  1.00  0.00    -0.035 A 
HETATM   24  C   UNL     1      27.888  45.354  54.808  1.00  0.00     0.012 A 
HETATM   25  C   UNL     1      28.826  45.751  55.770  1.00  0.00     0.037 A 
HETATM   26  C   UNL     1      29.960  44.975  56.005  1.00  0.00     0.068 A 
HETATM   27  C   UNL     1      30.165  43.821  55.249  1.00  0.00     0.037 A 
HETATM   28  C   UNL     1      29.231  43.422  54.289  1.00  0.00     0.012 A 
BRANCH  26  29
HETATM   29  O   UNL     1      30.932  45.237  56.930  1.00  0.00    -0.356 OA
HETATM   30  C   UNL     1      30.493  45.652  58.218  1.00  0.00     0.210 C 
ENDBRANCH  26  29
ENDBRANCH   1  23
BRANCH   8  31
HETATM   31  C   UNL     1      27.104  41.358  50.070  1.00  0.00     0.409 C 
HETATM   32  F   UNL     1      27.495  42.104  49.012  1.00  0.00    -0.169 F 
HETATM   33  F   UNL     1      28.225  40.753  50.552  1.00  0.00    -0.169 F 
HETATM   34  F   UNL     1      26.309  40.365  49.622  1.00  0.00    -0.169 F 
ENDBRANCH   8  31
TORSDOF 6
ENDMDL
MODEL 2
REMARK VINA RESULT:      -9.0      3.620      8.597
REMARK  6 active torsions:
REMARK  status: ('A' for Active; 'I' for Inactive)
REMARK    1  A    between atoms: O_2  and  C_3 
REMARK    2  A    between atoms: C_6  and  C_7 
REMARK    3  A    between atoms: C_13  and  C_14 
REMARK       I    between atoms: C_14  and  N_15 
REMARK    4  A    between atoms: N_15  and  C_16 
REMARK    5  A    between atoms: C_18  and  O_19 
REMARK    6  A    between atoms: C_24  and  C_25 
ROOT
HETATM    1  C   UNL     1      24.492  43.963  50.790  1.00  0.00     0.118 C 
HETATM    2  N   UNL     1      25.504  44.046  51.856  1.00  0.00    -0.365 N 
HETATM    3  C   UNL     1      25.716  45.255  52.453  1.00  0.00     0.138 C 
HETATM    4  N   UNL     1      25.205  46.415  51.906  1.00  0.00    -0.240 N 
HETATM    5  N   UNL     1      25.332  47.484  52.704  1.00  0.00    -0.181 NA
HETATM    6  C   UNL     1      26.086  47.032  53.707  1.00  0.00     0.160 C 
HETATM    7  C   UNL     1      26.390  45.652  53.598  1.00  0.00     0.096 C 
HETATM    8  C   UNL     1      24.411  46.476  50.693  1.00  0.00     0.221 C 
HETATM    9  C   UNL     1      24.594  45.189  49.877  1.00  0.00     0.066 C 
HETATM   10  H   UNL     1      25.460  43.220  52.457  1.00  0.00     0.161 HD
ENDROOT
BRANCH   7  11
HETATM   11  C   UNL     1      27.208  44.899  54.535  1.00  0.00     0.261 C 
HETATM   12  N   UNL     1      28.440  45.468  54.796  1.00  0.00    -0.323 N 
HETATM   13  H   UNL     1      28.621  46.352  54.337  1.00  0.00     0.169 HD
HETATM   14  O   UNL     1      26.775  43.866  55.036  1.00  0.00    -0.267 OA
BRANCH  12  15
HETATM   15  C   UNL     1      29.444  44.985  55.663  1.00  0.00     0.037 A 
HETATM   16  C   UNL     1      29.757  45.569  56.895  1.00  0.00     0.066 A 
HETATM   17  C   UNL     1      30.772  45.029  57.683  1.00  0.00     0.067 A 
HETATM   18  C   UNL     1      31.478  43.906  57.273  1.00  0.00     0.036 A 
HETATM   19  C   UNL     1      31.172  43.317  56.050  1.00  0.00     0.005 A 
HETATM   20  C   UNL     1      30.165  43.859  55.245  1.00  0.00     0.029 A 
BRANCH  17  21
HETATM   21  O   UNL     1      31.112  45.590  58.880  1.00  0.00    -0.361 OA
HETATM   22  H   UNL     1      30.301  45.906  59.312  1.00  0.00     0.217 HD
ENDBRANCH  17  21
ENDBRANCH  12  15
ENDBRANCH   7  11
BRANCH   1  23
HETATM   23  C   UNL     1      24.679  42.692  49.985  1.00  0.00    -0.035 A 
HETATM   24  C   UNL     1      23.811  42.399  48.922  1.00  0.00     0.012 A 
HETATM   25  C   UNL     1      24.023  41.281  48.106  1.00  0.00     0.037 A 
HETATM   26  C   UNL     1      25.112  40.441  48.336  1.00  0.00     0.068 A 
HETATM   27  C   UNL     1      25.966  40.710  49.407  1.00  0.00     0.037 A 
HETATM   28  C   UNL     1      25.757  41.826  50.222  1.00  0.00     0.012 A 
BRANCH  26  29
HETATM   29  O   UNL     1      25.444  39.339  47.599  1.00  0.00    -0.356 OA
HETATM   30  C   UNL     1      26.478  38.511  48.117  1.00  0.00     0.210 C 
ENDBRANCH  26  29
ENDBRANCH   1  23
BRANCH   8  31
HETATM   31  C   UNL     1      24.769  47.673  49.838  1.00  0.00     0.409 C 
HETATM   32  F   UNL     1      26.093  47.946  49.861  1.00  0.00    -0.169 F 
HETATM   33  F   UNL     1      24.450  47.411  48.540  1.00  0.00    -0.169 F 
HETATM   34  F   UNL     1      24.096  48.794  50.167  1.00  0.00    -0.169 F 
ENDBRANCH   8  31
TORSDOF 6
ENDMDL
MODEL 3
REMARK VINA RESULT:      -8.9      3.845      8.688
REMARK  6 active torsions:
REMARK  status: ('A' for Active; 'I' for Inactive)
REMARK    1  A    between atoms: O_2  and  C_3 
REMARK    2  A    between atoms: C_6  and  C_7 
REMARK    3  A    between atoms: C_13  and  C_14 
REMARK       I    between atoms: C_14  and  N_15 
REMARK    4  A    between atoms: N_15  and  C_16 
REMARK    5  A    between atoms: C_18  and  O_19 
REMARK    6  A    between atoms: C_24  and  C_25 
ROOT
HETATM    1  C   UNL     1      25.755  46.155  51.865  1.00  0.00     0.118 C 
HETATM    2  N   UNL     1      26.337  44.945  51.260  1.00  0.00    -0.365 N 
HETATM    3  C   UNL     1      26.926  44.030  52.084  1.00  0.00     0.138 C 
HETATM    4  N   UNL     1      27.212  44.340  53.398  1.00  0.00    -0.240 N 
HETATM    5  N   UNL     1      27.606  43.284  54.123  1.00  0.00    -0.181 NA
HETATM    6  C   UNL     1      27.734  42.317  53.213  1.00  0.00     0.160 C 
HETATM    7  C   UNL     1      27.355  42.724  51.910  1.00  0.00     0.096 C 
HETATM    8  C   UNL     1      26.921  45.614  54.029  1.00  0.00     0.221 C 
HETATM    9  C   UNL     1      26.685  46.690  52.959  1.00  0.00     0.066 C 
HETATM   10  H   UNL     1      25.735  44.595  50.512  1.00  0.00     0.161 HD
ENDROOT
BRANCH   7  11
HETATM   11  C   UNL     1      27.410  41.885  50.723  1.00  0.00     0.261 C 
HETATM   12  N   UNL     1      27.628  40.545  50.986  1.00  0.00    -0.323 N 
HETATM   13  H   UNL     1      27.691  40.295  51.965  1.00  0.00     0.169 HD
HETATM   14  O   UNL     1      27.246  42.379  49.613  1.00  0.00    -0.267 OA
BRANCH  12  15
HETATM   15  C   UNL     1      27.719  39.490  50.053  1.00  0.00     0.037 A 
HETATM   16  C   UNL     1      26.620  38.754  49.598  1.00  0.00     0.066 A 
HETATM   17  C   UNL     1      26.807  37.720  48.681  1.00  0.00     0.067 A 
HETATM   18  C   UNL     1      28.070  37.410  48.197  1.00  0.00     0.036 A 
HETATM   19  C   UNL     1      29.170  38.138  48.642  1.00  0.00     0.005 A 
HETATM   20  C   UNL     1      28.996  39.168  49.573  1.00  0.00     0.029 A 
BRANCH  17  21
HETATM   21  O   UNL     1      25.755  36.973  48.235  1.00  0.00    -0.361 OA
HETATM   22  H   UNL     1      25.166  36.793  48.987  1.00  0.00     0.217 HD
ENDBRANCH  17  21
ENDBRANCH  12  15
ENDBRANCH   7  11
BRANCH   1  23
HETATM   23  C   UNL     1      25.527  47.216  50.806  1.00  0.00    -0.035 A 
HETATM   24  C   UNL     1      26.619  47.886  50.235  1.00  0.00     0.012 A 
HETATM   25  C   UNL     1      26.436  48.799  49.189  1.00  0.00     0.037 A 
HETATM   26  C   UNL     1      25.158  49.052  48.693  1.00  0.00     0.068 A 
HETATM   27  C   UNL     1      24.064  48.409  49.273  1.00  0.00     0.037 A 
HETATM   28  C   UNL     1      24.243  47.497  50.316  1.00  0.00     0.012 A 
BRANCH  26  29
HETATM   29  O   UNL     1      24.851  49.896  47.662  1.00  0.00    -0.356 OA
HETATM   30  C   UNL     1      23.557  50.488  47.686  1.00  0.00     0.210 C 
ENDBRANCH  26  29
ENDBRANCH   1  23
BRANCH   8  31
HETATM   31  C   UNL     1      28.034  46.057  54.955  1.00  0.00     0.409 C 
HETATM   32  F   UNL     1      29.242  45.586  54.573  1.00  0.00    -0.169 F 
HETATM   33  F   UNL     1      28.124  47.416  54.933  1.00  0.00    -0.169 F 
HETATM   34  F   UNL     1      27.831  45.719  56.244  1.00  0.00    -0.169 F 
ENDBRANCH   8  31
TORSDOF 6
ENDMDL
MODEL 4
REMARK VINA RESULT:      -8.8      2.015      2.798
REMARK  6 active torsions:
REMARK  status: ('A' for Active; 'I' for Inactive)
REMARK    1  A    between atoms: O_2  and  C_3 
REMARK    2  A    between atoms: C_6  and  C_7 
REMARK    3  A    between atoms: C_13  and  C_14 
REMARK       I    between atoms: C_14  and  N_15 
REMARK    4  A    between atoms: N_15  and  C_16 
REMARK    5  A    between atoms: C_18  and  O_19 
REMARK    6  A    between atoms: C_24  and  C_25 
ROOT
HETATM    1  C   UNL     1      27.478  41.682  52.250  1.00  0.00     0.118 C 
HETATM    2  N   UNL     1      26.448  42.492  51.579  1.00  0.00    -0.365 N 
HETATM    3  C   UNL     1      25.840  41.974  50.472  1.00  0.00     0.138 C 
HETATM    4  N   UNL     1      26.350  40.858  49.840  1.00  0.00    -0.240 N 
HETATM    5  N   UNL     1      25.539  40.362  48.895  1.00  0.00    -0.181 NA
HETATM    6  C   UNL     1      24.572  41.275  48.808  1.00  0.00     0.160 C 
HETATM    7  C   UNL     1      24.714  42.329  49.746  1.00  0.00     0.096 C 
HETATM    8  C   UNL     1      27.532  40.134  50.268  1.00  0.00     0.221 C 
HETATM    9  C   UNL     1      28.375  41.008  51.207  1.00  0.00     0.066 C 
HETATM   10  H   UNL     1      25.860  42.965  52.268  1.00  0.00     0.161 HD
ENDROOT
BRANCH   7  11
HETATM   11  C   UNL     1      23.818  43.468  49.865  1.00  0.00     0.261 C 
HETATM   12  N   UNL     1      24.114  44.513  49.011  1.00  0.00    -0.323 N 
HETATM   13  H   UNL     1      24.891  44.358  48.381  1.00  0.00     0.169 HD
HETATM   14  O   UNL     1      22.884  43.435  50.659  1.00  0.00    -0.267 OA
BRANCH  12  15
HETATM   15  C   UNL     1      23.428  45.740  48.883  1.00  0.00     0.037 A 
HETATM   16  C   UNL     1      23.806  46.917  49.537  1.00  0.00     0.066 A 
HETATM   17  C   UNL     1      23.061  48.082  49.358  1.00  0.00     0.067 A 
HETATM   18  C   UNL     1      21.949  48.102  48.528  1.00  0.00     0.036 A 
HETATM   19  C   UNL     1      21.567  46.937  47.870  1.00  0.00     0.005 A 
HETATM   20  C   UNL     1      22.298  45.758  48.054  1.00  0.00     0.029 A 
BRANCH  17  21
HETATM   21  O   UNL     1      23.395  49.240  50.000  1.00  0.00    -0.361 OA
HETATM   22  H   UNL     1      23.621  49.908  49.330  1.00  0.00     0.217 HD
ENDBRANCH  17  21
ENDBRANCH  12  15
ENDBRANCH   7  11
BRANCH   1  23
HETATM   23  C   UNL     1      28.311  42.550  53.174  1.00  0.00    -0.035 A 
HETATM   24  C   UNL     1      27.702  43.575  53.916  1.00  0.00     0.012 A 
HETATM   25  C   UNL     1      28.434  44.324  54.845  1.00  0.00     0.037 A 
HETATM   26  C   UNL     1      29.786  44.056  55.053  1.00  0.00     0.068 A 
HETATM   27  C   UNL     1      30.406  43.057  54.301  1.00  0.00     0.037 A 
HETATM   28  C   UNL     1      29.678  42.307  53.373  1.00  0.00     0.012 A 
BRANCH  26  29
HETATM   29  O   UNL     1      30.601  44.694  55.946  1.00  0.00    -0.356 OA
HETATM   30  C   UNL     1      31.332  43.870  56.846  1.00  0.00     0.210 C 
ENDBRANCH  26  29
ENDBRANCH   1  23
BRANCH   8  31
HETATM   31  C   UNL     1      28.380  39.686  49.097  1.00  0.00     0.409 C 
HETATM   32  F   UNL     1      29.588  39.218  49.483  1.00  0.00    -0.169 F 
HETATM   33  F   UNL     1      27.755  38.661  48.454  1.00  0.00    -0.169 F 
HETATM   34  F   UNL     1      28.570  40.645  48.169  1.00  0.00    -0.169 F 
ENDBRANCH   8  31
TORSDOF 6
ENDMDL
MODEL 5
REMARK VINA RESULT:      -8.7      3.310      8.871
REMARK  6 active torsions:
REMARK  status: ('A' for Active; 'I' for Inactive)
REMARK    1  A    between atoms: O_2  and  C_3 
REMARK    2  A    between atoms: C_6  and  C_7 
REMARK    3  A    between atoms: C_13  and  C_14 
REMARK       I    between atoms: C_14  and  N_15 
REMARK    4  A    between atoms: N_15  and  C_16 
REMARK    5  A    between atoms: C_18  and  O_19 
REMARK    6  A    between atoms: C_24  and  C_25 
ROOT
HETATM    1  C   UNL     1      21.731  48.326  48.545  1.00  0.00     0.118 C 
HETATM    2  N   UNL     1      22.783  48.067  49.541  1.00  0.00    -0.365 N 
HETATM    3  C   UNL     1      23.508  46.916  49.431  1.00  0.00     0.138 C 
HETATM    4  N   UNL     1      23.103  45.901  48.588  1.00  0.00    -0.240 N 
HETATM    5  N   UNL     1      24.013  44.928  48.444  1.00  0.00    -0.181 NA
HETATM    6  C   UNL     1      24.947  45.246  49.342  1.00  0.00     0.160 C 
HETATM    7  C   UNL     1      24.679  46.462  50.018  1.00  0.00     0.096 C 
HETATM    8  C   UNL     1      21.917  45.945  47.751  1.00  0.00     0.221 C 
HETATM    9  C   UNL     1      20.959  47.035  48.252  1.00  0.00     0.066 C 
HETATM   10  H   UNL     1      23.288  48.928  49.761  1.00  0.00     0.161 HD
ENDROOT
BRANCH   7  11
HETATM   11  C   UNL     1      25.513  47.042  51.059  1.00  0.00     0.261 C 
HETATM   12  N   UNL     1      25.423  46.401  52.280  1.00  0.00    -0.323 N 
HETATM   13  H   UNL     1      24.820  45.588  52.305  1.00  0.00     0.169 HD
HETATM   14  O   UNL     1      26.231  48.004  50.807  1.00  0.00    -0.267 OA
BRANCH  12  15
HETATM   15  C   UNL     1      26.112  46.717  53.470  1.00  0.00     0.037 A 
HETATM   16  C   UNL     1      25.837  47.840  54.257  1.00  0.00     0.066 A 
HETATM   17  C   UNL     1      26.577  48.078  55.414  1.00  0.00     0.067 A 
HETATM   18  C   UNL     1      27.583  47.209  55.813  1.00  0.00     0.036 A 
HETATM   19  C   UNL     1      27.863  46.086  55.039  1.00  0.00     0.005 A 
HETATM   20  C   UNL     1      27.136  45.846  53.868  1.00  0.00     0.029 A 
BRANCH  17  21
HETATM   21  O   UNL     1      26.344  49.177  56.189  1.00  0.00    -0.361 OA
HETATM   22  H   UNL     1      26.797  49.938  55.788  1.00  0.00     0.217 HD
ENDBRANCH  17  21
ENDBRANCH  12  15
ENDBRANCH   7  11
BRANCH   1  23
HETATM   23  C   UNL     1      20.785  49.400  49.045  1.00  0.00    -0.035 A 
HETATM   24  C   UNL     1      20.892  50.713  48.559  1.00  0.00     0.012 A 
HETATM   25  C   UNL     1      19.969  51.697  48.935  1.00  0.00     0.037 A 
HETATM   26  C   UNL     1      18.920  51.382  49.798  1.00  0.00     0.068 A 
HETATM   27  C   UNL     1      18.822  50.086  50.306  1.00  0.00     0.037 A 
HETATM   28  C   UNL     1      19.741  49.102  49.933  1.00  0.00     0.012 A 
BRANCH  26  29
HETATM   29  O   UNL     1      17.942  52.240  50.218  1.00  0.00    -0.356 OA
HETATM   30  C   UNL     1      16.815  52.391  49.364  1.00  0.00     0.210 C 
ENDBRANCH  26  29
ENDBRANCH   1  23
BRANCH   8  31
HETATM   31  C   UNL     1      21.196  44.615  47.716  1.00  0.00     0.409 C 
HETATM   32  F   UNL     1      19.855  44.757  47.618  1.00  0.00    -0.169 F 
HETATM   33  F   UNL     1      21.593  43.916  46.616  1.00  0.00    -0.169 F 
HETATM   34  F   UNL     1      21.466  43.825  48.775  1.00  0.00    -0.169 F 
ENDBRANCH   8  31
TORSDOF 6
ENDMDL
MODEL 6
REMARK VINA RESULT:      -8.5      2.408      3.418
REMARK  6 active torsions:
REMARK  status: ('A' for Active; 'I' for Inactive)
REMARK    1  A    between atoms: O_2  and  C_3 
REMARK    2  A    between atoms: C_6  and  C_7 
REMARK    3  A    between atoms: C_13  and  C_14 
REMARK       I    between atoms: C_14  and  N_15 
REMARK    4  A    between atoms: N_15  and  C_16 
REMARK    5  A    between atoms: C_18  and  O_19 
REMARK    6  A    between atoms: C_24  and  C_25 
ROOT
HETATM    1  C   UNL     1      24.198  44.453  51.363  1.00  0.00     0.118 C 
HETATM    2  N   UNL     1      23.644  45.398  50.380  1.00  0.00    -0.365 N 
HETATM    3  C   UNL     1      22.959  44.893  49.313  1.00  0.00     0.138 C 
HETATM    4  N   UNL     1      23.009  43.548  49.012  1.00  0.00    -0.240 N 
HETATM    5  N   UNL     1      22.137  43.179  48.063  1.00  0.00    -0.181 NA
HETATM    6  C   UNL     1      21.641  44.340  47.634  1.00  0.00     0.160 C 
HETATM    7  C   UNL     1      22.136  45.457  48.351  1.00  0.00     0.096 C 
HETATM    8  C   UNL     1      23.753  42.558  49.769  1.00  0.00     0.221 C 
HETATM    9  C   UNL     1      24.810  43.248  50.642  1.00  0.00     0.066 C 
HETATM   10  H   UNL     1      23.255  46.218  50.852  1.00  0.00     0.161 HD
ENDROOT
BRANCH   7  11
HETATM   11  C   UNL     1      21.783  46.844  48.088  1.00  0.00     0.261 C 
HETATM   12  N   UNL     1      21.154  47.478  49.143  1.00  0.00    -0.323 N 
HETATM   13  H   UNL     1      21.041  46.925  49.983  1.00  0.00     0.169 HD
HETATM   14  O   UNL     1      22.066  47.356  47.011  1.00  0.00    -0.267 OA
BRANCH  12  15
HETATM   15  C   UNL     1      20.704  48.815  49.197  1.00  0.00     0.037 A 
HETATM   16  C   UNL     1      19.484  49.205  49.759  1.00  0.00     0.066 A 
HETATM   17  C   UNL     1      19.117  50.550  49.760  1.00  0.00     0.067 A 
HETATM   18  C   UNL     1      19.950  51.521  49.222  1.00  0.00     0.036 A 
HETATM   19  C   UNL     1      21.168  51.143  48.663  1.00  0.00     0.005 A 
HETATM   20  C   UNL     1      21.539  49.795  48.644  1.00  0.00     0.029 A 
BRANCH  17  21
HETATM   21  O   UNL     1      17.924  50.957  50.283  1.00  0.00    -0.361 OA
HETATM   22  H   UNL     1      17.496  50.192  50.703  1.00  0.00     0.217 HD
ENDBRANCH  17  21
ENDBRANCH  12  15
ENDBRANCH   7  11
BRANCH   1  23
HETATM   23  C   UNL     1      25.244  45.137  52.221  1.00  0.00    -0.035 A 
HETATM   24  C   UNL     1      25.369  46.535  52.197  1.00  0.00     0.012 A 
HETATM   25  C   UNL     1      26.262  47.193  53.052  1.00  0.00     0.037 A 
HETATM   26  C   UNL     1      27.040  46.463  53.949  1.00  0.00     0.068 A 
HETATM   27  C   UNL     1      26.942  45.072  53.962  1.00  0.00     0.037 A 
HETATM   28  C   UNL     1      26.051  44.412  53.111  1.00  0.00     0.012 A 
BRANCH  26  29
HETATM   29  O   UNL     1      27.926  46.986  54.851  1.00  0.00    -0.356 OA
HETATM   30  C   UNL     1      28.710  46.056  55.589  1.00  0.00     0.210 C 
ENDBRANCH  26  29
ENDBRANCH   1  23
BRANCH   8  31
HETATM   31  C   UNL     1      24.424  41.541  48.870  1.00  0.00     0.409 C 
HETATM   32  F   UNL     1      25.310  40.767  49.537  1.00  0.00    -0.169 F 
HETATM   33  F   UNL     1      23.483  40.700  48.360  1.00  0.00    -0.169 F 
HETATM   34  F   UNL     1      25.049  42.087  47.808  1.00  0.00    -0.169 F 
ENDBRANCH   8  31
TORSDOF 6
ENDMDL
MODEL 7
REMARK VINA RESULT:      -8.4      3.781      8.661
REMARK  6 active torsions:
REMARK  status: ('A' for Active; 'I' for Inactive)
REMARK    1  A    between atoms: O_2  and  C_3 
REMARK    2  A    between atoms: C_6  and  C_7 
REMARK    3  A    between atoms: C_13  and  C_14 
REMARK       I    between atoms: C_14  and  N_15 
REMARK    4  A    between atoms: N_15  and  C_16 
REMARK    5  A    between atoms: C_18  and  O_19 
REMARK    6  A    between atoms: C_24  and  C_25 
ROOT
HETATM    1  C   UNL     1      25.425  42.829  50.896  1.00  0.00     0.118 C 
HETATM    2  N   UNL     1      26.500  43.183  51.836  1.00  0.00    -0.365 N 
HETATM    3  C   UNL     1      26.487  44.430  52.392  1.00  0.00     0.138 C 
HETATM    4  N   UNL     1      25.662  45.419  51.896  1.00  0.00    -0.240 N 
HETATM    5  N   UNL     1      25.621  46.517  52.663  1.00  0.00    -0.181 NA
HETATM    6  C   UNL     1      26.566  46.290  53.576  1.00  0.00     0.160 C 
HETATM    7  C   UNL     1      27.171  45.015  53.446  1.00  0.00     0.096 C 
HETATM    8  C   UNL     1      24.746  45.249  50.783  1.00  0.00     0.221 C 
HETATM    9  C   UNL     1      25.135  44.010  49.964  1.00  0.00     0.066 C 
HETATM   10  H   UNL     1      26.718  42.392  52.446  1.00  0.00     0.161 HD
ENDROOT
BRANCH   7  11
HETATM   11  C   UNL     1      28.241  44.507  54.291  1.00  0.00     0.261 C 
HETATM   12  N   UNL     1      28.601  45.356  55.320  1.00  0.00    -0.323 N 
HETATM   13  H   UNL     1      28.064  46.211  55.392  1.00  0.00     0.169 HD
HETATM   14  O   UNL     1      28.726  43.403  54.070  1.00  0.00    -0.267 OA
BRANCH  12  15
HETATM   15  C   UNL     1      29.589  45.143  56.305  1.00  0.00     0.037 A 
HETATM   16  C   UNL     1      30.525  44.104  56.260  1.00  0.00     0.066 A 
HETATM   17  C   UNL     1      31.460  43.964  57.285  1.00  0.00     0.067 A 
HETATM   18  C   UNL     1      31.490  44.850  58.353  1.00  0.00     0.036 A 
HETATM   19  C   UNL     1      30.564  45.888  58.407  1.00  0.00     0.005 A 
HETATM   20  C   UNL     1      29.613  46.029  57.391  1.00  0.00     0.029 A 
BRANCH  17  21
HETATM   21  O   UNL     1      32.372  42.949  57.276  1.00  0.00    -0.361 OA
HETATM   22  H   UNL     1      33.155  43.235  57.775  1.00  0.00     0.217 HD
ENDBRANCH  17  21
ENDBRANCH  12  15
ENDBRANCH   7  11
BRANCH   1  23
HETATM   23  C   UNL     1      25.815  41.607  50.087  1.00  0.00    -0.035 A 
HETATM   24  C   UNL     1      26.712  40.668  50.619  1.00  0.00     0.012 A 
HETATM   25  C   UNL     1      27.010  39.486  49.929  1.00  0.00     0.037 A 
HETATM   26  C   UNL     1      26.411  39.222  48.699  1.00  0.00     0.068 A 
HETATM   27  C   UNL     1      25.538  40.162  48.150  1.00  0.00     0.037 A 
HETATM   28  C   UNL     1      25.238  41.341  48.836  1.00  0.00     0.012 A 
BRANCH  26  29
HETATM   29  O   UNL     1      26.597  38.098  47.942  1.00  0.00    -0.356 OA
HETATM   30  C   UNL     1      27.943  37.723  47.675  1.00  0.00     0.210 C 
ENDBRANCH  26  29
ENDBRANCH   1  23
BRANCH   8  31
HETATM   31  C   UNL     1      24.717  46.463  49.879  1.00  0.00     0.409 C 
HETATM   32  F   UNL     1      23.968  46.266  48.772  1.00  0.00    -0.169 F 
HETATM   33  F   UNL     1      24.153  47.508  50.547  1.00  0.00    -0.169 F 
HETATM   34  F   UNL     1      25.940  46.883  49.498  1.00  0.00    -0.169 F 
ENDBRANCH   8  31
TORSDOF 6
ENDMDL
MODEL 8
REMARK VINA RESULT:      -8.4      4.290      8.911
REMARK  6 active torsions:
REMARK  status: ('A' for Active; 'I' for Inactive)
REMARK    1  A    between atoms: O_2  and  C_3 
REMARK    2  A    between atoms: C_6  and  C_7 
REMARK    3  A    between atoms: C_13  and  C_14 
REMARK       I    between atoms: C_14  and  N_15 
REMARK    4  A    between atoms: N_15  and  C_16 
REMARK    5  A    between atoms: C_18  and  O_19 
REMARK    6  A    between atoms: C_24  and  C_25 
ROOT
HETATM    1  C   UNL     1      26.442  43.886  52.352  1.00  0.00     0.118 C 
HETATM    2  N   UNL     1      26.815  42.849  51.376  1.00  0.00    -0.365 N 
HETATM    3  C   UNL     1      27.668  41.861  51.777  1.00  0.00     0.138 C 
HETATM    4  N   UNL     1      28.371  41.969  52.960  1.00  0.00    -0.240 N 
HETATM    5  N   UNL     1      29.011  40.844  53.306  1.00  0.00    -0.181 NA
HETATM    6  C   UNL     1      28.849  40.057  52.242  1.00  0.00     0.160 C 
HETATM    7  C   UNL     1      28.045  40.644  51.233  1.00  0.00     0.096 C 
HETATM    8  C   UNL     1      28.279  43.090  53.877  1.00  0.00     0.221 C 
HETATM    9  C   UNL     1      27.672  44.306  53.163  1.00  0.00     0.066 C 
HETATM   10  H   UNL     1      26.005  42.579  50.813  1.00  0.00     0.161 HD
ENDROOT
BRANCH   7  11
HETATM   11  C   UNL     1      27.718  40.023  49.958  1.00  0.00     0.261 C 
HETATM   12  N   UNL     1      28.030  38.679  49.886  1.00  0.00    -0.323 N 
HETATM   13  H   UNL     1      28.415  38.272  50.729  1.00  0.00     0.169 HD
HETATM   14  O   UNL     1      27.191  40.685  49.070  1.00  0.00    -0.267 OA
BRANCH  12  15
HETATM   15  C   UNL     1      27.824  37.806  48.796  1.00  0.00     0.037 A 
HETATM   16  C   UNL     1      28.653  37.753  47.671  1.00  0.00     0.066 A 
HETATM   17  C   UNL     1      28.367  36.864  46.637  1.00  0.00     0.067 A 
HETATM   18  C   UNL     1      27.273  36.012  46.706  1.00  0.00     0.036 A 
HETATM   19  C   UNL     1      26.443  36.055  47.822  1.00  0.00     0.005 A 
HETATM   20  C   UNL     1      26.713  36.954  48.860  1.00  0.00     0.029 A 
BRANCH  17  21
HETATM   21  O   UNL     1      29.147  36.805  45.518  1.00  0.00    -0.361 OA
HETATM   22  H   UNL     1      29.569  35.930  45.484  1.00  0.00     0.217 HD
ENDBRANCH  17  21
ENDBRANCH  12  15
ENDBRANCH   7  11
BRANCH   1  23
HETATM   23  C   UNL     1      25.846  45.086  51.643  1.00  0.00    -0.035 A 
HETATM   24  C   UNL     1      24.945  44.902  50.583  1.00  0.00     0.012 A 
HETATM   25  C   UNL     1      24.310  45.994  49.978  1.00  0.00     0.037 A 
HETATM   26  C   UNL     1      24.562  47.289  50.429  1.00  0.00     0.068 A 
HETATM   27  C   UNL     1      25.477  47.484  51.464  1.00  0.00     0.037 A 
HETATM   28  C   UNL     1      26.111  46.396  52.070  1.00  0.00     0.012 A 
BRANCH  26  29
HETATM   29  O   UNL     1      23.990  48.432  49.944  1.00  0.00    -0.356 OA
HETATM   30  C   UNL     1      22.832  48.272  49.132  1.00  0.00     0.210 C 
ENDBRANCH  26  29
ENDBRANCH   1  23
BRANCH   8  31
HETATM   31  C   UNL     1      29.627  43.464  54.455  1.00  0.00     0.409 C 
HETATM   32  F   UNL     1      30.616  43.414  53.535  1.00  0.00    -0.169 F 
HETATM   33  F   UNL     1      29.583  44.748  54.906  1.00  0.00    -0.169 F 
HETATM   34  F   UNL     1      29.989  42.711  55.513  1.00  0.00    -0.169 F 
ENDBRANCH   8  31
TORSDOF 6
ENDMDL
MODEL 9
REMARK VINA RESULT:      -8.2      7.920     11.989
REMARK  6 active torsions:
REMARK  status: ('A' for Active; 'I' for Inactive)
REMARK    1  A    between atoms: O_2  and  C_3 
REMARK    2  A    between atoms: C_6  and  C_7 
REMARK    3  A    between atoms: C_13  and  C_14 
REMARK       I    between atoms: C_14  and  N_15 
REMARK    4  A    between atoms: N_15  and  C_16 
REMARK    5  A    between atoms: C_18  and  O_19 
REMARK    6  A    between atoms: C_24  and  C_25 
ROOT
HETATM    1  C   UNL     1      19.027  50.101  47.287  1.00  0.00     0.118 C 
HETATM    2  N   UNL     1      18.329  51.129  48.075  1.00  0.00    -0.365 N 
HETATM    3  C   UNL     1      17.187  51.674  47.560  1.00  0.00     0.138 C 
HETATM    4  N   UNL     1      16.841  51.474  46.239  1.00  0.00    -0.240 N 
HETATM    5  N   UNL     1      15.608  51.905  45.939  1.00  0.00    -0.181 NA
HETATM    6  C   UNL     1      15.226  52.541  47.047  1.00  0.00     0.160 C 
HETATM    7  C   UNL     1      16.180  52.463  48.092  1.00  0.00     0.096 C 
HETATM    8  C   UNL     1      17.611  50.689  45.292  1.00  0.00     0.221 C 
HETATM    9  C   UNL     1      19.044  50.498  45.808  1.00  0.00     0.066 C 
HETATM   10  H   UNL     1      18.333  50.885  49.068  1.00  0.00     0.161 HD
ENDROOT
BRANCH   7  11
HETATM   11  C   UNL     1      16.037  53.078  49.402  1.00  0.00     0.261 C 
HETATM   12  N   UNL     1      15.298  54.246  49.402  1.00  0.00    -0.323 N 
HETATM   13  H   UNL     1      14.913  54.521  48.507  1.00  0.00     0.169 HD
HETATM   14  O   UNL     1      16.535  52.546  50.388  1.00  0.00    -0.267 OA
BRANCH  12  15
HETATM   15  C   UNL     1      14.976  55.060  50.509  1.00  0.00     0.037 A 
HETATM   16  C   UNL     1      14.285  54.607  51.637  1.00  0.00     0.066 A 
HETATM   17  C   UNL     1      14.003  55.487  52.681  1.00  0.00     0.067 A 
HETATM   18  C   UNL     1      14.408  56.813  52.629  1.00  0.00     0.036 A 
HETATM   19  C   UNL     1      15.098  57.274  51.512  1.00  0.00     0.005 A 
HETATM   20  C   UNL     1      15.374  56.403  50.453  1.00  0.00     0.029 A 
BRANCH  17  21
HETATM   21  O   UNL     1      13.313  55.076  53.785  1.00  0.00    -0.361 OA
HETATM   22  H   UNL     1      13.372  54.107  53.841  1.00  0.00     0.217 HD
ENDBRANCH  17  21
ENDBRANCH  12  15
ENDBRANCH   7  11
BRANCH   1  23
HETATM   23  C   UNL     1      20.443  49.918  47.797  1.00  0.00    -0.035 A 
HETATM   24  C   UNL     1      21.121  50.993  48.391  1.00  0.00     0.012 A 
HETATM   25  C   UNL     1      22.392  50.821  48.955  1.00  0.00     0.037 A 
HETATM   26  C   UNL     1      23.002  49.567  48.938  1.00  0.00     0.068 A 
HETATM   27  C   UNL     1      22.346  48.498  48.326  1.00  0.00     0.037 A 
HETATM   28  C   UNL     1      21.078  48.667  47.764  1.00  0.00     0.012 A 
BRANCH  26  29
HETATM   29  O   UNL     1      24.222  49.263  49.476  1.00  0.00    -0.356 OA
HETATM   30  C   UNL     1      24.451  47.899  49.810  1.00  0.00     0.210 C 
ENDBRANCH  26  29
ENDBRANCH   1  23
BRANCH   8  31
HETATM   31  C   UNL     1      17.647  51.327  43.920  1.00  0.00     0.409 C 
HETATM   32  F   UNL     1      18.795  51.060  43.257  1.00  0.00    -0.169 F 
HETATM   33  F   UNL     1      16.635  50.823  43.162  1.00  0.00    -0.169 F 
HETATM   34  F   UNL     1      17.466  52.663  43.940  1.00  0.00    -0.169 F 
ENDBRANCH   8  31
TORSDOF 6
ENDMDL
MODEL 10
REMARK VINA RESULT:      -8.0      3.184      5.417
REMARK  6 active torsions:
REMARK  status: ('A' for Active; 'I' for Inactive)
REMARK    1  A    between atoms: O_2  and  C_3 
REMARK    2  A    between atoms: C_6  and  C_7 
REMARK    3  A    between atoms: C_13  and  C_14 
REMARK       I    between atoms: C_14  and  N_15 
REMARK    4  A    between atoms: N_15  and  C_16 
REMARK    5  A    between atoms: C_18  and  O_19 
REMARK    6  A    between atoms: C_24  and  C_25 
ROOT
HETATM    1  C   UNL     1      27.273  43.146  50.662  1.00  0.00     0.118 C 
HETATM    2  N   UNL     1      26.184  44.062  50.286  1.00  0.00    -0.365 N 
HETATM    3  C   UNL     1      25.860  45.069  51.149  1.00  0.00     0.138 C 
HETATM    4  N   UNL     1      26.342  45.076  52.442  1.00  0.00    -0.240 N 
HETATM    5  N   UNL     1      26.097  46.219  53.098  1.00  0.00    -0.181 NA
HETATM    6  C   UNL     1      25.300  46.887  52.264  1.00  0.00     0.160 C 
HETATM    7  C   UNL     1      25.084  46.212  51.037  1.00  0.00     0.096 C 
HETATM    8  C   UNL     1      27.217  44.064  53.004  1.00  0.00     0.221 C 
HETATM    9  C   UNL     1      27.168  42.790  52.149  1.00  0.00     0.066 C 
HETATM   10  H   UNL     1      26.232  44.286  49.290  1.00  0.00     0.161 HD
ENDROOT
BRANCH   7  11
HETATM   11  C   UNL     1      24.245  46.696  49.952  1.00  0.00     0.261 C 
HETATM   12  N   UNL     1      23.760  47.976  50.139  1.00  0.00    -0.323 N 
HETATM   13  H   UNL     1      24.066  48.442  50.984  1.00  0.00     0.169 HD
HETATM   14  O   UNL     1      24.042  45.989  48.971  1.00  0.00    -0.267 OA
BRANCH  12  15
HETATM   15  C   UNL     1      22.936  48.720  49.267  1.00  0.00     0.037 A 
HETATM   16  C   UNL     1      21.578  48.458  49.064  1.00  0.00     0.066 A 
HETATM   17  C   UNL     1      20.843  49.241  48.174  1.00  0.00     0.067 A 
HETATM   18  C   UNL     1      21.435  50.292  47.487  1.00  0.00     0.036 A 
HETATM   19  C   UNL     1      22.786  50.562  47.684  1.00  0.00     0.005 A 
HETATM   20  C   UNL     1      23.535  49.774  48.564  1.00  0.00     0.029 A 
BRANCH  17  21
HETATM   21  O   UNL     1      19.521  48.995  47.942  1.00  0.00    -0.361 OA
HETATM   22  H   UNL     1      19.451  48.239  47.335  1.00  0.00     0.217 HD
ENDBRANCH  17  21
ENDBRANCH  12  15
ENDBRANCH   7  11
BRANCH   1  23
HETATM   23  C   UNL     1      27.218  41.888  49.817  1.00  0.00    -0.035 A 
HETATM   24  C   UNL     1      26.363  41.823  48.707  1.00  0.00     0.012 A 
HETATM   25  C   UNL     1      26.367  40.709  47.858  1.00  0.00     0.037 A 
HETATM   26  C   UNL     1      27.233  39.644  48.104  1.00  0.00     0.068 A 
HETATM   27  C   UNL     1      28.068  39.688  49.220  1.00  0.00     0.037 A 
HETATM   28  C   UNL     1      28.067  40.799  50.068  1.00  0.00     0.012 A 
BRANCH  26  29
HETATM   29  O   UNL     1      27.352  38.516  47.340  1.00  0.00    -0.356 OA
HETATM   30  C   UNL     1      28.580  37.805  47.439  1.00  0.00     0.210 C 
ENDBRANCH  26  29
ENDBRANCH   1  23
BRANCH   8  31
HETATM   31  C   UNL     1      26.853  43.727  54.434  1.00  0.00     0.409 C 
HETATM   32  F   UNL     1      27.245  42.482  54.787  1.00  0.00    -0.169 F 
HETATM   33  F   UNL     1      27.491  44.587  55.276  1.00  0.00    -0.169 F 
HETATM   34  F   UNL     1      25.538  43.853  54.702  1.00  0.00    -0.169 F 
ENDBRANCH   8  31
TORSDOF 6
ENDMDL
