MODEL 1
REMARK VINA RESULT:      -7.0      0.000      0.000
REMARK  5 active torsions:
REMARK  status: ('A' for Active; 'I' for Inactive)
REMARK    1  A    between atoms: C_2  and  O_3 
REMARK    2  A    between atoms: C_4  and  C_5 
REMARK    3  A    between atoms: C_5  and  O_6 
REMARK    4  A    between atoms: C_9  and  C_10 
REMARK    5  A    between atoms: C_22  and  O_23 
ROOT
HETATM    1  C   UNL     1      31.015  53.121  41.602  1.00  0.00     0.047 C 
HETATM    2  C   UNL     1      31.503  52.240  40.434  1.00  0.00     0.073 C 
HETATM    3  C   UNL     1      30.266  51.676  39.644  1.00  0.00     0.133 C 
HETATM    4  C   UNL     1      29.494  50.512  40.354  1.00  0.00     0.074 C 
HETATM    5  C   UNL     1      30.313  49.814  41.393  1.00  0.00     0.030 A 
HETATM    6  C   UNL     1      31.639  50.091  41.644  1.00  0.00     0.042 A 
HETATM    7  N   UNL     1      32.030  49.285  42.674  1.00  0.00    -0.279 N 
HETATM    8  H   UNL     1      32.940  49.218  43.120  1.00  0.00     0.189 HD
HETATM    9  N   UNL     1      31.018  48.532  43.156  1.00  0.00    -0.149 NA
HETATM   10  C   UNL     1      30.000  48.876  42.377  1.00  0.00     0.190 A 
HETATM   11  C   UNL     1      32.450  51.124  40.969  1.00  0.00     0.097 C 
ENDROOT
BRANCH   4  12
HETATM   12  C   UNL     1      28.949  49.409  39.452  1.00  0.00    -0.047 A 
HETATM   13  C   UNL     1      27.655  49.459  38.894  1.00  0.00     0.027 A 
HETATM   14  C   UNL     1      27.182  48.415  38.098  1.00  0.00     0.011 A 
HETATM   15 BR   UNL     1      25.438  48.507  37.373  1.00  0.00    -0.051 Br
HETATM   16  C   UNL     1      27.980  47.304  37.843  1.00  0.00     0.019 A 
HETATM   17  C   UNL     1      29.262  47.238  38.387  1.00  0.00     0.002 A 
HETATM   18  C   UNL     1      29.741  48.280  39.187  1.00  0.00     0.008 A 
ENDBRANCH   4  12
BRANCH   3  19
HETATM   19  C   UNL     1      30.668  51.341  38.222  1.00  0.00     0.266 C 
HETATM   20  O   UNL     1      31.676  50.714  37.913  1.00  0.00    -0.265 OA
BRANCH  19  21
HETATM   21  O   UNL     1      29.780  51.880  37.339  1.00  0.00    -0.326 OA
HETATM   22  C   UNL     1      28.929  52.883  37.892  1.00  0.00     0.213 C 
ENDBRANCH  19  21
ENDBRANCH   3  19
BRANCH   2  23
HETATM   23  O   UNL     1      32.268  53.133  39.606  1.00  0.00    -0.389 OA
HETATM   24  H   UNL     1      32.532  52.642  38.802  1.00  0.00     0.210 HD
ENDBRANCH   2  23
BRANCH  10  25
HETATM   25  O   UNL     1      28.839  48.302  42.672  1.00  0.00    -0.343 OA
HETATM   26  H   UNL     1      28.974  47.361  42.466  1.00  0.00     0.219 HD
ENDBRANCH  10  25
TORSDOF 5
ENDMDL
MODEL 2
REMARK VINA RESULT:      -6.9      1.979      2.421
REMARK  5 active torsions:
REMARK  status: ('A' for Active; 'I' for Inactive)
REMARK    1  A    between atoms: C_2  and  O_3 
REMARK    2  A    between atoms: C_4  and  C_5 
REMARK    3  A    between atoms: C_5  and  O_6 
REMARK    4  A    between atoms: C_9  and  C_10 
REMARK    5  A    between atoms: C_22  and  O_23 
ROOT
HETATM    1  C   UNL     1      28.505  53.038  41.243  1.00  0.00     0.047 C 
HETATM    2  C   UNL     1      29.177  52.384  40.020  1.00  0.00     0.073 C 
HETATM    3  C   UNL     1      28.565  50.955  39.782  1.00  0.00     0.133 C 
HETATM    4  C   UNL     1      29.042  49.848  40.783  1.00  0.00     0.074 C 
HETATM    5  C   UNL     1      30.326  50.191  41.467  1.00  0.00     0.030 A 
HETATM    6  C   UNL     1      31.073  51.314  41.187  1.00  0.00     0.042 A 
HETATM    7  N   UNL     1      32.147  51.304  42.031  1.00  0.00    -0.279 N 
HETATM    8  H   UNL     1      32.906  51.975  42.103  1.00  0.00     0.189 HD
HETATM    9  N   UNL     1      32.119  50.265  42.893  1.00  0.00    -0.149 NA
HETATM   10  C   UNL     1      31.014  49.621  42.540  1.00  0.00     0.190 A 
HETATM   11  C   UNL     1      30.724  52.365  40.209  1.00  0.00     0.097 C 
ENDROOT
BRANCH   4  12
HETATM   12  C   UNL     1      29.245  48.452  40.204  1.00  0.00    -0.047 A 
HETATM   13  C   UNL     1      28.340  47.396  40.439  1.00  0.00     0.027 A 
HETATM   14  C   UNL     1      28.578  46.125  39.918  1.00  0.00     0.011 A 
HETATM   15 BR   UNL     1      27.350  44.728  40.260  1.00  0.00    -0.051 Br
HETATM   16  C   UNL     1      29.716  45.875  39.157  1.00  0.00     0.019 A 
HETATM   17  C   UNL     1      30.622  46.906  38.916  1.00  0.00     0.002 A 
HETATM   18  C   UNL     1      30.390  48.183  39.437  1.00  0.00     0.008 A 
ENDBRANCH   4  12
BRANCH   3  19
HETATM   19  C   UNL     1      28.734  50.555  38.329  1.00  0.00     0.266 C 
HETATM   20  O   UNL     1      29.698  50.854  37.633  1.00  0.00    -0.265 OA
BRANCH  19  21
HETATM   21  O   UNL     1      27.642  49.862  37.898  1.00  0.00    -0.326 OA
HETATM   22  C   UNL     1      26.390  50.446  38.257  1.00  0.00     0.213 C 
ENDBRANCH  19  21
ENDBRANCH   3  19
BRANCH   2  23
HETATM   23  O   UNL     1      28.860  53.259  38.925  1.00  0.00    -0.389 OA
HETATM   24  H   UNL     1      28.801  52.715  38.113  1.00  0.00     0.210 HD
ENDBRANCH   2  23
BRANCH  10  25
HETATM   25  O   UNL     1      30.715  48.556  43.276  1.00  0.00    -0.343 OA
HETATM   26  H   UNL     1      30.092  48.049  42.729  1.00  0.00     0.219 HD
ENDBRANCH  10  25
TORSDOF 5
ENDMDL
MODEL 3
REMARK VINA RESULT:      -6.8      3.241      5.146
REMARK  5 active torsions:
REMARK  status: ('A' for Active; 'I' for Inactive)
REMARK    1  A    between atoms: C_2  and  O_3 
REMARK    2  A    between atoms: C_4  and  C_5 
REMARK    3  A    between atoms: C_5  and  O_6 
REMARK    4  A    between atoms: C_9  and  C_10 
REMARK    5  A    between atoms: C_22  and  O_23 
ROOT
HETATM    1  C   UNL     1      26.251  49.002  37.806  1.00  0.00     0.047 C 
HETATM    2  C   UNL     1      26.476  49.476  39.256  1.00  0.00     0.073 C 
HETATM    3  C   UNL     1      27.930  50.058  39.403  1.00  0.00     0.133 C 
HETATM    4  C   UNL     1      29.075  48.989  39.451  1.00  0.00     0.074 C 
HETATM    5  C   UNL     1      28.590  47.628  39.835  1.00  0.00     0.030 A 
HETATM    6  C   UNL     1      27.293  47.347  40.204  1.00  0.00     0.042 A 
HETATM    7  N   UNL     1      27.225  46.005  40.445  1.00  0.00    -0.279 N 
HETATM    8  H   UNL     1      26.426  45.450  40.738  1.00  0.00     0.189 HD
HETATM    9  N   UNL     1      28.393  45.374  40.199  1.00  0.00    -0.149 NA
HETATM   10  C   UNL     1      29.190  46.368  39.826  1.00  0.00     0.190 A 
HETATM   11  C   UNL     1      26.177  48.314  40.250  1.00  0.00     0.097 C 
ENDROOT
BRANCH   4  12
HETATM   12  C   UNL     1      30.243  49.288  40.386  1.00  0.00    -0.047 A 
HETATM   13  C   UNL     1      31.362  50.044  39.980  1.00  0.00     0.027 A 
HETATM   14  C   UNL     1      32.425  50.268  40.855  1.00  0.00     0.011 A 
HETATM   15 BR   UNL     1      33.916  51.277  40.278  1.00  0.00    -0.051 Br
HETATM   16  C   UNL     1      32.399  49.749  42.146  1.00  0.00     0.019 A 
HETATM   17  C   UNL     1      31.301  48.998  42.563  1.00  0.00     0.002 A 
HETATM   18  C   UNL     1      30.233  48.768  41.690  1.00  0.00     0.008 A 
ENDBRANCH   4  12
BRANCH   3  19
HETATM   19  C   UNL     1      27.982  51.037  40.559  1.00  0.00     0.266 C 
HETATM   20  O   UNL     1      27.607  50.787  41.699  1.00  0.00    -0.265 OA
BRANCH  19  21
HETATM   21  O   UNL     1      28.455  52.244  40.137  1.00  0.00    -0.326 OA
HETATM   22  C   UNL     1      28.515  52.393  38.718  1.00  0.00     0.213 C 
ENDBRANCH  19  21
ENDBRANCH   3  19
BRANCH   2  23
HETATM   23  O   UNL     1      25.496  50.510  39.451  1.00  0.00    -0.389 OA
HETATM   24  H   UNL     1      25.972  51.360  39.548  1.00  0.00     0.210 HD
ENDBRANCH   2  23
BRANCH  10  25
HETATM   25  O   UNL     1      30.420  46.010  39.474  1.00  0.00    -0.343 OA
HETATM   26  H   UNL     1      30.915  45.985  40.310  1.00  0.00     0.219 HD
ENDBRANCH  10  25
TORSDOF 5
ENDMDL
MODEL 4
REMARK VINA RESULT:      -6.8      2.734      4.152
REMARK  5 active torsions:
REMARK  status: ('A' for Active; 'I' for Inactive)
REMARK    1  A    between atoms: C_2  and  O_3 
REMARK    2  A    between atoms: C_4  and  C_5 
REMARK    3  A    between atoms: C_5  and  O_6 
REMARK    4  A    between atoms: C_9  and  C_10 
REMARK    5  A    between atoms: C_22  and  O_23 
ROOT
HETATM    1  C   UNL     1      33.349  52.344  39.816  1.00  0.00     0.047 C 
HETATM    2  C   UNL     1      32.529  51.856  41.027  1.00  0.00     0.073 C 
HETATM    3  C   UNL     1      32.077  50.368  40.794  1.00  0.00     0.133 C 
HETATM    4  C   UNL     1      30.903  50.178  39.774  1.00  0.00     0.074 C 
HETATM    5  C   UNL     1      30.099  51.422  39.568  1.00  0.00     0.030 A 
HETATM    6  C   UNL     1      30.298  52.593  40.265  1.00  0.00     0.042 A 
HETATM    7  N   UNL     1      29.407  53.507  39.780  1.00  0.00    -0.279 N 
HETATM    8  H   UNL     1      29.269  54.473  40.061  1.00  0.00     0.189 HD
HETATM    9  N   UNL     1      28.669  53.020  38.759  1.00  0.00    -0.149 NA
HETATM   10  C   UNL     1      29.111  51.773  38.647  1.00  0.00     0.190 A 
HETATM   11  C   UNL     1      31.337  52.825  41.289  1.00  0.00     0.097 C 
ENDROOT
BRANCH   4  12
HETATM   12  C   UNL     1      29.890  49.085  40.100  1.00  0.00    -0.047 A 
HETATM   13  C   UNL     1      29.960  47.796  39.533  1.00  0.00     0.027 A 
HETATM   14  C   UNL     1      28.996  46.833  39.833  1.00  0.00     0.011 A 
HETATM   15 BR   UNL     1      29.112  45.117  39.048  1.00  0.00    -0.051 Br
HETATM   16  C   UNL     1      27.947  47.129  40.698  1.00  0.00     0.019 A 
HETATM   17  C   UNL     1      27.862  48.398  41.266  1.00  0.00     0.002 A 
HETATM   18  C   UNL     1      28.824  49.369  40.969  1.00  0.00     0.008 A 
ENDBRANCH   4  12
BRANCH   3  19
HETATM   19  C   UNL     1      31.823  49.690  42.126  1.00  0.00     0.266 C 
HETATM   20  O   UNL     1      31.335  50.243  43.106  1.00  0.00    -0.265 OA
BRANCH  19  21
HETATM   21  O   UNL     1      32.259  48.399  42.091  1.00  0.00    -0.326 OA
HETATM   22  C   UNL     1      33.482  48.205  41.380  1.00  0.00     0.213 C 
ENDBRANCH  19  21
ENDBRANCH   3  19
BRANCH   2  23
HETATM   23  O   UNL     1      33.441  51.940  42.135  1.00  0.00    -0.389 OA
HETATM   24  H   UNL     1      33.477  51.060  42.561  1.00  0.00     0.210 HD
ENDBRANCH   2  23
BRANCH  10  25
HETATM   25  O   UNL     1      28.571  51.064  37.661  1.00  0.00    -0.343 OA
HETATM   26  H   UNL     1      28.809  51.551  36.853  1.00  0.00     0.219 HD
ENDBRANCH  10  25
TORSDOF 5
ENDMDL
MODEL 5
REMARK VINA RESULT:      -6.7     12.072     13.861
REMARK  5 active torsions:
REMARK  status: ('A' for Active; 'I' for Inactive)
REMARK    1  A    between atoms: C_2  and  O_3 
REMARK    2  A    between atoms: C_4  and  C_5 
REMARK    3  A    between atoms: C_5  and  O_6 
REMARK    4  A    between atoms: C_9  and  C_10 
REMARK    5  A    between atoms: C_22  and  O_23 
ROOT
HETATM    1  C   UNL     1      27.459  40.144  48.601  1.00  0.00     0.047 C 
HETATM    2  C   UNL     1      26.164  40.700  49.226  1.00  0.00     0.073 C 
HETATM    3  C   UNL     1      26.105  42.258  49.023  1.00  0.00     0.133 C 
HETATM    4  C   UNL     1      27.050  43.090  49.955  1.00  0.00     0.074 C 
HETATM    5  C   UNL     1      27.473  42.342  51.178  1.00  0.00     0.030 A 
HETATM    6  C   UNL     1      27.011  41.088  51.513  1.00  0.00     0.042 A 
HETATM    7  N   UNL     1      27.644  40.721  52.666  1.00  0.00    -0.279 N 
HETATM    8  H   UNL     1      27.547  39.863  53.201  1.00  0.00     0.189 HD
HETATM    9  N   UNL     1      28.542  41.641  53.080  1.00  0.00    -0.149 NA
HETATM   10  C   UNL     1      28.426  42.596  52.166  1.00  0.00     0.190 A 
HETATM   11  C   UNL     1      26.068  40.272  50.722  1.00  0.00     0.097 C 
ENDROOT
BRANCH   4  12
HETATM   12  C   UNL     1      26.506  44.424  50.456  1.00  0.00    -0.047 A 
HETATM   13  C   UNL     1      26.773  45.644  49.801  1.00  0.00     0.027 A 
HETATM   14  C   UNL     1      26.283  46.847  50.309  1.00  0.00     0.011 A 
HETATM   15 BR   UNL     1      26.667  48.467  49.412  1.00  0.00    -0.051 Br
HETATM   16  C   UNL     1      25.523  46.864  51.474  1.00  0.00     0.019 A 
HETATM   17  C   UNL     1      25.251  45.668  52.136  1.00  0.00     0.002 A 
HETATM   18  C   UNL     1      25.740  44.458  51.633  1.00  0.00     0.008 A 
ENDBRANCH   4  12
BRANCH   3  19
HETATM   19  C   UNL     1      24.665  42.731  49.062  1.00  0.00     0.266 C 
HETATM   20  O   UNL     1      23.833  42.359  49.882  1.00  0.00    -0.265 OA
BRANCH  19  21
HETATM   21  O   UNL     1      24.418  43.585  48.028  1.00  0.00    -0.326 OA
HETATM   22  C   UNL     1      23.496  44.631  48.331  1.00  0.00     0.213 C 
ENDBRANCH  19  21
ENDBRANCH   3  19
BRANCH   2  23
HETATM   23  O   UNL     1      25.107  40.053  48.496  1.00  0.00    -0.389 OA
HETATM   24  H   UNL     1      25.513  39.377  47.917  1.00  0.00     0.210 HD
ENDBRANCH   2  23
BRANCH  10  25
HETATM   25  O   UNL     1      29.251  43.627  52.311  1.00  0.00    -0.343 OA
HETATM   26  H   UNL     1      28.717  44.402  52.065  1.00  0.00     0.219 HD
ENDBRANCH  10  25
TORSDOF 5
ENDMDL
MODEL 6
REMARK VINA RESULT:      -6.7     25.760     27.246
REMARK  5 active torsions:
REMARK  status: ('A' for Active; 'I' for Inactive)
REMARK    1  A    between atoms: C_2  and  O_3 
REMARK    2  A    between atoms: C_4  and  C_5 
REMARK    3  A    between atoms: C_5  and  O_6 
REMARK    4  A    between atoms: C_9  and  C_10 
REMARK    5  A    between atoms: C_22  and  O_23 
ROOT
HETATM    1  C   UNL     1      37.457  47.510  67.595  1.00  0.00     0.047 C 
HETATM    2  C   UNL     1      36.944  47.112  66.196  1.00  0.00     0.073 C 
HETATM    3  C   UNL     1      37.104  45.561  65.994  1.00  0.00     0.133 C 
HETATM    4  C   UNL     1      38.568  45.070  65.725  1.00  0.00     0.074 C 
HETATM    5  C   UNL     1      39.467  46.156  65.228  1.00  0.00     0.030 A 
HETATM    6  C   UNL     1      39.046  47.436  64.941  1.00  0.00     0.042 A 
HETATM    7  N   UNL     1      40.147  48.144  64.552  1.00  0.00    -0.279 N 
HETATM    8  H   UNL     1      40.210  49.116  64.265  1.00  0.00     0.189 HD
HETATM    9  N   UNL     1      41.282  47.417  64.623  1.00  0.00    -0.149 NA
HETATM   10  C   UNL     1      40.848  46.234  65.039  1.00  0.00     0.190 A 
HETATM   11  C   UNL     1      37.671  47.952  65.103  1.00  0.00     0.097 C 
ENDROOT
BRANCH   4  12
HETATM   12  C   UNL     1      38.726  43.920  64.736  1.00  0.00    -0.047 A 
HETATM   13  C   UNL     1      38.693  42.568  65.135  1.00  0.00     0.027 A 
HETATM   14  C   UNL     1      38.874  41.546  64.204  1.00  0.00     0.011 A 
HETATM   15 BR   UNL     1      38.834  39.743  64.774  1.00  0.00    -0.051 Br
HETATM   16  C   UNL     1      39.091  41.843  62.862  1.00  0.00     0.019 A 
HETATM   17  C   UNL     1      39.129  43.174  62.450  1.00  0.00     0.002 A 
HETATM   18  C   UNL     1      38.950  44.204  63.378  1.00  0.00     0.008 A 
ENDBRANCH   4  12
BRANCH   3  19
HETATM   19  C   UNL     1      36.112  45.068  64.960  1.00  0.00     0.266 C 
HETATM   20  O   UNL     1      35.912  45.606  63.877  1.00  0.00    -0.265 OA
BRANCH  19  21
HETATM   21  O   UNL     1      35.443  43.976  65.428  1.00  0.00    -0.326 OA
HETATM   22  C   UNL     1      35.146  44.016  66.824  1.00  0.00     0.213 C 
ENDBRANCH  19  21
ENDBRANCH   3  19
BRANCH   2  23
HETATM   23  O   UNL     1      35.554  47.480  66.206  1.00  0.00    -0.389 OA
HETATM   24  H   UNL     1      35.500  48.444  66.370  1.00  0.00     0.210 HD
ENDBRANCH   2  23
BRANCH  10  25
HETATM   25  O   UNL     1      41.791  45.321  65.242  1.00  0.00    -0.343 OA
HETATM   26  H   UNL     1      42.541  45.621  64.701  1.00  0.00     0.219 HD
ENDBRANCH  10  25
TORSDOF 5
ENDMDL
MODEL 7
REMARK VINA RESULT:      -6.4      3.470      5.757
REMARK  5 active torsions:
REMARK  status: ('A' for Active; 'I' for Inactive)
REMARK    1  A    between atoms: C_2  and  O_3 
REMARK    2  A    between atoms: C_4  and  C_5 
REMARK    3  A    between atoms: C_5  and  O_6 
REMARK    4  A    between atoms: C_9  and  C_10 
REMARK    5  A    between atoms: C_22  and  O_23 
ROOT
HETATM    1  C   UNL     1      27.050  49.601  40.144  1.00  0.00     0.047 C 
HETATM    2  C   UNL     1      28.430  49.269  39.542  1.00  0.00     0.073 C 
HETATM    3  C   UNL     1      29.534  49.380  40.657  1.00  0.00     0.133 C 
HETATM    4  C   UNL     1      29.932  50.841  41.060  1.00  0.00     0.074 C 
HETATM    5  C   UNL     1      29.578  51.853  40.018  1.00  0.00     0.030 A 
HETATM    6  C   UNL     1      29.045  51.538  38.787  1.00  0.00     0.042 A 
HETATM    7  N   UNL     1      28.824  52.716  38.132  1.00  0.00    -0.279 N 
HETATM    8  H   UNL     1      28.442  52.866  37.203  1.00  0.00     0.189 HD
HETATM    9  N   UNL     1      29.128  53.794  38.886  1.00  0.00    -0.149 NA
HETATM   10  C   UNL     1      29.568  53.249  40.013  1.00  0.00     0.190 A 
HETATM   11  C   UNL     1      28.709  50.182  38.310  1.00  0.00     0.097 C 
ENDROOT
BRANCH   4  12
HETATM   12  C   UNL     1      31.404  51.079  41.381  1.00  0.00    -0.047 A 
HETATM   13  C   UNL     1      32.374  51.277  40.377  1.00  0.00     0.027 A 
HETATM   14  C   UNL     1      33.716  51.461  40.710  1.00  0.00     0.011 A 
HETATM   15 BR   UNL     1      34.994  51.714  39.340  1.00  0.00    -0.051 Br
HETATM   16  C   UNL     1      34.121  51.450  42.041  1.00  0.00     0.019 A 
HETATM   17  C   UNL     1      33.176  51.253  43.046  1.00  0.00     0.002 A 
HETATM   18  C   UNL     1      31.829  51.067  42.719  1.00  0.00     0.008 A 
ENDBRANCH   4  12
BRANCH   3  19
HETATM   19  C   UNL     1      30.726  48.518  40.292  1.00  0.00     0.266 C 
HETATM   20  O   UNL     1      31.144  48.356  39.151  1.00  0.00    -0.265 OA
BRANCH  19  21
HETATM   21  O   UNL     1      31.232  47.913  41.405  1.00  0.00    -0.326 OA
HETATM   22  C   UNL     1      32.641  47.685  41.366  1.00  0.00     0.213 C 
ENDBRANCH  19  21
ENDBRANCH   3  19
BRANCH   2  23
HETATM   23  O   UNL     1      28.305  47.911  39.087  1.00  0.00    -0.389 OA
HETATM   24  H   UNL     1      28.767  47.839  38.227  1.00  0.00     0.210 HD
ENDBRANCH   2  23
BRANCH  10  25
HETATM   25  O   UNL     1      29.899  54.108  40.971  1.00  0.00    -0.343 OA
HETATM   26  H   UNL     1      30.030  54.952  40.505  1.00  0.00     0.219 HD
ENDBRANCH  10  25
TORSDOF 5
ENDMDL
MODEL 8
REMARK VINA RESULT:      -6.3     12.152     14.436
REMARK  5 active torsions:
REMARK  status: ('A' for Active; 'I' for Inactive)
REMARK    1  A    between atoms: C_2  and  O_3 
REMARK    2  A    between atoms: C_4  and  C_5 
REMARK    3  A    between atoms: C_5  and  O_6 
REMARK    4  A    between atoms: C_9  and  C_10 
REMARK    5  A    between atoms: C_22  and  O_23 
ROOT
HETATM    1  C   UNL     1      25.796  47.199  49.569  1.00  0.00     0.047 C 
HETATM    2  C   UNL     1      25.309  46.501  50.855  1.00  0.00     0.073 C 
HETATM    3  C   UNL     1      26.543  45.938  51.651  1.00  0.00     0.133 C 
HETATM    4  C   UNL     1      27.189  44.642  51.053  1.00  0.00     0.074 C 
HETATM    5  C   UNL     1      26.267  43.894  50.144  1.00  0.00     0.030 A 
HETATM    6  C   UNL     1      24.952  44.243  49.922  1.00  0.00     0.042 A 
HETATM    7  N   UNL     1      24.449  43.355  49.014  1.00  0.00    -0.279 N 
HETATM    8  H   UNL     1      23.514  43.308  48.621  1.00  0.00     0.189 HD
HETATM    9  N   UNL     1      25.376  42.474  48.582  1.00  0.00    -0.149 NA
HETATM   10  C   UNL     1      26.457  42.825  49.267  1.00  0.00     0.190 A 
HETATM   11  C   UNL     1      24.255  45.408  50.503  1.00  0.00     0.097 C 
ENDROOT
BRANCH   4  12
HETATM   12  C   UNL     1      27.700  43.613  52.057  1.00  0.00    -0.047 A 
HETATM   13  C   UNL     1      28.751  43.891  52.956  1.00  0.00     0.027 A 
HETATM   14  C   UNL     1      29.210  42.912  53.837  1.00  0.00     0.011 A 
HETATM   15 BR   UNL     1      30.628  43.313  55.023  1.00  0.00    -0.051 Br
HETATM   16  C   UNL     1      28.640  41.643  53.844  1.00  0.00     0.019 A 
HETATM   17  C   UNL     1      27.601  41.351  52.961  1.00  0.00     0.002 A 
HETATM   18  C   UNL     1      27.137  42.327  52.074  1.00  0.00     0.008 A 
ENDBRANCH   4  12
BRANCH   3  19
HETATM   19  C   UNL     1      26.194  45.805  53.121  1.00  0.00     0.266 C 
HETATM   20  O   UNL     1      25.310  45.080  53.562  1.00  0.00    -0.265 OA
BRANCH  19  21
HETATM   21  O   UNL     1      26.968  46.642  53.869  1.00  0.00    -0.326 OA
HETATM   22  C   UNL     1      26.235  47.517  54.727  1.00  0.00     0.213 C 
ENDBRANCH  19  21
ENDBRANCH   3  19
BRANCH   2  23
HETATM   23  O   UNL     1      24.656  47.542  51.603  1.00  0.00    -0.389 OA
HETATM   24  H   UNL     1      25.252  48.319  51.618  1.00  0.00     0.210 HD
ENDBRANCH   2  23
BRANCH  10  25
HETATM   25  O   UNL     1      27.556  42.132  48.992  1.00  0.00    -0.343 OA
HETATM   26  H   UNL     1      27.927  41.908  49.863  1.00  0.00     0.219 HD
ENDBRANCH  10  25
TORSDOF 5
ENDMDL
MODEL 9
REMARK VINA RESULT:      -6.3     26.384     27.708
REMARK  5 active torsions:
REMARK  status: ('A' for Active; 'I' for Inactive)
REMARK    1  A    between atoms: C_2  and  O_3 
REMARK    2  A    between atoms: C_4  and  C_5 
REMARK    3  A    between atoms: C_5  and  O_6 
REMARK    4  A    between atoms: C_9  and  C_10 
REMARK    5  A    between atoms: C_22  and  O_23 
ROOT
HETATM    1  C   UNL     1      38.566  41.806  63.019  1.00  0.00     0.047 C 
HETATM    2  C   UNL     1      38.173  42.197  64.457  1.00  0.00     0.073 C 
HETATM    3  C   UNL     1      37.370  43.549  64.438  1.00  0.00     0.133 C 
HETATM    4  C   UNL     1      38.232  44.835  64.200  1.00  0.00     0.074 C 
HETATM    5  C   UNL     1      39.681  44.634  64.513  1.00  0.00     0.030 A 
HETATM    6  C   UNL     1      40.201  43.476  65.047  1.00  0.00     0.042 A 
HETATM    7  N   UNL     1      41.550  43.655  65.157  1.00  0.00    -0.279 N 
HETATM    8  H   UNL     1      42.251  43.011  65.511  1.00  0.00     0.189 HD
HETATM    9  N   UNL     1      41.957  44.847  64.672  1.00  0.00    -0.149 NA
HETATM   10  C   UNL     1      40.819  45.410  64.284  1.00  0.00     0.190 A 
HETATM   11  C   UNL     1      39.441  42.249  65.362  1.00  0.00     0.097 C 
ENDROOT
BRANCH   4  12
HETATM   12  C   UNL     1      37.815  46.083  64.970  1.00  0.00    -0.047 A 
HETATM   13  C   UNL     1      38.361  46.415  66.227  1.00  0.00     0.027 A 
HETATM   14  C   UNL     1      37.930  47.550  66.914  1.00  0.00     0.011 A 
HETATM   15 BR   UNL     1      38.676  47.962  68.602  1.00  0.00    -0.051 Br
HETATM   16  C   UNL     1      36.950  48.375  66.371  1.00  0.00     0.019 A 
HETATM   17  C   UNL     1      36.397  48.061  65.131  1.00  0.00     0.002 A 
HETATM   18  C   UNL     1      36.824  46.924  64.437  1.00  0.00     0.008 A 
ENDBRANCH   4  12
BRANCH   3  19
HETATM   19  C   UNL     1      36.486  43.644  65.666  1.00  0.00     0.266 C 
HETATM   20  O   UNL     1      36.870  43.456  66.815  1.00  0.00    -0.265 OA
BRANCH  19  21
HETATM   21  O   UNL     1      35.200  43.917  65.305  1.00  0.00    -0.326 OA
HETATM   22  C   UNL     1      34.212  43.200  66.044  1.00  0.00     0.213 C 
ENDBRANCH  19  21
ENDBRANCH   3  19
BRANCH   2  23
HETATM   23  O   UNL     1      37.335  41.117  64.905  1.00  0.00    -0.389 OA
HETATM   24  H   UNL     1      37.578  40.914  65.832  1.00  0.00     0.210 HD
ENDBRANCH   2  23
BRANCH  10  25
HETATM   25  O   UNL     1      40.938  46.602  63.712  1.00  0.00    -0.343 OA
HETATM   26  H   UNL     1      41.898  46.741  63.636  1.00  0.00     0.219 HD
ENDBRANCH  10  25
TORSDOF 5
ENDMDL
MODEL 10
REMARK VINA RESULT:      -6.3     13.826     15.557
REMARK  5 active torsions:
REMARK  status: ('A' for Active; 'I' for Inactive)
REMARK    1  A    between atoms: C_2  and  O_3 
REMARK    2  A    between atoms: C_4  and  C_5 
REMARK    3  A    between atoms: C_5  and  O_6 
REMARK    4  A    between atoms: C_9  and  C_10 
REMARK    5  A    between atoms: C_22  and  O_23 
ROOT
HETATM    1  C   UNL     1      19.808  46.845  47.894  1.00  0.00     0.047 C 
HETATM    2  C   UNL     1      18.409  47.219  48.423  1.00  0.00     0.073 C 
HETATM    3  C   UNL     1      17.712  48.210  47.420  1.00  0.00     0.133 C 
HETATM    4  C   UNL     1      18.247  49.682  47.455  1.00  0.00     0.074 C 
HETATM    5  C   UNL     1      18.958  50.017  48.726  1.00  0.00     0.030 A 
HETATM    6  C   UNL     1      19.058  49.162  49.802  1.00  0.00     0.042 A 
HETATM    7  N   UNL     1      19.803  49.798  50.753  1.00  0.00    -0.279 N 
HETATM    8  H   UNL     1      20.076  49.468  51.674  1.00  0.00     0.189 HD
HETATM    9  N   UNL     1      20.251  51.003  50.341  1.00  0.00    -0.149 NA
HETATM   10  C   UNL     1      19.738  51.105  49.121  1.00  0.00     0.190 A 
HETATM   11  C   UNL     1      18.520  47.788  49.869  1.00  0.00     0.097 C 
ENDROOT
BRANCH   4  12
HETATM   12  C   UNL     1      17.211  50.785  47.261  1.00  0.00    -0.047 A 
HETATM   13  C   UNL     1      16.529  51.380  48.342  1.00  0.00     0.027 A 
HETATM   14  C   UNL     1      15.565  52.364  48.121  1.00  0.00     0.011 A 
HETATM   15 BR   UNL     1      14.661  53.135  49.592  1.00  0.00    -0.051 Br
HETATM   16  C   UNL     1      15.259  52.776  46.828  1.00  0.00     0.019 A 
HETATM   17  C   UNL     1      15.923  52.197  45.748  1.00  0.00     0.002 A 
HETATM   18  C   UNL     1      16.889  51.209  45.962  1.00  0.00     0.008 A 
ENDBRANCH   4  12
BRANCH   3  19
HETATM   19  C   UNL     1      16.206  48.121  47.567  1.00  0.00     0.266 C 
HETATM   20  O   UNL     1      15.609  48.139  48.638  1.00  0.00    -0.265 OA
BRANCH  19  21
HETATM   21  O   UNL     1      15.618  47.969  46.346  1.00  0.00    -0.326 OA
HETATM   22  C   UNL     1      14.333  48.579  46.226  1.00  0.00     0.213 C 
ENDBRANCH  19  21
ENDBRANCH   3  19
BRANCH   2  23
HETATM   23  O   UNL     1      17.699  45.970  48.475  1.00  0.00    -0.389 OA
HETATM   24  H   UNL     1      17.083  46.007  49.235  1.00  0.00     0.210 HD
ENDBRANCH   2  23
BRANCH  10  25
HETATM   25  O   UNL     1      20.069  52.205  48.454  1.00  0.00    -0.343 OA
HETATM   26  H   UNL     1      20.367  51.883  47.587  1.00  0.00     0.219 HD
ENDBRANCH  10  25
TORSDOF 5
ENDMDL
