MODEL 1
REMARK VINA RESULT:      -9.1      0.000      0.000
REMARK  7 active torsions:
REMARK  status: ('A' for Active; 'I' for Inactive)
REMARK    1  A    between atoms: C_5  and  O_6 
REMARK    2  A    between atoms: O_6  and  C_7 
REMARK    3  A    between atoms: C_7  and  C_8 
REMARK       I    between atoms: C_8  and  N_9 
REMARK    4  A    between atoms: N_9  and  C_10 
REMARK    5  A    between atoms: C_13  and  N_14 
REMARK    6  A    between atoms: N_14  and  C_15 
REMARK    7  A    between atoms: C_15  and  C_16 
ROOT
HETATM    1  C   UNL     1      26.537  43.707  53.134  1.00  0.00     0.034 A 
HETATM    2  C   UNL     1      26.443  44.809  53.982  1.00  0.00     0.031 A 
HETATM    3  C   UNL     1      25.932  46.026  53.510  1.00  0.00     0.026 A 
HETATM    4  C   UNL     1      25.495  46.164  52.190  1.00  0.00     0.008 A 
HETATM    5  C   UNL     1      25.575  45.052  51.350  1.00  0.00     0.026 A 
HETATM    6  C   UNL     1      26.114  43.845  51.809  1.00  0.00     0.031 A 
ENDROOT
BRANCH   1   7
HETATM    7  N   UNL     1      27.106  42.477  53.494  1.00  0.00    -0.325 N 
HETATM    8  C   UNL     1      28.366  41.967  53.358  1.00  0.00     0.246 C 
HETATM    9  O   UNL     1      28.517  40.752  53.532  1.00  0.00    -0.271 OA
HETATM   10  H   UNL     1      26.491  41.814  53.952  1.00  0.00     0.169 HD
BRANCH   8  11
HETATM   11  C   UNL     1      29.571  42.857  53.067  1.00  0.00     0.278 C 
BRANCH  11  12
HETATM   12  O   UNL     1      30.590  42.618  54.028  1.00  0.00    -0.342 OA
BRANCH  12  13
HETATM   13  C   UNL     1      30.604  43.421  55.132  1.00  0.00     0.069 A 
HETATM   14  C   UNL     1      29.857  44.593  55.013  1.00  0.00     0.037 A 
HETATM   15  C   UNL     1      29.776  45.497  56.074  1.00  0.00     0.009 A 
HETATM   16  C   UNL     1      30.453  45.241  57.270  1.00  0.00    -0.062 A 
HETATM   17  C   UNL     1      30.380  46.203  58.418  1.00  0.00     0.048 C 
HETATM   18  C   UNL     1      31.224  44.077  57.377  1.00  0.00     0.009 A 
HETATM   19  C   UNL     1      31.302  43.171  56.313  1.00  0.00     0.037 A 
ENDBRANCH  12  13
ENDBRANCH  11  12
ENDBRANCH   8  11
ENDBRANCH   1   7
BRANCH   4  20
HETATM   20  N   UNL     1      24.995  47.381  51.699  1.00  0.00    -0.289 NA
HETATM   21  H   UNL     1      24.361  47.817  52.366  1.00  0.00     0.128 HD
BRANCH  20  22
HETATM   22  C   UNL     1      24.382  47.293  50.374  1.00  0.00     0.132 C 
BRANCH  22  23
HETATM   23  C   UNL     1      25.027  48.298  49.460  1.00  0.00    -0.027 A 
HETATM   24  C   UNL     1      24.269  49.055  48.571  1.00  0.00     0.124 A 
HETATM   25  N   UNL     1      24.785  49.981  47.730  1.00  0.00    -0.273 NA
HETATM   26  C   UNL     1      26.122  50.166  47.778  1.00  0.00     0.116 A 
HETATM   27  C   UNL     1      26.965  49.470  48.629  1.00  0.00     0.020 A 
HETATM   28  C   UNL     1      26.406  48.525  49.483  1.00  0.00     0.011 A 
ENDBRANCH  22  23
ENDBRANCH  20  22
ENDBRANCH   4  20
TORSDOF 7
ENDMDL
MODEL 2
REMARK VINA RESULT:      -9.0      3.367      7.323
REMARK  7 active torsions:
REMARK  status: ('A' for Active; 'I' for Inactive)
REMARK    1  A    between atoms: C_5  and  O_6 
REMARK    2  A    between atoms: O_6  and  C_7 
REMARK    3  A    between atoms: C_7  and  C_8 
REMARK       I    between atoms: C_8  and  N_9 
REMARK    4  A    between atoms: N_9  and  C_10 
REMARK    5  A    between atoms: C_13  and  N_14 
REMARK    6  A    between atoms: N_14  and  C_15 
REMARK    7  A    between atoms: C_15  and  C_16 
ROOT
HETATM    1  C   UNL     1      27.302  42.793  51.065  1.00  0.00     0.034 A 
HETATM    2  C   UNL     1      28.081  43.853  51.522  1.00  0.00     0.031 A 
HETATM    3  C   UNL     1      28.818  43.732  52.708  1.00  0.00     0.026 A 
HETATM    4  C   UNL     1      28.801  42.550  53.453  1.00  0.00     0.008 A 
HETATM    5  C   UNL     1      28.031  41.484  52.981  1.00  0.00     0.026 A 
HETATM    6  C   UNL     1      27.270  41.613  51.814  1.00  0.00     0.031 A 
ENDROOT
BRANCH   1   7
HETATM    7  N   UNL     1      26.471  42.849  49.935  1.00  0.00    -0.325 N 
HETATM    8  C   UNL     1      25.114  42.811  49.785  1.00  0.00     0.246 C 
HETATM    9  O   UNL     1      24.667  42.617  48.648  1.00  0.00    -0.271 OA
HETATM   10  H   UNL     1      26.936  42.942  49.040  1.00  0.00     0.169 HD
BRANCH   8  11
HETATM   11  C   UNL     1      24.163  43.062  50.951  1.00  0.00     0.278 C 
BRANCH  11  12
HETATM   12  O   UNL     1      23.965  44.460  51.119  1.00  0.00    -0.342 OA
BRANCH  12  13
HETATM   13  C   UNL     1      24.747  45.092  52.042  1.00  0.00     0.069 A 
HETATM   14  C   UNL     1      25.276  46.314  51.623  1.00  0.00     0.037 A 
HETATM   15  C   UNL     1      26.082  47.070  52.475  1.00  0.00     0.009 A 
HETATM   16  C   UNL     1      26.379  46.607  53.760  1.00  0.00    -0.062 A 
HETATM   17  C   UNL     1      27.247  47.404  54.686  1.00  0.00     0.048 C 
HETATM   18  C   UNL     1      25.869  45.367  54.168  1.00  0.00     0.009 A 
HETATM   19  C   UNL     1      25.058  44.611  53.313  1.00  0.00     0.037 A 
ENDBRANCH  12  13
ENDBRANCH  11  12
ENDBRANCH   8  11
ENDBRANCH   1   7
BRANCH   4  20
HETATM   20  N   UNL     1      29.523  42.419  54.650  1.00  0.00    -0.289 NA
HETATM   21  H   UNL     1      28.928  42.576  55.461  1.00  0.00     0.128 HD
BRANCH  20  22
HETATM   22  C   UNL     1      30.731  43.241  54.722  1.00  0.00     0.132 C 
BRANCH  22  23
HETATM   23  C   UNL     1      30.715  44.040  55.996  1.00  0.00    -0.027 A 
HETATM   24  C   UNL     1      31.526  43.697  57.073  1.00  0.00     0.124 A 
HETATM   25  N   UNL     1      31.567  44.378  58.241  1.00  0.00    -0.273 NA
HETATM   26  C   UNL     1      30.761  45.457  58.342  1.00  0.00     0.116 A 
HETATM   27  C   UNL     1      29.920  45.887  57.329  1.00  0.00     0.020 A 
HETATM   28  C   UNL     1      29.901  45.167  56.139  1.00  0.00     0.011 A 
ENDBRANCH  22  23
ENDBRANCH  20  22
ENDBRANCH   4  20
TORSDOF 7
ENDMDL
MODEL 3
REMARK VINA RESULT:      -8.9      2.885      7.200
REMARK  7 active torsions:
REMARK  status: ('A' for Active; 'I' for Inactive)
REMARK    1  A    between atoms: C_5  and  O_6 
REMARK    2  A    between atoms: O_6  and  C_7 
REMARK    3  A    between atoms: C_7  and  C_8 
REMARK       I    between atoms: C_8  and  N_9 
REMARK    4  A    between atoms: N_9  and  C_10 
REMARK    5  A    between atoms: C_13  and  N_14 
REMARK    6  A    between atoms: N_14  and  C_15 
REMARK    7  A    between atoms: C_15  and  C_16 
ROOT
HETATM    1  C   UNL     1      25.307  45.873  52.586  1.00  0.00     0.034 A 
HETATM    2  C   UNL     1      25.485  44.795  53.450  1.00  0.00     0.031 A 
HETATM    3  C   UNL     1      26.320  44.912  54.569  1.00  0.00     0.026 A 
HETATM    4  C   UNL     1      26.982  46.109  54.855  1.00  0.00     0.008 A 
HETATM    5  C   UNL     1      26.787  47.192  53.995  1.00  0.00     0.026 A 
HETATM    6  C   UNL     1      25.980  47.068  52.860  1.00  0.00     0.031 A 
ENDROOT
BRANCH   1   7
HETATM    7  N   UNL     1      24.558  45.824  51.401  1.00  0.00    -0.325 N 
HETATM    8  C   UNL     1      24.909  45.891  50.083  1.00  0.00     0.246 C 
HETATM    9  O   UNL     1      24.008  46.084  49.257  1.00  0.00    -0.271 OA
HETATM   10  H   UNL     1      23.556  45.713  51.507  1.00  0.00     0.169 HD
BRANCH   8  11
HETATM   11  C   UNL     1      26.345  45.672  49.616  1.00  0.00     0.278 C 
BRANCH  11  12
HETATM   12  O   UNL     1      26.539  44.305  49.280  1.00  0.00    -0.342 OA
BRANCH  12  13
HETATM   13  C   UNL     1      26.987  43.479  50.270  1.00  0.00     0.069 A 
HETATM   14  C   UNL     1      27.993  44.019  51.073  1.00  0.00     0.037 A 
HETATM   15  C   UNL     1      28.531  43.284  52.131  1.00  0.00     0.009 A 
HETATM   16  C   UNL     1      28.073  41.990  52.394  1.00  0.00    -0.062 A 
HETATM   17  C   UNL     1      28.643  41.185  53.523  1.00  0.00     0.048 C 
HETATM   18  C   UNL     1      27.082  41.441  51.569  1.00  0.00     0.009 A 
HETATM   19  C   UNL     1      26.542  42.180  50.510  1.00  0.00     0.037 A 
ENDBRANCH  12  13
ENDBRANCH  11  12
ENDBRANCH   8  11
ENDBRANCH   1   7
BRANCH   4  20
HETATM   20  N   UNL     1      27.833  46.237  55.965  1.00  0.00    -0.289 NA
HETATM   21  H   UNL     1      27.504  46.958  56.603  1.00  0.00     0.128 HD
BRANCH  20  22
HETATM   22  C   UNL     1      29.242  46.441  55.627  1.00  0.00     0.132 C 
BRANCH  22  23
HETATM   23  C   UNL     1      30.055  45.299  56.174  1.00  0.00    -0.027 A 
HETATM   24  C   UNL     1      30.617  45.358  57.446  1.00  0.00     0.124 A 
HETATM   25  N   UNL     1      31.349  44.365  58.000  1.00  0.00    -0.273 NA
HETATM   26  C   UNL     1      31.528  43.254  57.253  1.00  0.00     0.116 A 
HETATM   27  C   UNL     1      31.007  43.091  55.980  1.00  0.00     0.020 A 
HETATM   28  C   UNL     1      30.258  44.130  55.436  1.00  0.00     0.011 A 
ENDBRANCH  22  23
ENDBRANCH  20  22
ENDBRANCH   4  20
TORSDOF 7
ENDMDL
MODEL 4
REMARK VINA RESULT:      -8.7      1.669      2.776
REMARK  7 active torsions:
REMARK  status: ('A' for Active; 'I' for Inactive)
REMARK    1  A    between atoms: C_5  and  O_6 
REMARK    2  A    between atoms: O_6  and  C_7 
REMARK    3  A    between atoms: C_7  and  C_8 
REMARK       I    between atoms: C_8  and  N_9 
REMARK    4  A    between atoms: N_9  and  C_10 
REMARK    5  A    between atoms: C_13  and  N_14 
REMARK    6  A    between atoms: N_14  and  C_15 
REMARK    7  A    between atoms: C_15  and  C_16 
ROOT
HETATM    1  C   UNL     1      25.826  43.429  50.699  1.00  0.00     0.034 A 
HETATM    2  C   UNL     1      26.709  44.158  49.905  1.00  0.00     0.031 A 
HETATM    3  C   UNL     1      26.721  45.558  49.959  1.00  0.00     0.026 A 
HETATM    4  C   UNL     1      25.863  46.257  50.812  1.00  0.00     0.008 A 
HETATM    5  C   UNL     1      24.992  45.521  51.619  1.00  0.00     0.026 A 
HETATM    6  C   UNL     1      24.956  44.124  51.544  1.00  0.00     0.031 A 
ENDROOT
BRANCH   1   7
HETATM    7  N   UNL     1      25.687  42.034  50.655  1.00  0.00    -0.325 N 
HETATM    8  C   UNL     1      26.559  41.011  50.899  1.00  0.00     0.246 C 
HETATM    9  O   UNL     1      26.233  39.877  50.527  1.00  0.00    -0.271 OA
HETATM   10  H   UNL     1      24.771  41.681  50.401  1.00  0.00     0.169 HD
BRANCH   8  11
HETATM   11  C   UNL     1      27.864  41.224  51.659  1.00  0.00     0.278 C 
BRANCH  11  12
HETATM   12  O   UNL     1      27.598  41.341  53.050  1.00  0.00    -0.342 OA
BRANCH  12  13
HETATM   13  C   UNL     1      28.169  42.393  53.706  1.00  0.00     0.069 A 
HETATM   14  C   UNL     1      27.272  43.374  54.132  1.00  0.00     0.037 A 
HETATM   15  C   UNL     1      27.723  44.497  54.827  1.00  0.00     0.009 A 
HETATM   16  C   UNL     1      29.084  44.658  55.099  1.00  0.00    -0.062 A 
HETATM   17  C   UNL     1      29.586  45.861  55.841  1.00  0.00     0.048 C 
HETATM   18  C   UNL     1      29.985  43.685  54.647  1.00  0.00     0.009 A 
HETATM   19  C   UNL     1      29.531  42.558  53.952  1.00  0.00     0.037 A 
ENDBRANCH  12  13
ENDBRANCH  11  12
ENDBRANCH   8  11
ENDBRANCH   1   7
BRANCH   4  20
HETATM   20  N   UNL     1      25.854  47.660  50.866  1.00  0.00    -0.289 NA
HETATM   21  H   UNL     1      24.965  48.012  51.216  1.00  0.00     0.128 HD
BRANCH  20  22
HETATM   22  C   UNL     1      26.219  48.317  49.611  1.00  0.00     0.132 C 
BRANCH  22  23
HETATM   23  C   UNL     1      24.994  48.938  48.999  1.00  0.00    -0.027 A 
HETATM   24  C   UNL     1      25.095  49.872  47.973  1.00  0.00     0.124 A 
HETATM   25  N   UNL     1      24.034  50.460  47.374  1.00  0.00    -0.273 NA
HETATM   26  C   UNL     1      22.810  50.099  47.816  1.00  0.00     0.116 A 
HETATM   27  C   UNL     1      22.599  49.175  48.826  1.00  0.00     0.020 A 
HETATM   28  C   UNL     1      23.709  48.586  49.423  1.00  0.00     0.011 A 
ENDBRANCH  22  23
ENDBRANCH  20  22
ENDBRANCH   4  20
TORSDOF 7
ENDMDL
MODEL 5
REMARK VINA RESULT:      -8.7      1.507      2.143
REMARK  7 active torsions:
REMARK  status: ('A' for Active; 'I' for Inactive)
REMARK    1  A    between atoms: C_5  and  O_6 
REMARK    2  A    between atoms: O_6  and  C_7 
REMARK    3  A    between atoms: C_7  and  C_8 
REMARK       I    between atoms: C_8  and  N_9 
REMARK    4  A    between atoms: N_9  and  C_10 
REMARK    5  A    between atoms: C_13  and  N_14 
REMARK    6  A    between atoms: N_14  and  C_15 
REMARK    7  A    between atoms: C_15  and  C_16 
ROOT
HETATM    1  C   UNL     1      25.908  44.313  52.662  1.00  0.00     0.034 A 
HETATM    2  C   UNL     1      26.123  45.560  53.245  1.00  0.00     0.031 A 
HETATM    3  C   UNL     1      25.667  46.726  52.614  1.00  0.00     0.026 A 
HETATM    4  C   UNL     1      24.979  46.669  51.400  1.00  0.00     0.008 A 
HETATM    5  C   UNL     1      24.751  45.416  50.829  1.00  0.00     0.026 A 
HETATM    6  C   UNL     1      25.232  44.253  51.440  1.00  0.00     0.031 A 
ENDROOT
BRANCH   1   7
HETATM    7  N   UNL     1      26.396  43.103  53.177  1.00  0.00    -0.325 N 
HETATM    8  C   UNL     1      27.618  42.496  53.108  1.00  0.00     0.246 C 
HETATM    9  O   UNL     1      27.688  41.305  53.437  1.00  0.00    -0.271 OA
HETATM   10  H   UNL     1      25.742  42.548  53.717  1.00  0.00     0.169 HD
BRANCH   8  11
HETATM   11  C   UNL     1      28.878  43.257  52.706  1.00  0.00     0.278 C 
BRANCH  11  12
HETATM   12  O   UNL     1      29.926  42.972  53.622  1.00  0.00    -0.342 OA
BRANCH  12  13
HETATM   13  C   UNL     1      30.015  43.763  54.731  1.00  0.00     0.069 A 
HETATM   14  C   UNL     1      30.925  43.324  55.693  1.00  0.00     0.037 A 
HETATM   15  C   UNL     1      31.123  44.048  56.870  1.00  0.00     0.009 A 
HETATM   16  C   UNL     1      30.402  45.223  57.104  1.00  0.00    -0.062 A 
HETATM   17  C   UNL     1      30.599  46.011  58.364  1.00  0.00     0.048 C 
HETATM   18  C   UNL     1      29.469  45.646  56.148  1.00  0.00     0.009 A 
HETATM   19  C   UNL     1      29.274  44.920  54.968  1.00  0.00     0.037 A 
ENDBRANCH  12  13
ENDBRANCH  11  12
ENDBRANCH   8  11
ENDBRANCH   1   7
BRANCH   4  20
HETATM   20  N   UNL     1      24.528  47.830  50.749  1.00  0.00    -0.289 NA
HETATM   21  H   UNL     1      23.993  48.423  51.379  1.00  0.00     0.128 HD
BRANCH  20  22
HETATM   22  C   UNL     1      23.792  47.582  49.510  1.00  0.00     0.132 C 
BRANCH  22  23
HETATM   23  C   UNL     1      23.004  48.810  49.145  1.00  0.00    -0.027 A 
HETATM   24  C   UNL     1      21.613  48.789  49.102  1.00  0.00     0.124 A 
HETATM   25  N   UNL     1      20.846  49.858  48.792  1.00  0.00    -0.273 NA
HETATM   26  C   UNL     1      21.494  51.009  48.513  1.00  0.00     0.116 A 
HETATM   27  C   UNL     1      22.873  51.140  48.533  1.00  0.00     0.020 A 
HETATM   28  C   UNL     1      23.636  50.023  48.856  1.00  0.00     0.011 A 
ENDBRANCH  22  23
ENDBRANCH  20  22
ENDBRANCH   4  20
TORSDOF 7
ENDMDL
MODEL 6
REMARK VINA RESULT:      -8.5      1.945      2.848
REMARK  7 active torsions:
REMARK  status: ('A' for Active; 'I' for Inactive)
REMARK    1  A    between atoms: C_5  and  O_6 
REMARK    2  A    between atoms: O_6  and  C_7 
REMARK    3  A    between atoms: C_7  and  C_8 
REMARK       I    between atoms: C_8  and  N_9 
REMARK    4  A    between atoms: N_9  and  C_10 
REMARK    5  A    between atoms: C_13  and  N_14 
REMARK    6  A    between atoms: N_14  and  C_15 
REMARK    7  A    between atoms: C_15  and  C_16 
ROOT
HETATM    1  C   UNL     1      26.645  42.574  50.984  1.00  0.00     0.034 A 
HETATM    2  C   UNL     1      25.255  42.589  51.073  1.00  0.00     0.031 A 
HETATM    3  C   UNL     1      24.525  43.691  50.608  1.00  0.00     0.026 A 
HETATM    4  C   UNL     1      25.166  44.793  50.037  1.00  0.00     0.008 A 
HETATM    5  C   UNL     1      26.559  44.767  49.934  1.00  0.00     0.026 A 
HETATM    6  C   UNL     1      27.292  43.681  50.426  1.00  0.00     0.031 A 
ENDROOT
BRANCH   1   7
HETATM    7  N   UNL     1      27.462  41.553  51.493  1.00  0.00    -0.325 N 
HETATM    8  C   UNL     1      28.151  41.420  52.665  1.00  0.00     0.246 C 
HETATM    9  O   UNL     1      29.000  40.523  52.734  1.00  0.00    -0.271 OA
HETATM   10  H   UNL     1      27.580  40.737  50.905  1.00  0.00     0.169 HD
BRANCH   8  11
HETATM   11  C   UNL     1      27.856  42.294  53.881  1.00  0.00     0.278 C 
BRANCH  11  12
HETATM   12  O   UNL     1      28.638  43.479  53.823  1.00  0.00    -0.342 OA
BRANCH  12  13
HETATM   13  C   UNL     1      28.018  44.649  54.158  1.00  0.00     0.069 A 
HETATM   14  C   UNL     1      28.783  45.514  54.942  1.00  0.00     0.037 A 
HETATM   15  C   UNL     1      28.275  46.750  55.343  1.00  0.00     0.009 A 
HETATM   16  C   UNL     1      26.983  47.134  54.971  1.00  0.00    -0.062 A 
HETATM   17  C   UNL     1      26.419  48.457  55.397  1.00  0.00     0.048 C 
HETATM   18  C   UNL     1      26.208  46.252  54.207  1.00  0.00     0.009 A 
HETATM   19  C   UNL     1      26.721  45.014  53.803  1.00  0.00     0.037 A 
ENDBRANCH  12  13
ENDBRANCH  11  12
ENDBRANCH   8  11
ENDBRANCH   1   7
BRANCH   4  20
HETATM   20  N   UNL     1      24.449  45.912  49.580  1.00  0.00    -0.289 NA
HETATM   21  H   UNL     1      24.658  46.112  48.604  1.00  0.00     0.128 HD
BRANCH  20  22
HETATM   22  C   UNL     1      24.605  47.109  50.405  1.00  0.00     0.132 C 
BRANCH  22  23
HETATM   23  C   UNL     1      25.368  48.150  49.633  1.00  0.00    -0.027 A 
HETATM   24  C   UNL     1      24.716  49.050  48.795  1.00  0.00     0.124 A 
HETATM   25  N   UNL     1      25.340  50.014  48.081  1.00  0.00    -0.273 NA
HETATM   26  C   UNL     1      26.682  50.090  48.209  1.00  0.00     0.116 A 
HETATM   27  C   UNL     1      27.427  49.249  49.019  1.00  0.00     0.020 A 
HETATM   28  C   UNL     1      26.757  48.267  49.742  1.00  0.00     0.011 A 
ENDBRANCH  22  23
ENDBRANCH  20  22
ENDBRANCH   4  20
TORSDOF 7
ENDMDL
MODEL 7
REMARK VINA RESULT:      -8.4      3.459      6.413
REMARK  7 active torsions:
REMARK  status: ('A' for Active; 'I' for Inactive)
REMARK    1  A    between atoms: C_5  and  O_6 
REMARK    2  A    between atoms: O_6  and  C_7 
REMARK    3  A    between atoms: C_7  and  C_8 
REMARK       I    between atoms: C_8  and  N_9 
REMARK    4  A    between atoms: N_9  and  C_10 
REMARK    5  A    between atoms: C_13  and  N_14 
REMARK    6  A    between atoms: N_14  and  C_15 
REMARK    7  A    between atoms: C_15  and  C_16 
ROOT
HETATM    1  C   UNL     1      26.325  45.414  52.805  1.00  0.00     0.034 A 
HETATM    2  C   UNL     1      26.554  44.161  53.368  1.00  0.00     0.031 A 
HETATM    3  C   UNL     1      26.932  43.079  52.561  1.00  0.00     0.026 A 
HETATM    4  C   UNL     1      27.101  43.229  51.183  1.00  0.00     0.008 A 
HETATM    5  C   UNL     1      26.887  44.492  50.626  1.00  0.00     0.026 A 
HETATM    6  C   UNL     1      26.479  45.566  51.424  1.00  0.00     0.031 A 
ENDROOT
BRANCH   1   7
HETATM    7  N   UNL     1      25.868  46.532  53.520  1.00  0.00    -0.325 N 
HETATM    8  C   UNL     1      26.418  47.274  54.525  1.00  0.00     0.246 C 
HETATM    9  O   UNL     1      25.675  48.046  55.144  1.00  0.00    -0.271 OA
HETATM   10  H   UNL     1      24.955  46.889  53.259  1.00  0.00     0.169 HD
BRANCH   8  11
HETATM   11  C   UNL     1      27.908  47.217  54.850  1.00  0.00     0.278 C 
BRANCH  11  12
HETATM   12  O   UNL     1      28.090  46.947  56.233  1.00  0.00    -0.342 OA
BRANCH  12  13
HETATM   13  C   UNL     1      29.068  46.056  56.570  1.00  0.00     0.069 A 
HETATM   14  C   UNL     1      29.434  45.176  55.551  1.00  0.00     0.037 A 
HETATM   15  C   UNL     1      30.433  44.223  55.758  1.00  0.00     0.009 A 
HETATM   16  C   UNL     1      31.074  44.132  56.997  1.00  0.00    -0.062 A 
HETATM   17  C   UNL     1      32.145  43.110  57.237  1.00  0.00     0.048 C 
HETATM   18  C   UNL     1      30.685  44.999  58.026  1.00  0.00     0.009 A 
HETATM   19  C   UNL     1      29.685  45.956  57.816  1.00  0.00     0.037 A 
ENDBRANCH  12  13
ENDBRANCH  11  12
ENDBRANCH   8  11
ENDBRANCH   1   7
BRANCH   4  20
HETATM   20  N   UNL     1      27.465  42.151  50.359  1.00  0.00    -0.289 NA
HETATM   21  H   UNL     1      26.700  41.876  49.748  1.00  0.00     0.128 HD
BRANCH  20  22
HETATM   22  C   UNL     1      28.003  40.996  51.078  1.00  0.00     0.132 C 
BRANCH  22  23
HETATM   23  C   UNL     1      28.395  39.933  50.088  1.00  0.00    -0.027 A 
HETATM   24  C   UNL     1      29.119  38.812  50.482  1.00  0.00     0.124 A 
HETATM   25  N   UNL     1      29.494  37.818  49.646  1.00  0.00    -0.273 NA
HETATM   26  C   UNL     1      29.127  37.942  48.353  1.00  0.00     0.116 A 
HETATM   27  C   UNL     1      28.401  39.012  47.858  1.00  0.00     0.020 A 
HETATM   28  C   UNL     1      28.029  40.020  48.742  1.00  0.00     0.011 A 
ENDBRANCH  22  23
ENDBRANCH  20  22
ENDBRANCH   4  20
TORSDOF 7
ENDMDL
MODEL 8
REMARK VINA RESULT:      -8.3      3.036      5.516
REMARK  7 active torsions:
REMARK  status: ('A' for Active; 'I' for Inactive)
REMARK    1  A    between atoms: C_5  and  O_6 
REMARK    2  A    between atoms: O_6  and  C_7 
REMARK    3  A    between atoms: C_7  and  C_8 
REMARK       I    between atoms: C_8  and  N_9 
REMARK    4  A    between atoms: N_9  and  C_10 
REMARK    5  A    between atoms: C_13  and  N_14 
REMARK    6  A    between atoms: N_14  and  C_15 
REMARK    7  A    between atoms: C_15  and  C_16 
ROOT
HETATM    1  C   UNL     1      25.557  46.704  52.176  1.00  0.00     0.034 A 
HETATM    2  C   UNL     1      26.062  47.125  50.947  1.00  0.00     0.031 A 
HETATM    3  C   UNL     1      26.167  46.225  49.878  1.00  0.00     0.026 A 
HETATM    4  C   UNL     1      25.760  44.895  50.010  1.00  0.00     0.008 A 
HETATM    5  C   UNL     1      25.239  44.483  51.238  1.00  0.00     0.026 A 
HETATM    6  C   UNL     1      25.162  45.371  52.317  1.00  0.00     0.031 A 
ENDROOT
BRANCH   1   7
HETATM    7  N   UNL     1      25.490  47.510  53.323  1.00  0.00    -0.325 N 
HETATM    8  C   UNL     1      26.272  47.594  54.440  1.00  0.00     0.246 C 
HETATM    9  O   UNL     1      25.823  48.216  55.410  1.00  0.00    -0.271 OA
HETATM   10  H   UNL     1      24.727  48.176  53.359  1.00  0.00     0.169 HD
BRANCH   8  11
HETATM   11  C   UNL     1      27.678  47.005  54.488  1.00  0.00     0.278 C 
BRANCH  11  12
HETATM   12  O   UNL     1      27.607  45.605  54.724  1.00  0.00    -0.342 OA
BRANCH  12  13
HETATM   13  C   UNL     1      28.723  45.001  55.226  1.00  0.00     0.069 A 
HETATM   14  C   UNL     1      29.281  45.632  56.338  1.00  0.00     0.037 A 
HETATM   15  C   UNL     1      30.418  45.110  56.957  1.00  0.00     0.009 A 
HETATM   16  C   UNL     1      31.019  43.949  56.463  1.00  0.00    -0.062 A 
HETATM   17  C   UNL     1      32.243  43.377  57.113  1.00  0.00     0.048 C 
HETATM   18  C   UNL     1      30.472  43.333  55.329  1.00  0.00     0.009 A 
HETATM   19  C   UNL     1      29.331  43.856  54.711  1.00  0.00     0.037 A 
ENDBRANCH  12  13
ENDBRANCH  11  12
ENDBRANCH   8  11
ENDBRANCH   1   7
BRANCH   4  20
HETATM   20  N   UNL     1      25.872  43.978  48.952  1.00  0.00    -0.289 NA
HETATM   21  H   UNL     1      25.433  44.333  48.105  1.00  0.00     0.128 HD
BRANCH  20  22
HETATM   22  C   UNL     1      25.393  42.631  49.264  1.00  0.00     0.132 C 
BRANCH  22  23
HETATM   23  C   UNL     1      26.552  41.673  49.238  1.00  0.00    -0.027 A 
HETATM   24  C   UNL     1      26.994  41.043  50.398  1.00  0.00     0.124 A 
HETATM   25  N   UNL     1      28.022  40.165  50.441  1.00  0.00    -0.273 NA
HETATM   26  C   UNL     1      28.640  39.897  49.271  1.00  0.00     0.116 A 
HETATM   27  C   UNL     1      28.276  40.463  48.061  1.00  0.00     0.020 A 
HETATM   28  C   UNL     1      27.215  41.362  48.047  1.00  0.00     0.011 A 
ENDBRANCH  22  23
ENDBRANCH  20  22
ENDBRANCH   4  20
TORSDOF 7
ENDMDL
MODEL 9
REMARK VINA RESULT:      -8.3     12.246     14.515
REMARK  7 active torsions:
REMARK  status: ('A' for Active; 'I' for Inactive)
REMARK    1  A    between atoms: C_5  and  O_6 
REMARK    2  A    between atoms: O_6  and  C_7 
REMARK    3  A    between atoms: C_7  and  C_8 
REMARK       I    between atoms: C_8  and  N_9 
REMARK    4  A    between atoms: N_9  and  C_10 
REMARK    5  A    between atoms: C_13  and  N_14 
REMARK    6  A    between atoms: N_14  and  C_15 
REMARK    7  A    between atoms: C_15  and  C_16 
ROOT
HETATM    1  C   UNL     1      28.998  47.806  41.122  1.00  0.00     0.034 A 
HETATM    2  C   UNL     1      29.863  47.348  40.131  1.00  0.00     0.031 A 
HETATM    3  C   UNL     1      31.205  47.749  40.119  1.00  0.00     0.026 A 
HETATM    4  C   UNL     1      31.713  48.604  41.101  1.00  0.00     0.008 A 
HETATM    5  C   UNL     1      30.846  49.047  42.102  1.00  0.00     0.026 A 
HETATM    6  C   UNL     1      29.498  48.673  42.098  1.00  0.00     0.031 A 
ENDROOT
BRANCH   1   7
HETATM    7  N   UNL     1      27.624  47.523  41.169  1.00  0.00    -0.325 N 
HETATM    8  C   UNL     1      26.550  48.048  40.509  1.00  0.00     0.246 C 
HETATM    9  O   UNL     1      25.423  47.782  40.943  1.00  0.00    -0.271 OA
HETATM   10  H   UNL     1      27.339  46.785  41.803  1.00  0.00     0.169 HD
BRANCH   8  11
HETATM   11  C   UNL     1      26.709  48.882  39.241  1.00  0.00     0.278 C 
BRANCH  11  12
HETATM   12  O   UNL     1      26.452  50.250  39.530  1.00  0.00    -0.342 OA
BRANCH  12  13
HETATM   13  C   UNL     1      27.503  50.999  39.977  1.00  0.00     0.069 A 
HETATM   14  C   UNL     1      28.635  50.966  39.162  1.00  0.00     0.037 A 
HETATM   15  C   UNL     1      29.775  51.699  39.497  1.00  0.00     0.009 A 
HETATM   16  C   UNL     1      29.799  52.470  40.663  1.00  0.00    -0.062 A 
HETATM   17  C   UNL     1      31.017  53.259  41.040  1.00  0.00     0.048 C 
HETATM   18  C   UNL     1      28.671  52.479  41.493  1.00  0.00     0.009 A 
HETATM   19  C   UNL     1      27.527  51.746  41.154  1.00  0.00     0.037 A 
ENDBRANCH  12  13
ENDBRANCH  11  12
ENDBRANCH   8  11
ENDBRANCH   1   7
BRANCH   4  20
HETATM   20  N   UNL     1      33.052  49.026  41.094  1.00  0.00    -0.289 NA
HETATM   21  H   UNL     1      33.521  48.786  41.964  1.00  0.00     0.128 HD
BRANCH  20  22
HETATM   22  C   UNL     1      33.240  50.441  40.772  1.00  0.00     0.132 C 
BRANCH  22  23
HETATM   23  C   UNL     1      33.962  51.118  41.904  1.00  0.00    -0.027 A 
HETATM   24  C   UNL     1      35.258  51.600  41.747  1.00  0.00     0.124 A 
HETATM   25  N   UNL     1      35.959  52.225  42.720  1.00  0.00    -0.273 NA
HETATM   26  C   UNL     1      35.339  52.382  43.909  1.00  0.00     0.116 A 
HETATM   27  C   UNL     1      34.050  51.946  44.169  1.00  0.00     0.020 A 
HETATM   28  C   UNL     1      33.354  51.306  43.148  1.00  0.00     0.011 A 
ENDBRANCH  22  23
ENDBRANCH  20  22
ENDBRANCH   4  20
TORSDOF 7
ENDMDL
MODEL 10
REMARK VINA RESULT:      -8.2     12.797     14.872
REMARK  7 active torsions:
REMARK  status: ('A' for Active; 'I' for Inactive)
REMARK    1  A    between atoms: C_5  and  O_6 
REMARK    2  A    between atoms: O_6  and  C_7 
REMARK    3  A    between atoms: C_7  and  C_8 
REMARK       I    between atoms: C_8  and  N_9 
REMARK    4  A    between atoms: N_9  and  C_10 
REMARK    5  A    between atoms: C_13  and  N_14 
REMARK    6  A    between atoms: N_14  and  C_15 
REMARK    7  A    between atoms: C_15  and  C_16 
ROOT
HETATM    1  C   UNL     1      29.430  48.082  38.975  1.00  0.00     0.034 A 
HETATM    2  C   UNL     1      30.218  49.209  38.753  1.00  0.00     0.031 A 
HETATM    3  C   UNL     1      31.442  49.361  39.419  1.00  0.00     0.026 A 
HETATM    4  C   UNL     1      31.907  48.388  40.308  1.00  0.00     0.008 A 
HETATM    5  C   UNL     1      31.122  47.252  40.513  1.00  0.00     0.026 A 
HETATM    6  C   UNL     1      29.885  47.113  39.873  1.00  0.00     0.031 A 
ENDROOT
BRANCH   1   7
HETATM    7  N   UNL     1      28.158  47.882  38.416  1.00  0.00    -0.325 N 
HETATM    8  C   UNL     1      26.897  48.097  38.893  1.00  0.00     0.246 C 
HETATM    9  O   UNL     1      25.954  47.583  38.278  1.00  0.00    -0.271 OA
HETATM   10  H   UNL     1      28.135  47.512  37.473  1.00  0.00     0.169 HD
BRANCH   8  11
HETATM   11  C   UNL     1      26.630  48.989  40.102  1.00  0.00     0.278 C 
BRANCH  11  12
HETATM   12  O   UNL     1      26.602  50.352  39.698  1.00  0.00    -0.342 OA
BRANCH  12  13
HETATM   13  C   UNL     1      27.652  51.136  40.083  1.00  0.00     0.069 A 
HETATM   14  C   UNL     1      28.124  52.006  39.100  1.00  0.00     0.037 A 
HETATM   15  C   UNL     1      29.185  52.873  39.367  1.00  0.00     0.009 A 
HETATM   16  C   UNL     1      29.795  52.873  40.625  1.00  0.00    -0.062 A 
HETATM   17  C   UNL     1      30.939  53.794  40.927  1.00  0.00     0.048 C 
HETATM   18  C   UNL     1      29.336  51.978  41.601  1.00  0.00     0.009 A 
HETATM   19  C   UNL     1      28.271  51.112  41.332  1.00  0.00     0.037 A 
ENDBRANCH  12  13
ENDBRANCH  11  12
ENDBRANCH   8  11
ENDBRANCH   1   7
BRANCH   4  20
HETATM   20  N   UNL     1      33.125  48.533  40.993  1.00  0.00    -0.289 NA
HETATM   21  H   UNL     1      33.030  48.283  41.975  1.00  0.00     0.128 HD
BRANCH  20  22
HETATM   22  C   UNL     1      33.749  49.848  40.847  1.00  0.00     0.132 C 
BRANCH  22  23
HETATM   23  C   UNL     1      33.616  50.609  42.137  1.00  0.00    -0.027 A 
HETATM   24  C   UNL     1      34.673  51.356  42.647  1.00  0.00     0.124 A 
HETATM   25  N   UNL     1      34.616  52.069  43.795  1.00  0.00    -0.273 NA
HETATM   26  C   UNL     1      33.446  52.041  44.469  1.00  0.00     0.116 A 
HETATM   27  C   UNL     1      32.332  51.335  44.047  1.00  0.00     0.020 A 
HETATM   28  C   UNL     1      32.420  50.611  42.862  1.00  0.00     0.011 A 
ENDBRANCH  22  23
ENDBRANCH  20  22
ENDBRANCH   4  20
TORSDOF 7
ENDMDL
