MODEL 1
REMARK VINA RESULT:      -9.0      0.000      0.000
REMARK  7 active torsions:
REMARK  status: ('A' for Active; 'I' for Inactive)
REMARK    1  A    between atoms: C_2  and  O_3 
REMARK    2  A    between atoms: O_3  and  C_4 
REMARK    3  A    between atoms: C_7  and  N_8 
REMARK    4  A    between atoms: C_9  and  O_10 
REMARK    5  A    between atoms: C_9  and  C_11 
REMARK       I    between atoms: C_11  and  N_12 
REMARK    6  A    between atoms: N_12  and  C_13 
REMARK    7  A    between atoms: C_13  and  C_14 
ROOT
HETATM    1  N   UNL     1      25.414  43.404  50.506  1.00  0.00    -0.254 N 
HETATM    2  C   UNL     1      26.686  42.788  50.087  1.00  0.00     0.256 C 
HETATM    3  C   UNL     1      26.521  41.880  48.890  1.00  0.00     0.034 A 
HETATM    4  C   UNL     1      25.290  41.255  48.720  1.00  0.00     0.048 A 
HETATM    5  N   UNL     1      24.262  41.563  49.607  1.00  0.00    -0.308 N 
HETATM    6  C   UNL     1      24.257  42.635  50.462  1.00  0.00     0.330 C 
HETATM    7  O   UNL     1      23.214  42.863  51.074  1.00  0.00    -0.246 OA
HETATM    8  C   UNL     1      27.563  41.572  48.004  1.00  0.00     0.015 A 
HETATM    9  C   UNL     1      27.362  40.661  46.965  1.00  0.00     0.001 A 
HETATM   10  C   UNL     1      26.124  40.038  46.816  1.00  0.00     0.002 A 
HETATM   11  C   UNL     1      25.085  40.326  47.701  1.00  0.00     0.030 A 
HETATM   12  H   UNL     1      23.358  41.115  49.507  1.00  0.00     0.170 HD
ENDROOT
BRANCH   2  13
HETATM   13  O   UNL     1      27.643  43.786  49.717  1.00  0.00    -0.359 OA
HETATM   14  H   UNL     1      28.500  43.425  50.016  1.00  0.00     0.213 HD
ENDBRANCH   2  13
BRANCH   2  15
HETATM   15  C   UNL     1      27.279  41.975  51.317  1.00  0.00     0.279 C 
HETATM   16  N   UNL     1      28.305  42.559  52.030  1.00  0.00    -0.352 N 
HETATM   17  H   UNL     1      28.613  43.495  51.797  1.00  0.00     0.162 HD
HETATM   18  O   UNL     1      26.839  40.859  51.609  1.00  0.00    -0.268 OA
BRANCH  16  19
HETATM   19  C   UNL     1      28.875  41.920  53.190  1.00  0.00     0.161 C 
BRANCH  19  20
HETATM   20  C   UNL     1      29.332  42.949  54.190  1.00  0.00    -0.040 A 
HETATM   21  C   UNL     1      28.659  44.176  54.305  1.00  0.00     0.012 A 
HETATM   22  C   UNL     1      29.102  45.142  55.209  1.00  0.00     0.043 A 
HETATM   23  C   UNL     1      30.219  44.886  55.994  1.00  0.00     0.116 A 
HETATM   24  F   UNL     1      30.644  45.815  56.861  1.00  0.00    -0.206 F 
HETATM   25  C   UNL     1      30.906  43.683  55.888  1.00  0.00     0.043 A 
HETATM   26  C   UNL     1      30.468  42.715  54.982  1.00  0.00     0.012 A 
ENDBRANCH  19  20
ENDBRANCH  16  19
ENDBRANCH   2  15
BRANCH   1  27
HETATM   27  C   UNL     1      25.452  44.592  51.305  1.00  0.00     0.043 A 
HETATM   28  C   UNL     1      25.498  45.868  50.732  1.00  0.00     0.032 A 
HETATM   29  C   UNL     1      25.538  47.018  51.535  1.00  0.00     0.039 A 
HETATM   30  C   UNL     1      25.545  46.904  52.924  1.00  0.00     0.068 A 
HETATM   31  C   UNL     1      25.540  45.635  53.499  1.00  0.00     0.039 A 
HETATM   32  C   UNL     1      25.494  44.491  52.700  1.00  0.00     0.032 A 
BRANCH  30  33
HETATM   33  O   UNL     1      25.582  47.934  53.819  1.00  0.00    -0.352 OA
BRANCH  33  34
HETATM   34  C   UNL     1      26.499  47.815  54.904  1.00  0.00     0.171 C 
HETATM   35  C   UNL     1      26.143  48.879  55.929  1.00  0.00     0.034 C 
ENDBRANCH  33  34
ENDBRANCH  30  33
ENDBRANCH   1  27
TORSDOF 7
ENDMDL
MODEL 2
REMARK VINA RESULT:      -8.7      3.369      6.343
REMARK  7 active torsions:
REMARK  status: ('A' for Active; 'I' for Inactive)
REMARK    1  A    between atoms: C_2  and  O_3 
REMARK    2  A    between atoms: O_3  and  C_4 
REMARK    3  A    between atoms: C_7  and  N_8 
REMARK    4  A    between atoms: C_9  and  O_10 
REMARK    5  A    between atoms: C_9  and  C_11 
REMARK       I    between atoms: C_11  and  N_12 
REMARK    6  A    between atoms: N_12  and  C_13 
REMARK    7  A    between atoms: C_13  and  C_14 
ROOT
HETATM    1  N   UNL     1      26.707  42.706  50.687  1.00  0.00    -0.254 N 
HETATM    2  C   UNL     1      25.657  43.737  50.601  1.00  0.00     0.256 C 
HETATM    3  C   UNL     1      24.543  43.349  49.654  1.00  0.00     0.034 A 
HETATM    4  C   UNL     1      24.863  42.510  48.592  1.00  0.00     0.048 A 
HETATM    5  N   UNL     1      26.160  42.012  48.508  1.00  0.00    -0.308 N 
HETATM    6  C   UNL     1      27.080  42.040  49.525  1.00  0.00     0.330 C 
HETATM    7  O   UNL     1      28.131  41.424  49.350  1.00  0.00    -0.246 OA
HETATM    8  C   UNL     1      23.240  43.859  49.745  1.00  0.00     0.015 A 
HETATM    9  C   UNL     1      22.281  43.521  48.789  1.00  0.00     0.001 A 
HETATM   10  C   UNL     1      22.623  42.686  47.725  1.00  0.00     0.002 A 
HETATM   11  C   UNL     1      23.920  42.185  47.619  1.00  0.00     0.030 A 
HETATM   12  H   UNL     1      26.418  41.404  47.739  1.00  0.00     0.170 HD
ENDROOT
BRANCH   2  13
HETATM   13  O   UNL     1      25.052  43.961  51.878  1.00  0.00    -0.359 OA
HETATM   14  H   UNL     1      24.103  44.082  51.680  1.00  0.00     0.213 HD
ENDBRANCH   2  13
BRANCH   2  15
HETATM   15  C   UNL     1      26.328  45.099  50.132  1.00  0.00     0.279 C 
HETATM   16  N   UNL     1      25.897  46.261  50.738  1.00  0.00    -0.352 N 
HETATM   17  H   UNL     1      25.221  46.218  51.491  1.00  0.00     0.162 HD
HETATM   18  O   UNL     1      27.193  45.108  49.251  1.00  0.00    -0.268 OA
BRANCH  16  19
HETATM   19  C   UNL     1      26.480  47.539  50.414  1.00  0.00     0.161 C 
BRANCH  19  20
HETATM   20  C   UNL     1      25.532  48.357  49.577  1.00  0.00    -0.040 A 
HETATM   21  C   UNL     1      24.154  48.087  49.596  1.00  0.00     0.012 A 
HETATM   22  C   UNL     1      23.279  48.823  48.796  1.00  0.00     0.043 A 
HETATM   23  C   UNL     1      23.781  49.824  47.973  1.00  0.00     0.116 A 
HETATM   24  F   UNL     1      22.940  50.530  47.205  1.00  0.00    -0.206 F 
HETATM   25  C   UNL     1      25.142  50.100  47.931  1.00  0.00     0.043 A 
HETATM   26  C   UNL     1      26.020  49.363  48.728  1.00  0.00     0.012 A 
ENDBRANCH  19  20
ENDBRANCH  16  19
ENDBRANCH   2  15
BRANCH   1  27
HETATM   27  C   UNL     1      27.576  42.699  51.825  1.00  0.00     0.043 A 
HETATM   28  C   UNL     1      28.492  43.730  52.063  1.00  0.00     0.032 A 
HETATM   29  C   UNL     1      29.335  43.700  53.184  1.00  0.00     0.039 A 
HETATM   30  C   UNL     1      29.282  42.629  54.074  1.00  0.00     0.068 A 
HETATM   31  C   UNL     1      28.400  41.581  53.820  1.00  0.00     0.039 A 
HETATM   32  C   UNL     1      27.556  41.614  52.708  1.00  0.00     0.032 A 
BRANCH  30  33
HETATM   33  O   UNL     1      30.041  42.474  55.199  1.00  0.00    -0.352 OA
BRANCH  33  34
HETATM   34  C   UNL     1      30.718  43.631  55.685  1.00  0.00     0.171 C 
HETATM   35  C   UNL     1      31.475  43.229  56.940  1.00  0.00     0.034 C 
ENDBRANCH  33  34
ENDBRANCH  30  33
ENDBRANCH   1  27
TORSDOF 7
ENDMDL
MODEL 3
REMARK VINA RESULT:      -8.3      2.319      3.275
REMARK  7 active torsions:
REMARK  status: ('A' for Active; 'I' for Inactive)
REMARK    1  A    between atoms: C_2  and  O_3 
REMARK    2  A    between atoms: O_3  and  C_4 
REMARK    3  A    between atoms: C_7  and  N_8 
REMARK    4  A    between atoms: C_9  and  O_10 
REMARK    5  A    between atoms: C_9  and  C_11 
REMARK       I    between atoms: C_11  and  N_12 
REMARK    6  A    between atoms: N_12  and  C_13 
REMARK    7  A    between atoms: C_13  and  C_14 
ROOT
HETATM    1  N   UNL     1      24.858  44.158  50.362  1.00  0.00    -0.254 N 
HETATM    2  C   UNL     1      26.214  43.913  50.884  1.00  0.00     0.256 C 
HETATM    3  C   UNL     1      26.673  42.490  50.655  1.00  0.00     0.034 A 
HETATM    4  C   UNL     1      25.698  41.500  50.599  1.00  0.00     0.048 A 
HETATM    5  N   UNL     1      24.362  41.881  50.671  1.00  0.00    -0.308 N 
HETATM    6  C   UNL     1      23.899  43.162  50.510  1.00  0.00     0.330 C 
HETATM    7  O   UNL     1      22.680  43.317  50.449  1.00  0.00    -0.246 OA
HETATM    8  C   UNL     1      28.023  42.116  50.587  1.00  0.00     0.015 A 
HETATM    9  C   UNL     1      28.377  40.773  50.455  1.00  0.00     0.001 A 
HETATM   10  C   UNL     1      27.386  39.792  50.409  1.00  0.00     0.002 A 
HETATM   11  C   UNL     1      26.042  40.154  50.491  1.00  0.00     0.030 A 
HETATM   12  H   UNL     1      23.634  41.176  50.639  1.00  0.00     0.170 HD
ENDROOT
BRANCH   2  13
HETATM   13  O   UNL     1      27.172  44.762  50.244  1.00  0.00    -0.359 OA
HETATM   14  H   UNL     1      27.165  45.582  50.776  1.00  0.00     0.213 HD
ENDBRANCH   2  13
BRANCH   2  15
HETATM   15  C   UNL     1      26.222  44.251  52.437  1.00  0.00     0.279 C 
HETATM   16  N   UNL     1      27.315  44.930  52.934  1.00  0.00    -0.352 N 
HETATM   17  H   UNL     1      28.045  45.243  52.306  1.00  0.00     0.162 HD
HETATM   18  O   UNL     1      25.287  43.905  53.165  1.00  0.00    -0.268 OA
BRANCH  16  19
HETATM   19  C   UNL     1      27.391  45.323  54.319  1.00  0.00     0.161 C 
BRANCH  19  20
HETATM   20  C   UNL     1      28.668  44.824  54.942  1.00  0.00    -0.040 A 
HETATM   21  C   UNL     1      29.225  43.601  54.536  1.00  0.00     0.012 A 
HETATM   22  C   UNL     1      30.392  43.123  55.136  1.00  0.00     0.043 A 
HETATM   23  C   UNL     1      30.997  43.863  56.144  1.00  0.00     0.116 A 
HETATM   24  F   UNL     1      32.116  43.403  56.719  1.00  0.00    -0.206 F 
HETATM   25  C   UNL     1      30.456  45.071  56.568  1.00  0.00     0.043 A 
HETATM   26  C   UNL     1      29.288  45.550  55.972  1.00  0.00     0.012 A 
ENDBRANCH  19  20
ENDBRANCH  16  19
ENDBRANCH   2  15
BRANCH   1  27
HETATM   27  C   UNL     1      24.453  45.506  50.096  1.00  0.00     0.043 A 
HETATM   28  C   UNL     1      23.580  45.823  49.049  1.00  0.00     0.032 A 
HETATM   29  C   UNL     1      23.200  47.151  48.806  1.00  0.00     0.039 A 
HETATM   30  C   UNL     1      23.699  48.181  49.602  1.00  0.00     0.068 A 
HETATM   31  C   UNL     1      24.598  47.875  50.620  1.00  0.00     0.039 A 
HETATM   32  C   UNL     1      24.972  46.552  50.866  1.00  0.00     0.032 A 
BRANCH  30  33
HETATM   33  O   UNL     1      23.412  49.510  49.476  1.00  0.00    -0.352 OA
BRANCH  33  34
HETATM   34  C   UNL     1      22.128  49.848  48.956  1.00  0.00     0.171 C 
HETATM   35  C   UNL     1      21.498  50.857  49.901  1.00  0.00     0.034 C 
ENDBRANCH  33  34
ENDBRANCH  30  33
ENDBRANCH   1  27
TORSDOF 7
ENDMDL
MODEL 4
REMARK VINA RESULT:      -8.2      8.284     10.336
REMARK  7 active torsions:
REMARK  status: ('A' for Active; 'I' for Inactive)
REMARK    1  A    between atoms: C_2  and  O_3 
REMARK    2  A    between atoms: O_3  and  C_4 
REMARK    3  A    between atoms: C_7  and  N_8 
REMARK    4  A    between atoms: C_9  and  O_10 
REMARK    5  A    between atoms: C_9  and  C_11 
REMARK       I    between atoms: C_11  and  N_12 
REMARK    6  A    between atoms: N_12  and  C_13 
REMARK    7  A    between atoms: C_13  and  C_14 
ROOT
HETATM    1  N   UNL     1      18.323  49.347  49.062  1.00  0.00    -0.254 N 
HETATM    2  C   UNL     1      18.961  49.074  47.761  1.00  0.00     0.256 C 
HETATM    3  C   UNL     1      19.324  47.616  47.591  1.00  0.00     0.034 A 
HETATM    4  C   UNL     1      19.613  46.885  48.739  1.00  0.00     0.048 A 
HETATM    5  N   UNL     1      19.470  47.509  49.974  1.00  0.00    -0.308 N 
HETATM    6  C   UNL     1      18.803  48.688  50.188  1.00  0.00     0.330 C 
HETATM    7  O   UNL     1      18.631  49.034  51.356  1.00  0.00    -0.246 OA
HETATM    8  C   UNL     1      19.469  46.997  46.340  1.00  0.00     0.015 A 
HETATM    9  C   UNL     1      19.886  45.668  46.254  1.00  0.00     0.001 A 
HETATM   10  C   UNL     1      20.179  44.953  47.416  1.00  0.00     0.002 A 
HETATM   11  C   UNL     1      20.052  45.564  48.663  1.00  0.00     0.030 A 
HETATM   12  H   UNL     1      19.681  46.998  50.824  1.00  0.00     0.170 HD
ENDROOT
BRANCH   2  13
HETATM   13  O   UNL     1      18.086  49.409  46.679  1.00  0.00    -0.359 OA
HETATM   14  H   UNL     1      17.752  50.300  46.902  1.00  0.00     0.213 HD
ENDBRANCH   2  13
BRANCH   2  15
HETATM   15  C   UNL     1      20.259  49.982  47.639  1.00  0.00     0.279 C 
HETATM   16  N   UNL     1      21.477  49.390  47.899  1.00  0.00    -0.352 N 
HETATM   17  H   UNL     1      21.524  48.399  48.102  1.00  0.00     0.162 HD
HETATM   18  O   UNL     1      20.170  51.175  47.332  1.00  0.00    -0.268 OA
BRANCH  16  19
HETATM   19  C   UNL     1      22.713  50.119  47.767  1.00  0.00     0.161 C 
BRANCH  19  20
HETATM   20  C   UNL     1      23.839  49.380  48.440  1.00  0.00    -0.040 A 
HETATM   21  C   UNL     1      23.569  48.300  49.296  1.00  0.00     0.012 A 
HETATM   22  C   UNL     1      24.610  47.635  49.944  1.00  0.00     0.043 A 
HETATM   23  C   UNL     1      25.920  48.051  49.743  1.00  0.00     0.116 A 
HETATM   24  F   UNL     1      26.919  47.412  50.366  1.00  0.00    -0.206 F 
HETATM   25  C   UNL     1      26.209  49.124  48.909  1.00  0.00     0.043 A 
HETATM   26  C   UNL     1      25.169  49.794  48.261  1.00  0.00     0.012 A 
ENDBRANCH  19  20
ENDBRANCH  16  19
ENDBRANCH   2  15
BRANCH   1  27
HETATM   27  C   UNL     1      17.536  50.534  49.209  1.00  0.00     0.043 A 
HETATM   28  C   UNL     1      18.060  51.703  49.773  1.00  0.00     0.032 A 
HETATM   29  C   UNL     1      17.269  52.854  49.910  1.00  0.00     0.039 A 
HETATM   30  C   UNL     1      15.939  52.845  49.496  1.00  0.00     0.068 A 
HETATM   31  C   UNL     1      15.401  51.672  48.971  1.00  0.00     0.039 A 
HETATM   32  C   UNL     1      16.190  50.528  48.829  1.00  0.00     0.032 A 
BRANCH  30  33
HETATM   33  O   UNL     1      15.062  53.889  49.570  1.00  0.00    -0.352 OA
BRANCH  33  34
HETATM   34  C   UNL     1      14.110  53.859  50.631  1.00  0.00     0.171 C 
HETATM   35  C   UNL     1      12.757  54.229  50.048  1.00  0.00     0.034 C 
ENDBRANCH  33  34
ENDBRANCH  30  33
ENDBRANCH   1  27
TORSDOF 7
ENDMDL
MODEL 5
REMARK VINA RESULT:      -8.1     11.153     13.203
REMARK  7 active torsions:
REMARK  status: ('A' for Active; 'I' for Inactive)
REMARK    1  A    between atoms: C_2  and  O_3 
REMARK    2  A    between atoms: O_3  and  C_4 
REMARK    3  A    between atoms: C_7  and  N_8 
REMARK    4  A    between atoms: C_9  and  O_10 
REMARK    5  A    between atoms: C_9  and  C_11 
REMARK       I    between atoms: C_11  and  N_12 
REMARK    6  A    between atoms: N_12  and  C_13 
REMARK    7  A    between atoms: C_13  and  C_14 
ROOT
HETATM    1  N   UNL     1      27.386  48.779  40.092  1.00  0.00    -0.254 N 
HETATM    2  C   UNL     1      28.061  49.698  41.026  1.00  0.00     0.256 C 
HETATM    3  C   UNL     1      28.382  51.033  40.391  1.00  0.00     0.034 A 
HETATM    4  C   UNL     1      28.604  51.057  39.019  1.00  0.00     0.048 A 
HETATM    5  N   UNL     1      28.439  49.877  38.300  1.00  0.00    -0.308 N 
HETATM    6  C   UNL     1      27.803  48.754  38.766  1.00  0.00     0.330 C 
HETATM    7  O   UNL     1      27.601  47.846  37.961  1.00  0.00    -0.246 OA
HETATM    8  C   UNL     1      28.550  52.216  41.125  1.00  0.00     0.015 A 
HETATM    9  C   UNL     1      28.926  53.397  40.483  1.00  0.00     0.001 A 
HETATM   10  C   UNL     1      29.154  53.400  39.107  1.00  0.00     0.002 A 
HETATM   11  C   UNL     1      29.002  52.226  38.372  1.00  0.00     0.030 A 
HETATM   12  H   UNL     1      28.602  49.868  37.299  1.00  0.00     0.170 HD
ENDROOT
BRANCH   2  13
HETATM   13  O   UNL     1      27.237  49.972  42.164  1.00  0.00    -0.359 OA
HETATM   14  H   UNL     1      26.323  49.885  41.829  1.00  0.00     0.213 HD
ENDBRANCH   2  13
BRANCH   2  15
HETATM   15  C   UNL     1      29.391  49.001  41.543  1.00  0.00     0.279 C 
HETATM   16  N   UNL     1      30.561  49.284  40.869  1.00  0.00    -0.352 N 
HETATM   17  H   UNL     1      30.559  49.958  40.114  1.00  0.00     0.162 HD
HETATM   18  O   UNL     1      29.368  48.228  42.506  1.00  0.00    -0.268 OA
BRANCH  16  19
HETATM   19  C   UNL     1      31.826  48.738  41.294  1.00  0.00     0.161 C 
BRANCH  19  20
HETATM   20  C   UNL     1      32.596  49.749  42.102  1.00  0.00    -0.040 A 
HETATM   21  C   UNL     1      31.978  50.427  43.165  1.00  0.00     0.012 A 
HETATM   22  C   UNL     1      32.682  51.387  43.894  1.00  0.00     0.043 A 
HETATM   23  C   UNL     1      33.999  51.674  43.557  1.00  0.00     0.116 A 
HETATM   24  F   UNL     1      34.672  52.597  44.257  1.00  0.00    -0.206 F 
HETATM   25  C   UNL     1      34.625  51.023  42.501  1.00  0.00     0.043 A 
HETATM   26  C   UNL     1      33.923  50.064  41.768  1.00  0.00     0.012 A 
ENDBRANCH  19  20
ENDBRANCH  16  19
ENDBRANCH   2  15
BRANCH   1  27
HETATM   27  C   UNL     1      26.634  47.682  40.625  1.00  0.00     0.043 A 
HETATM   28  C   UNL     1      27.247  46.489  41.023  1.00  0.00     0.032 A 
HETATM   29  C   UNL     1      26.490  45.428  41.540  1.00  0.00     0.039 A 
HETATM   30  C   UNL     1      25.105  45.543  41.652  1.00  0.00     0.068 A 
HETATM   31  C   UNL     1      24.486  46.713  41.221  1.00  0.00     0.039 A 
HETATM   32  C   UNL     1      25.240  47.772  40.712  1.00  0.00     0.032 A 
BRANCH  30  33
HETATM   33  O   UNL     1      24.252  44.592  42.136  1.00  0.00    -0.352 OA
BRANCH  33  34
HETATM   34  C   UNL     1      24.205  44.426  43.551  1.00  0.00     0.171 C 
HETATM   35  C   UNL     1      22.820  44.842  44.019  1.00  0.00     0.034 C 
ENDBRANCH  33  34
ENDBRANCH  30  33
ENDBRANCH   1  27
TORSDOF 7
ENDMDL
MODEL 6
REMARK VINA RESULT:      -8.1      6.114      8.880
REMARK  7 active torsions:
REMARK  status: ('A' for Active; 'I' for Inactive)
REMARK    1  A    between atoms: C_2  and  O_3 
REMARK    2  A    between atoms: O_3  and  C_4 
REMARK    3  A    between atoms: C_7  and  N_8 
REMARK    4  A    between atoms: C_9  and  O_10 
REMARK    5  A    between atoms: C_9  and  C_11 
REMARK       I    between atoms: C_11  and  N_12 
REMARK    6  A    between atoms: N_12  and  C_13 
REMARK    7  A    between atoms: C_13  and  C_14 
ROOT
HETATM    1  N   UNL     1      22.069  44.356  48.110  1.00  0.00    -0.254 N 
HETATM    2  C   UNL     1      20.949  45.295  48.301  1.00  0.00     0.256 C 
HETATM    3  C   UNL     1      19.785  44.999  47.381  1.00  0.00     0.034 A 
HETATM    4  C   UNL     1      20.067  44.402  46.157  1.00  0.00     0.048 A 
HETATM    5  N   UNL     1      21.382  44.036  45.885  1.00  0.00    -0.308 N 
HETATM    6  C   UNL     1      22.383  43.950  46.818  1.00  0.00     0.330 C 
HETATM    7  O   UNL     1      23.454  43.466  46.453  1.00  0.00    -0.246 OA
HETATM    8  C   UNL     1      18.463  45.375  47.663  1.00  0.00     0.015 A 
HETATM    9  C   UNL     1      17.450  45.142  46.732  1.00  0.00     0.001 A 
HETATM   10  C   UNL     1      17.752  44.550  45.506  1.00  0.00     0.002 A 
HETATM   11  C   UNL     1      19.066  44.186  45.211  1.00  0.00     0.030 A 
HETATM   12  H   UNL     1      21.612  43.605  44.997  1.00  0.00     0.170 HD
ENDROOT
BRANCH   2  13
HETATM   13  O   UNL     1      20.443  45.227  49.638  1.00  0.00    -0.359 OA
HETATM   14  H   UNL     1      19.548  44.849  49.542  1.00  0.00     0.213 HD
ENDBRANCH   2  13
BRANCH   2  15
HETATM   15  C   UNL     1      21.483  46.771  48.055  1.00  0.00     0.279 C 
HETATM   16  N   UNL     1      21.334  47.680  49.081  1.00  0.00    -0.352 N 
HETATM   17  H   UNL     1      20.950  47.382  49.969  1.00  0.00     0.162 HD
HETATM   18  O   UNL     1      22.000  47.086  46.978  1.00  0.00    -0.268 OA
BRANCH  16  19
HETATM   19  C   UNL     1      21.831  49.029  48.970  1.00  0.00     0.161 C 
BRANCH  19  20
HETATM   20  C   UNL     1      20.708  50.021  49.121  1.00  0.00    -0.040 A 
HETATM   21  C   UNL     1      20.728  51.230  48.407  1.00  0.00     0.012 A 
HETATM   22  C   UNL     1      19.703  52.164  48.572  1.00  0.00     0.043 A 
HETATM   23  C   UNL     1      18.664  51.893  49.453  1.00  0.00     0.116 A 
HETATM   24  F   UNL     1      17.681  52.790  49.610  1.00  0.00    -0.206 F 
HETATM   25  C   UNL     1      18.632  50.708  50.178  1.00  0.00     0.043 A 
HETATM   26  C   UNL     1      19.656  49.773  50.017  1.00  0.00     0.012 A 
ENDBRANCH  19  20
ENDBRANCH  16  19
ENDBRANCH   2  15
BRANCH   1  27
HETATM   27  C   UNL     1      23.033  44.209  49.160  1.00  0.00     0.043 A 
HETATM   28  C   UNL     1      23.935  45.228  49.484  1.00  0.00     0.032 A 
HETATM   29  C   UNL     1      24.871  45.060  50.514  1.00  0.00     0.039 A 
HETATM   30  C   UNL     1      24.926  43.863  51.225  1.00  0.00     0.068 A 
HETATM   31  C   UNL     1      24.057  42.830  50.880  1.00  0.00     0.039 A 
HETATM   32  C   UNL     1      23.120  43.000  49.859  1.00  0.00     0.032 A 
BRANCH  30  33
HETATM   33  O   UNL     1      25.783  43.567  52.246  1.00  0.00    -0.352 OA
BRANCH  33  34
HETATM   34  C   UNL     1      26.057  44.608  53.182  1.00  0.00     0.171 C 
HETATM   35  C   UNL     1      25.175  44.380  54.397  1.00  0.00     0.034 C 
ENDBRANCH  33  34
ENDBRANCH  30  33
ENDBRANCH   1  27
TORSDOF 7
ENDMDL
MODEL 7
REMARK VINA RESULT:      -8.0      3.701      6.492
REMARK  7 active torsions:
REMARK  status: ('A' for Active; 'I' for Inactive)
REMARK    1  A    between atoms: C_2  and  O_3 
REMARK    2  A    between atoms: O_3  and  C_4 
REMARK    3  A    between atoms: C_7  and  N_8 
REMARK    4  A    between atoms: C_9  and  O_10 
REMARK    5  A    between atoms: C_9  and  C_11 
REMARK       I    between atoms: C_11  and  N_12 
REMARK    6  A    between atoms: N_12  and  C_13 
REMARK    7  A    between atoms: C_13  and  C_14 
ROOT
HETATM    1  N   UNL     1      26.330  43.826  51.689  1.00  0.00    -0.254 N 
HETATM    2  C   UNL     1      25.166  44.412  51.001  1.00  0.00     0.256 C 
HETATM    3  C   UNL     1      24.459  43.414  50.111  1.00  0.00     0.034 A 
HETATM    4  C   UNL     1      25.220  42.389  49.561  1.00  0.00     0.048 A 
HETATM    5  N   UNL     1      26.560  42.290  49.924  1.00  0.00    -0.308 N 
HETATM    6  C   UNL     1      27.135  42.934  50.990  1.00  0.00     0.330 C 
HETATM    7  O   UNL     1      28.293  42.627  51.275  1.00  0.00    -0.246 OA
HETATM    8  C   UNL     1      23.109  43.525  49.748  1.00  0.00     0.015 A 
HETATM    9  C   UNL     1      22.540  42.613  48.857  1.00  0.00     0.001 A 
HETATM   10  C   UNL     1      23.321  41.596  48.308  1.00  0.00     0.002 A 
HETATM   11  C   UNL     1      24.668  41.487  48.652  1.00  0.00     0.030 A 
HETATM   12  H   UNL     1      27.136  41.554  49.531  1.00  0.00     0.170 HD
ENDROOT
BRANCH   2  13
HETATM   13  O   UNL     1      24.196  44.882  51.943  1.00  0.00    -0.359 OA
HETATM   14  H   UNL     1      24.546  45.742  52.245  1.00  0.00     0.213 HD
ENDBRANCH   2  13
BRANCH   2  15
HETATM   15  C   UNL     1      25.661  45.657  50.148  1.00  0.00     0.279 C 
HETATM   16  N   UNL     1      24.980  46.845  50.302  1.00  0.00    -0.352 N 
HETATM   17  H   UNL     1      24.232  46.915  50.982  1.00  0.00     0.162 HD
HETATM   18  O   UNL     1      26.615  45.551  49.369  1.00  0.00    -0.268 OA
BRANCH  16  19
HETATM   19  C   UNL     1      25.385  48.042  49.607  1.00  0.00     0.161 C 
BRANCH  19  20
HETATM   20  C   UNL     1      24.197  48.710  48.966  1.00  0.00    -0.040 A 
HETATM   21  C   UNL     1      24.328  49.978  48.377  1.00  0.00     0.012 A 
HETATM   22  C   UNL     1      23.220  50.611  47.810  1.00  0.00     0.043 A 
HETATM   23  C   UNL     1      21.982  49.981  47.838  1.00  0.00     0.116 A 
HETATM   24  F   UNL     1      20.920  50.590  47.295  1.00  0.00    -0.206 F 
HETATM   25  C   UNL     1      21.829  48.731  48.426  1.00  0.00     0.043 A 
HETATM   26  C   UNL     1      22.934  48.097  48.996  1.00  0.00     0.012 A 
ENDBRANCH  19  20
ENDBRANCH  16  19
ENDBRANCH   2  15
BRANCH   1  27
HETATM   27  C   UNL     1      26.831  44.467  52.868  1.00  0.00     0.043 A 
HETATM   28  C   UNL     1      26.800  45.857  53.024  1.00  0.00     0.032 A 
HETATM   29  C   UNL     1      27.298  46.463  54.187  1.00  0.00     0.039 A 
HETATM   30  C   UNL     1      27.847  45.684  55.204  1.00  0.00     0.068 A 
HETATM   31  C   UNL     1      27.917  44.303  55.037  1.00  0.00     0.039 A 
HETATM   32  C   UNL     1      27.415  43.699  53.882  1.00  0.00     0.032 A 
BRANCH  30  33
HETATM   33  O   UNL     1      28.365  46.141  56.382  1.00  0.00    -0.352 OA
BRANCH  33  34
HETATM   34  C   UNL     1      29.718  45.794  56.671  1.00  0.00     0.171 C 
HETATM   35  C   UNL     1      29.927  45.957  58.167  1.00  0.00     0.034 C 
ENDBRANCH  33  34
ENDBRANCH  30  33
ENDBRANCH   1  27
TORSDOF 7
ENDMDL
MODEL 8
REMARK VINA RESULT:      -8.0      5.175      6.933
REMARK  7 active torsions:
REMARK  status: ('A' for Active; 'I' for Inactive)
REMARK    1  A    between atoms: C_2  and  O_3 
REMARK    2  A    between atoms: O_3  and  C_4 
REMARK    3  A    between atoms: C_7  and  N_8 
REMARK    4  A    between atoms: C_9  and  O_10 
REMARK    5  A    between atoms: C_9  and  C_11 
REMARK       I    between atoms: C_11  and  N_12 
REMARK    6  A    between atoms: N_12  and  C_13 
REMARK    7  A    between atoms: C_13  and  C_14 
ROOT
HETATM    1  N   UNL     1      20.979  47.192  48.029  1.00  0.00    -0.254 N 
HETATM    2  C   UNL     1      21.132  45.970  47.218  1.00  0.00     0.256 C 
HETATM    3  C   UNL     1      19.818  45.492  46.642  1.00  0.00     0.034 A 
HETATM    4  C   UNL     1      18.658  45.784  47.352  1.00  0.00     0.048 A 
HETATM    5  N   UNL     1      18.763  46.565  48.499  1.00  0.00    -0.308 N 
HETATM    6  C   UNL     1      19.860  47.312  48.844  1.00  0.00     0.330 C 
HETATM    7  O   UNL     1      19.745  48.069  49.808  1.00  0.00    -0.246 OA
HETATM    8  C   UNL     1      19.723  44.702  45.487  1.00  0.00     0.015 A 
HETATM    9  C   UNL     1      18.484  44.227  45.056  1.00  0.00     0.001 A 
HETATM   10  C   UNL     1      17.333  44.522  45.785  1.00  0.00     0.002 A 
HETATM   11  C   UNL     1      17.418  45.295  46.943  1.00  0.00     0.030 A 
HETATM   12  H   UNL     1      17.931  46.785  49.037  1.00  0.00     0.170 HD
ENDROOT
BRANCH   2  13
HETATM   13  O   UNL     1      22.009  46.195  46.110  1.00  0.00    -0.359 OA
HETATM   14  H   UNL     1      22.842  46.502  46.517  1.00  0.00     0.213 HD
ENDBRANCH   2  13
BRANCH   2  15
HETATM   15  C   UNL     1      21.776  44.840  48.130  1.00  0.00     0.279 C 
HETATM   16  N   UNL     1      23.073  44.461  47.851  1.00  0.00    -0.352 N 
HETATM   17  H   UNL     1      23.595  44.938  47.127  1.00  0.00     0.162 HD
HETATM   18  O   UNL     1      21.130  44.318  49.044  1.00  0.00    -0.268 OA
BRANCH  16  19
HETATM   19  C   UNL     1      23.759  43.478  48.653  1.00  0.00     0.161 C 
BRANCH  19  20
HETATM   20  C   UNL     1      24.581  44.147  49.723  1.00  0.00    -0.040 A 
HETATM   21  C   UNL     1      24.087  44.260  51.032  1.00  0.00     0.012 A 
HETATM   22  C   UNL     1      24.835  44.908  52.016  1.00  0.00     0.043 A 
HETATM   23  C   UNL     1      26.072  45.450  51.691  1.00  0.00     0.116 A 
HETATM   24  F   UNL     1      26.789  46.072  52.636  1.00  0.00    -0.206 F 
HETATM   25  C   UNL     1      26.575  45.359  50.398  1.00  0.00     0.043 A 
HETATM   26  C   UNL     1      25.828  44.714  49.411  1.00  0.00     0.012 A 
ENDBRANCH  19  20
ENDBRANCH  16  19
ENDBRANCH   2  15
BRANCH   1  27
HETATM   27  C   UNL     1      22.130  48.008  48.271  1.00  0.00     0.043 A 
HETATM   28  C   UNL     1      22.292  49.257  47.661  1.00  0.00     0.032 A 
HETATM   29  C   UNL     1      23.430  50.039  47.911  1.00  0.00     0.039 A 
HETATM   30  C   UNL     1      24.428  49.573  48.765  1.00  0.00     0.068 A 
HETATM   31  C   UNL     1      24.290  48.313  49.344  1.00  0.00     0.039 A 
HETATM   32  C   UNL     1      23.155  47.538  49.100  1.00  0.00     0.032 A 
BRANCH  30  33
HETATM   33  O   UNL     1      25.580  50.228  49.095  1.00  0.00    -0.352 OA
BRANCH  33  34
HETATM   34  C   UNL     1      26.728  49.958  48.293  1.00  0.00     0.171 C 
HETATM   35  C   UNL     1      27.706  49.161  49.139  1.00  0.00     0.034 C 
ENDBRANCH  33  34
ENDBRANCH  30  33
ENDBRANCH   1  27
TORSDOF 7
ENDMDL
MODEL 9
REMARK VINA RESULT:      -7.9      3.434      6.214
REMARK  7 active torsions:
REMARK  status: ('A' for Active; 'I' for Inactive)
REMARK    1  A    between atoms: C_2  and  O_3 
REMARK    2  A    between atoms: O_3  and  C_4 
REMARK    3  A    between atoms: C_7  and  N_8 
REMARK    4  A    between atoms: C_9  and  O_10 
REMARK    5  A    between atoms: C_9  and  C_11 
REMARK       I    between atoms: C_11  and  N_12 
REMARK    6  A    between atoms: N_12  and  C_13 
REMARK    7  A    between atoms: C_13  and  C_14 
ROOT
HETATM    1  N   UNL     1      25.658  45.342  50.667  1.00  0.00    -0.254 N 
HETATM    2  C   UNL     1      25.246  44.337  51.664  1.00  0.00     0.256 C 
HETATM    3  C   UNL     1      26.365  43.971  52.612  1.00  0.00     0.034 A 
HETATM    4  C   UNL     1      27.669  44.071  52.139  1.00  0.00     0.048 A 
HETATM    5  N   UNL     1      27.873  44.576  50.858  1.00  0.00    -0.308 N 
HETATM    6  C   UNL     1      26.934  45.251  50.121  1.00  0.00     0.330 C 
HETATM    7  O   UNL     1      27.309  45.770  49.070  1.00  0.00    -0.246 OA
HETATM    8  C   UNL     1      26.150  43.459  53.900  1.00  0.00     0.015 A 
HETATM    9  C   UNL     1      27.229  43.065  54.693  1.00  0.00     0.001 A 
HETATM   10  C   UNL     1      28.529  43.164  54.198  1.00  0.00     0.002 A 
HETATM   11  C   UNL     1      28.752  43.659  52.914  1.00  0.00     0.030 A 
HETATM   12  H   UNL     1      28.814  44.652  50.490  1.00  0.00     0.170 HD
ENDROOT
BRANCH   2  13
HETATM   13  O   UNL     1      24.168  44.824  52.469  1.00  0.00    -0.359 OA
HETATM   14  H   UNL     1      23.369  44.422  52.076  1.00  0.00     0.213 HD
ENDBRANCH   2  13
BRANCH   2  15
HETATM   15  C   UNL     1      24.734  43.046  50.892  1.00  0.00     0.279 C 
HETATM   16  N   UNL     1      25.665  42.323  50.175  1.00  0.00    -0.352 N 
HETATM   17  H   UNL     1      26.641  42.590  50.200  1.00  0.00     0.162 HD
HETATM   18  O   UNL     1      23.545  42.715  50.930  1.00  0.00    -0.268 OA
BRANCH  16  19
HETATM   19  C   UNL     1      25.306  41.110  49.482  1.00  0.00     0.161 C 
BRANCH  19  20
HETATM   20  C   UNL     1      26.459  40.143  49.476  1.00  0.00    -0.040 A 
HETATM   21  C   UNL     1      27.605  40.398  50.248  1.00  0.00     0.012 A 
HETATM   22  C   UNL     1      28.687  39.517  50.217  1.00  0.00     0.043 A 
HETATM   23  C   UNL     1      28.628  38.386  49.412  1.00  0.00     0.116 A 
HETATM   24  F   UNL     1      29.668  37.542  49.384  1.00  0.00    -0.206 F 
HETATM   25  C   UNL     1      27.509  38.121  48.633  1.00  0.00     0.043 A 
HETATM   26  C   UNL     1      26.426  39.001  48.659  1.00  0.00     0.012 A 
ENDBRANCH  19  20
ENDBRANCH  16  19
ENDBRANCH   2  15
BRANCH   1  27
HETATM   27  C   UNL     1      24.649  46.109  50.001  1.00  0.00     0.043 A 
HETATM   28  C   UNL     1      23.783  45.535  49.063  1.00  0.00     0.032 A 
HETATM   29  C   UNL     1      22.803  46.308  48.422  1.00  0.00     0.039 A 
HETATM   30  C   UNL     1      22.687  47.668  48.701  1.00  0.00     0.068 A 
HETATM   31  C   UNL     1      23.572  48.252  49.604  1.00  0.00     0.039 A 
HETATM   32  C   UNL     1      24.543  47.482  50.247  1.00  0.00     0.032 A 
BRANCH  30  33
HETATM   33  O   UNL     1      21.782  48.531  48.152  1.00  0.00    -0.352 OA
BRANCH  33  34
HETATM   34  C   UNL     1      21.254  49.543  49.006  1.00  0.00     0.171 C 
HETATM   35  C   UNL     1      20.917  50.747  48.143  1.00  0.00     0.034 C 
ENDBRANCH  33  34
ENDBRANCH  30  33
ENDBRANCH   1  27
TORSDOF 7
ENDMDL
MODEL 10
REMARK VINA RESULT:      -7.8      6.895      9.992
REMARK  7 active torsions:
REMARK  status: ('A' for Active; 'I' for Inactive)
REMARK    1  A    between atoms: C_2  and  O_3 
REMARK    2  A    between atoms: O_3  and  C_4 
REMARK    3  A    between atoms: C_7  and  N_8 
REMARK    4  A    between atoms: C_9  and  O_10 
REMARK    5  A    between atoms: C_9  and  C_11 
REMARK       I    between atoms: C_11  and  N_12 
REMARK    6  A    between atoms: N_12  and  C_13 
REMARK    7  A    between atoms: C_13  and  C_14 
ROOT
HETATM    1  N   UNL     1      19.348  48.157  47.896  1.00  0.00    -0.254 N 
HETATM    2  C   UNL     1      19.571  49.353  48.727  1.00  0.00     0.256 C 
HETATM    3  C   UNL     1      18.339  50.225  48.827  1.00  0.00     0.034 A 
HETATM    4  C   UNL     1      17.448  50.205  47.759  1.00  0.00     0.048 A 
HETATM    5  N   UNL     1      17.695  49.330  46.706  1.00  0.00    -0.308 N 
HETATM    6  C   UNL     1      18.578  48.282  46.745  1.00  0.00     0.330 C 
HETATM    7  O   UNL     1      18.574  47.506  45.790  1.00  0.00    -0.246 OA
HETATM    8  C   UNL     1      18.100  51.106  49.892  1.00  0.00     0.015 A 
HETATM    9  C   UNL     1      16.982  51.940  49.880  1.00  0.00     0.001 A 
HETATM   10  C   UNL     1      16.104  51.914  48.797  1.00  0.00     0.002 A 
HETATM   11  C   UNL     1      16.340  51.051  47.728  1.00  0.00     0.030 A 
HETATM   12  H   UNL     1      17.063  49.304  45.914  1.00  0.00     0.170 HD
ENDROOT
BRANCH   2  13
HETATM   13  O   UNL     1      19.927  48.990  50.065  1.00  0.00    -0.359 OA
HETATM   14  H   UNL     1      20.502  48.208  49.961  1.00  0.00     0.213 HD
ENDBRANCH   2  13
BRANCH   2  15
HETATM   15  C   UNL     1      20.779  50.178  48.107  1.00  0.00     0.279 C 
HETATM   16  N   UNL     1      21.949  50.237  48.835  1.00  0.00    -0.352 N 
HETATM   17  H   UNL     1      22.032  49.718  49.701  1.00  0.00     0.162 HD
HETATM   18  O   UNL     1      20.662  50.751  47.019  1.00  0.00    -0.268 OA
BRANCH  16  19
HETATM   19  C   UNL     1      23.115  50.920  48.333  1.00  0.00     0.161 C 
BRANCH  19  20
HETATM   20  C   UNL     1      24.357  50.111  48.596  1.00  0.00    -0.040 A 
HETATM   21  C   UNL     1      25.601  50.541  48.106  1.00  0.00     0.012 A 
HETATM   22  C   UNL     1      26.748  49.775  48.322  1.00  0.00     0.043 A 
HETATM   23  C   UNL     1      26.651  48.577  49.020  1.00  0.00     0.116 A 
HETATM   24  F   UNL     1      27.752  47.843  49.226  1.00  0.00    -0.206 F 
HETATM   25  C   UNL     1      25.428  48.129  49.503  1.00  0.00     0.043 A 
HETATM   26  C   UNL     1      24.279  48.891  49.287  1.00  0.00     0.012 A 
ENDBRANCH  19  20
ENDBRANCH  16  19
ENDBRANCH   2  15
BRANCH   1  27
HETATM   27  C   UNL     1      20.226  47.036  48.050  1.00  0.00     0.043 A 
HETATM   28  C   UNL     1      21.529  47.041  47.542  1.00  0.00     0.032 A 
HETATM   29  C   UNL     1      22.370  45.930  47.703  1.00  0.00     0.039 A 
HETATM   30  C   UNL     1      21.911  44.792  48.364  1.00  0.00     0.068 A 
HETATM   31  C   UNL     1      20.601  44.766  48.837  1.00  0.00     0.039 A 
HETATM   32  C   UNL     1      19.766  45.875  48.682  1.00  0.00     0.032 A 
BRANCH  30  33
HETATM   33  O   UNL     1      22.620  43.647  48.590  1.00  0.00    -0.352 OA
BRANCH  33  34
HETATM   34  C   UNL     1      22.822  43.270  49.950  1.00  0.00     0.171 C 
HETATM   35  C   UNL     1      23.845  44.223  50.546  1.00  0.00     0.034 C 
ENDBRANCH  33  34
ENDBRANCH  30  33
ENDBRANCH   1  27
TORSDOF 7
ENDMDL
