MODEL 1
REMARK VINA RESULT:      -9.5      0.000      0.000
REMARK  7 active torsions:
REMARK  status: ('A' for Active; 'I' for Inactive)
REMARK    1  A    between atoms: C_5  and  S_6 
REMARK    2  A    between atoms: S_6  and  C_7 
REMARK    3  A    between atoms: C_7  and  C_8 
REMARK       I    between atoms: C_8  and  N_9 
REMARK    4  A    between atoms: N_9  and  C_10 
REMARK    5  A    between atoms: C_10  and  C_11 
REMARK    6  A    between atoms: C_11  and  C_12 
REMARK    7  A    between atoms: C_26  and  O_27 
ROOT
HETATM    1  C   UNL     1      26.527  48.683  55.579  1.00  0.00     0.052 C 
HETATM    2  C   UNL     1      27.064  47.348  55.124  1.00  0.00    -0.013 A 
HETATM    3  C   UNL     1      26.459  46.606  54.065  1.00  0.00     0.165 A 
HETATM    4  N   UNL     1      26.962  45.361  53.682  1.00  0.00    -0.271 N 
HETATM    5  C   UNL     1      26.116  44.974  52.656  1.00  0.00     0.197 A 
HETATM    6  N   UNL     1      25.212  45.904  52.437  1.00  0.00    -0.122 NA
HETATM    7  N   UNL     1      25.420  46.921  53.319  1.00  0.00    -0.128 NA
HETATM    8  C   UNL     1      28.111  44.783  54.293  1.00  0.00     0.053 A 
HETATM    9  C   UNL     1      28.714  45.533  55.319  1.00  0.00    -0.005 A 
HETATM   10  C   UNL     1      28.150  46.826  55.725  1.00  0.00     0.024 A 
HETATM   11  C   UNL     1      28.668  43.554  53.931  1.00  0.00     0.034 A 
HETATM   12  C   UNL     1      29.821  43.082  54.576  1.00  0.00     0.039 A 
HETATM   13  C   UNL     1      30.426  43.828  55.585  1.00  0.00     0.069 A 
HETATM   14  C   UNL     1      29.863  45.050  55.956  1.00  0.00     0.050 A 
ENDROOT
BRANCH   5  15
HETATM   15  S   UNL     1      26.160  43.501  51.748  1.00  0.00    -0.080 SA
BRANCH  15  16
HETATM   16  C   UNL     1      24.511  43.494  50.992  1.00  0.00     0.185 C 
BRANCH  16  17
HETATM   17  C   UNL     1      24.434  44.458  49.821  1.00  0.00     0.227 C 
HETATM   18  N   UNL     1      23.517  45.476  49.980  1.00  0.00    -0.360 N 
HETATM   19  H   UNL     1      22.743  45.287  50.619  1.00  0.00     0.162 HD
HETATM   20  O   UNL     1      25.158  44.350  48.835  1.00  0.00    -0.273 OA
BRANCH  18  21
HETATM   21  C   UNL     1      23.296  46.453  48.931  1.00  0.00     0.127 C 
BRANCH  21  22
HETATM   22  C   UNL     1      23.386  47.881  49.465  1.00  0.00     0.058 C 
BRANCH  22  23
HETATM   23  C   UNL     1      24.726  48.514  49.184  1.00  0.00    -0.057 A 
HETATM   24  C   UNL     1      24.826  49.630  48.344  1.00  0.00     0.007 A 
HETATM   25  C   UNL     1      26.072  50.202  48.076  1.00  0.00     0.001 A 
HETATM   26  C   UNL     1      27.225  49.666  48.646  1.00  0.00     0.000 A 
HETATM   27  C   UNL     1      27.136  48.554  49.482  1.00  0.00     0.001 A 
HETATM   28  C   UNL     1      25.892  47.979  49.748  1.00  0.00     0.007 A 
ENDBRANCH  22  23
ENDBRANCH  21  22
ENDBRANCH  18  21
ENDBRANCH  16  17
ENDBRANCH  15  16
ENDBRANCH   5  15
BRANCH  13  29
HETATM   29  O   UNL     1      31.551  43.482  56.279  1.00  0.00    -0.356 OA
HETATM   30  C   UNL     1      31.681  43.998  57.598  1.00  0.00     0.210 C 
ENDBRANCH  13  29
TORSDOF 7
ENDMDL
MODEL 2
REMARK VINA RESULT:      -9.4      2.988      4.548
REMARK  7 active torsions:
REMARK  status: ('A' for Active; 'I' for Inactive)
REMARK    1  A    between atoms: C_5  and  S_6 
REMARK    2  A    between atoms: S_6  and  C_7 
REMARK    3  A    between atoms: C_7  and  C_8 
REMARK       I    between atoms: C_8  and  N_9 
REMARK    4  A    between atoms: N_9  and  C_10 
REMARK    5  A    between atoms: C_10  and  C_11 
REMARK    6  A    between atoms: C_11  and  C_12 
REMARK    7  A    between atoms: C_26  and  O_27 
ROOT
HETATM    1  C   UNL     1      29.003  40.670  52.385  1.00  0.00     0.052 C 
HETATM    2  C   UNL     1      28.696  42.052  52.909  1.00  0.00    -0.013 A 
HETATM    3  C   UNL     1      27.641  42.851  52.372  1.00  0.00     0.165 A 
HETATM    4  N   UNL     1      27.396  44.136  52.859  1.00  0.00    -0.271 N 
HETATM    5  C   UNL     1      26.327  44.571  52.093  1.00  0.00     0.197 A 
HETATM    6  N   UNL     1      25.961  43.632  51.248  1.00  0.00    -0.122 NA
HETATM    7  N   UNL     1      26.782  42.559  51.417  1.00  0.00    -0.128 NA
HETATM    8  C   UNL     1      28.149  44.704  53.926  1.00  0.00     0.053 A 
HETATM    9  C   UNL     1      29.169  43.899  54.463  1.00  0.00    -0.005 A 
HETATM   10  C   UNL     1      29.429  42.562  53.916  1.00  0.00     0.024 A 
HETATM   11  C   UNL     1      27.928  45.973  54.464  1.00  0.00     0.034 A 
HETATM   12  C   UNL     1      28.708  46.433  55.537  1.00  0.00     0.039 A 
HETATM   13  C   UNL     1      29.712  45.634  56.078  1.00  0.00     0.069 A 
HETATM   14  C   UNL     1      29.942  44.370  55.532  1.00  0.00     0.050 A 
ENDROOT
BRANCH   5  15
HETATM   15  S   UNL     1      25.534  46.109  52.160  1.00  0.00    -0.080 SA
BRANCH  15  16
HETATM   16  C   UNL     1      24.705  46.159  50.548  1.00  0.00     0.185 C 
BRANCH  16  17
HETATM   17  C   UNL     1      24.541  47.585  50.053  1.00  0.00     0.227 C 
HETATM   18  N   UNL     1      23.234  47.965  49.828  1.00  0.00    -0.360 N 
HETATM   19  H   UNL     1      22.576  47.209  49.627  1.00  0.00     0.162 HD
HETATM   20  O   UNL     1      25.498  48.341  49.904  1.00  0.00    -0.273 OA
BRANCH  18  21
HETATM   21  C   UNL     1      22.917  49.283  49.313  1.00  0.00     0.127 C 
BRANCH  21  22
HETATM   22  C   UNL     1      21.712  49.244  48.375  1.00  0.00     0.058 C 
BRANCH  22  23
HETATM   23  C   UNL     1      20.611  50.174  48.820  1.00  0.00    -0.057 A 
HETATM   24  C   UNL     1      19.719  49.793  49.831  1.00  0.00     0.007 A 
HETATM   25  C   UNL     1      18.693  50.653  50.228  1.00  0.00     0.001 A 
HETATM   26  C   UNL     1      18.550  51.899  49.619  1.00  0.00     0.000 A 
HETATM   27  C   UNL     1      19.429  52.285  48.610  1.00  0.00     0.001 A 
HETATM   28  C   UNL     1      20.454  51.426  48.210  1.00  0.00     0.007 A 
ENDBRANCH  22  23
ENDBRANCH  21  22
ENDBRANCH  18  21
ENDBRANCH  16  17
ENDBRANCH  15  16
ENDBRANCH   5  15
BRANCH  13  29
HETATM   29  O   UNL     1      30.529  45.963  57.123  1.00  0.00    -0.356 OA
HETATM   30  C   UNL     1      30.577  45.053  58.215  1.00  0.00     0.210 C 
ENDBRANCH  13  29
TORSDOF 7
ENDMDL
MODEL 3
REMARK VINA RESULT:      -9.3      2.060      2.928
REMARK  7 active torsions:
REMARK  status: ('A' for Active; 'I' for Inactive)
REMARK    1  A    between atoms: C_5  and  S_6 
REMARK    2  A    between atoms: S_6  and  C_7 
REMARK    3  A    between atoms: C_7  and  C_8 
REMARK       I    between atoms: C_8  and  N_9 
REMARK    4  A    between atoms: N_9  and  C_10 
REMARK    5  A    between atoms: C_10  and  C_11 
REMARK    6  A    between atoms: C_11  and  C_12 
REMARK    7  A    between atoms: C_26  and  O_27 
ROOT
HETATM    1  C   UNL     1      26.462  48.797  55.943  1.00  0.00     0.052 C 
HETATM    2  C   UNL     1      26.925  47.565  55.204  1.00  0.00    -0.013 A 
HETATM    3  C   UNL     1      26.349  47.163  53.960  1.00  0.00     0.165 A 
HETATM    4  N   UNL     1      26.780  46.005  53.311  1.00  0.00    -0.271 N 
HETATM    5  C   UNL     1      25.990  45.962  52.174  1.00  0.00     0.197 A 
HETATM    6  N   UNL     1      25.184  47.000  52.140  1.00  0.00    -0.122 NA
HETATM    7  N   UNL     1      25.402  47.749  53.256  1.00  0.00    -0.128 NA
HETATM    8  C   UNL     1      27.826  45.187  53.825  1.00  0.00     0.053 A 
HETATM    9  C   UNL     1      28.402  45.605  55.038  1.00  0.00    -0.005 A 
HETATM   10  C   UNL     1      27.913  46.810  55.719  1.00  0.00     0.024 A 
HETATM   11  C   UNL     1      28.309  44.034  53.202  1.00  0.00     0.034 A 
HETATM   12  C   UNL     1      29.365  43.310  53.777  1.00  0.00     0.039 A 
HETATM   13  C   UNL     1      29.945  43.727  54.972  1.00  0.00     0.069 A 
HETATM   14  C   UNL     1      29.455  44.872  55.601  1.00  0.00     0.050 A 
ENDROOT
BRANCH   5  15
HETATM   15  S   UNL     1      25.989  44.755  50.933  1.00  0.00    -0.080 SA
BRANCH  15  16
HETATM   16  C   UNL     1      24.212  44.542  50.637  1.00  0.00     0.185 C 
BRANCH  16  17
HETATM   17  C   UNL     1      23.760  45.302  49.402  1.00  0.00     0.227 C 
HETATM   18  N   UNL     1      23.337  46.591  49.647  1.00  0.00    -0.360 N 
HETATM   19  H   UNL     1      22.997  46.780  50.591  1.00  0.00     0.162 HD
HETATM   20  O   UNL     1      23.807  44.809  48.277  1.00  0.00    -0.273 OA
BRANCH  18  21
HETATM   21  C   UNL     1      22.836  47.429  48.575  1.00  0.00     0.127 C 
BRANCH  21  22
HETATM   22  C   UNL     1      21.310  47.511  48.594  1.00  0.00     0.058 C 
BRANCH  22  23
HETATM   23  C   UNL     1      20.816  48.906  48.886  1.00  0.00    -0.057 A 
HETATM   24  C   UNL     1      19.714  49.112  49.725  1.00  0.00     0.007 A 
HETATM   25  C   UNL     1      19.253  50.406  49.980  1.00  0.00     0.001 A 
HETATM   26  C   UNL     1      19.888  51.501  49.399  1.00  0.00     0.000 A 
HETATM   27  C   UNL     1      20.983  51.307  48.560  1.00  0.00     0.001 A 
HETATM   28  C   UNL     1      21.444  50.015  48.302  1.00  0.00     0.007 A 
ENDBRANCH  22  23
ENDBRANCH  21  22
ENDBRANCH  18  21
ENDBRANCH  16  17
ENDBRANCH  15  16
ENDBRANCH   5  15
BRANCH  13  29
HETATM   29  O   UNL     1      30.980  43.116  55.623  1.00  0.00    -0.356 OA
HETATM   30  C   UNL     1      31.340  43.638  56.896  1.00  0.00     0.210 C 
ENDBRANCH  13  29
TORSDOF 7
ENDMDL
MODEL 4
REMARK VINA RESULT:      -9.0      2.051      3.700
REMARK  7 active torsions:
REMARK  status: ('A' for Active; 'I' for Inactive)
REMARK    1  A    between atoms: C_5  and  S_6 
REMARK    2  A    between atoms: S_6  and  C_7 
REMARK    3  A    between atoms: C_7  and  C_8 
REMARK       I    between atoms: C_8  and  N_9 
REMARK    4  A    between atoms: N_9  and  C_10 
REMARK    5  A    between atoms: C_10  and  C_11 
REMARK    6  A    between atoms: C_11  and  C_12 
REMARK    7  A    between atoms: C_26  and  O_27 
ROOT
HETATM    1  C   UNL     1      30.823  43.239  55.237  1.00  0.00     0.052 C 
HETATM    2  C   UNL     1      29.533  43.697  54.602  1.00  0.00    -0.013 A 
HETATM    3  C   UNL     1      28.820  42.891  53.663  1.00  0.00     0.165 A 
HETATM    4  N   UNL     1      27.642  43.351  53.072  1.00  0.00    -0.271 N 
HETATM    5  C   UNL     1      27.273  42.308  52.238  1.00  0.00     0.197 A 
HETATM    6  N   UNL     1      28.134  41.319  52.338  1.00  0.00    -0.122 NA
HETATM    7  N   UNL     1      29.104  41.682  53.222  1.00  0.00    -0.128 NA
HETATM    8  C   UNL     1      27.072  44.616  53.391  1.00  0.00     0.053 A 
HETATM    9  C   UNL     1      27.769  45.391  54.335  1.00  0.00    -0.005 A 
HETATM   10  C   UNL     1      29.022  44.901  54.921  1.00  0.00     0.024 A 
HETATM   11  C   UNL     1      25.885  45.111  52.847  1.00  0.00     0.034 A 
HETATM   12  C   UNL     1      25.390  46.361  53.248  1.00  0.00     0.039 A 
HETATM   13  C   UNL     1      26.073  47.126  54.190  1.00  0.00     0.069 A 
HETATM   14  C   UNL     1      27.265  46.638  54.725  1.00  0.00     0.050 A 
ENDROOT
BRANCH   5  15
HETATM   15  S   UNL     1      25.904  42.233  51.180  1.00  0.00    -0.080 SA
BRANCH  15  16
HETATM   16  C   UNL     1      26.469  43.247  49.786  1.00  0.00     0.185 C 
BRANCH  16  17
HETATM   17  C   UNL     1      25.318  44.003  49.147  1.00  0.00     0.227 C 
HETATM   18  N   UNL     1      25.042  45.222  49.730  1.00  0.00    -0.360 N 
HETATM   19  H   UNL     1      25.325  45.327  50.706  1.00  0.00     0.162 HD
HETATM   20  O   UNL     1      24.712  43.570  48.170  1.00  0.00    -0.273 OA
BRANCH  18  21
HETATM   21  C   UNL     1      23.943  46.043  49.259  1.00  0.00     0.127 C 
BRANCH  21  22
HETATM   22  C   UNL     1      23.936  47.413  49.935  1.00  0.00     0.058 C 
BRANCH  22  23
HETATM   23  C   UNL     1      25.021  48.317  49.406  1.00  0.00    -0.057 A 
HETATM   24  C   UNL     1      24.722  49.327  48.482  1.00  0.00     0.007 A 
HETATM   25  C   UNL     1      25.734  50.151  47.984  1.00  0.00     0.001 A 
HETATM   26  C   UNL     1      27.050  49.974  48.407  1.00  0.00     0.000 A 
HETATM   27  C   UNL     1      27.358  48.971  49.324  1.00  0.00     0.001 A 
HETATM   28  C   UNL     1      26.349  48.145  49.819  1.00  0.00     0.007 A 
ENDBRANCH  22  23
ENDBRANCH  21  22
ENDBRANCH  18  21
ENDBRANCH  16  17
ENDBRANCH  15  16
ENDBRANCH   5  15
BRANCH  13  29
HETATM   29  O   UNL     1      25.690  48.349  54.666  1.00  0.00    -0.356 OA
HETATM   30  C   UNL     1      26.299  48.790  55.873  1.00  0.00     0.210 C 
ENDBRANCH  13  29
TORSDOF 7
ENDMDL
MODEL 5
REMARK VINA RESULT:      -8.7      3.378      4.687
REMARK  7 active torsions:
REMARK  status: ('A' for Active; 'I' for Inactive)
REMARK    1  A    between atoms: C_5  and  S_6 
REMARK    2  A    between atoms: S_6  and  C_7 
REMARK    3  A    between atoms: C_7  and  C_8 
REMARK       I    between atoms: C_8  and  N_9 
REMARK    4  A    between atoms: N_9  and  C_10 
REMARK    5  A    between atoms: C_10  and  C_11 
REMARK    6  A    between atoms: C_11  and  C_12 
REMARK    7  A    between atoms: C_26  and  O_27 
ROOT
HETATM    1  C   UNL     1      28.731  46.243  55.832  1.00  0.00     0.052 C 
HETATM    2  C   UNL     1      28.136  45.513  54.652  1.00  0.00    -0.013 A 
HETATM    3  C   UNL     1      27.107  46.086  53.845  1.00  0.00     0.165 A 
HETATM    4  N   UNL     1      26.557  45.379  52.774  1.00  0.00    -0.271 N 
HETATM    5  C   UNL     1      25.611  46.252  52.264  1.00  0.00     0.197 A 
HETATM    6  N   UNL     1      25.610  47.374  52.950  1.00  0.00    -0.122 NA
HETATM    7  N   UNL     1      26.539  47.271  53.940  1.00  0.00    -0.128 NA
HETATM    8  C   UNL     1      27.007  44.078  52.409  1.00  0.00     0.053 A 
HETATM    9  C   UNL     1      28.038  43.533  53.195  1.00  0.00    -0.005 A 
HETATM   10  C   UNL     1      28.580  44.283  54.335  1.00  0.00     0.024 A 
HETATM   11  C   UNL     1      26.508  43.340  51.333  1.00  0.00     0.034 A 
HETATM   12  C   UNL     1      27.039  42.074  51.037  1.00  0.00     0.039 A 
HETATM   13  C   UNL     1      28.066  41.537  51.808  1.00  0.00     0.069 A 
HETATM   14  C   UNL     1      28.557  42.269  52.890  1.00  0.00     0.050 A 
ENDROOT
BRANCH   5  15
HETATM   15  S   UNL     1      24.536  45.987  50.932  1.00  0.00    -0.080 SA
BRANCH  15  16
HETATM   16  C   UNL     1      25.347  46.940  49.619  1.00  0.00     0.185 C 
BRANCH  16  17
HETATM   17  C   UNL     1      24.735  48.323  49.480  1.00  0.00     0.227 C 
HETATM   18  N   UNL     1      23.364  48.358  49.622  1.00  0.00    -0.360 N 
HETATM   19  H   UNL     1      22.869  47.489  49.414  1.00  0.00     0.162 HD
HETATM   20  O   UNL     1      25.419  49.326  49.292  1.00  0.00    -0.273 OA
BRANCH  18  21
HETATM   21  C   UNL     1      22.629  49.599  49.473  1.00  0.00     0.127 C 
BRANCH  21  22
HETATM   22  C   UNL     1      22.246  49.854  48.016  1.00  0.00     0.058 C 
BRANCH  22  23
HETATM   23  C   UNL     1      20.908  50.536  47.886  1.00  0.00    -0.057 A 
HETATM   24  C   UNL     1      19.990  50.128  46.910  1.00  0.00     0.007 A 
HETATM   25  C   UNL     1      18.758  50.775  46.786  1.00  0.00     0.001 A 
HETATM   26  C   UNL     1      18.434  51.831  47.635  1.00  0.00     0.000 A 
HETATM   27  C   UNL     1      19.341  52.245  48.608  1.00  0.00     0.001 A 
HETATM   28  C   UNL     1      20.574  51.603  48.732  1.00  0.00     0.007 A 
ENDBRANCH  22  23
ENDBRANCH  21  22
ENDBRANCH  18  21
ENDBRANCH  16  17
ENDBRANCH  15  16
ENDBRANCH   5  15
BRANCH  13  29
HETATM   29  O   UNL     1      28.669  40.326  51.616  1.00  0.00    -0.356 OA
HETATM   30  C   UNL     1      28.486  39.708  50.348  1.00  0.00     0.210 C 
ENDBRANCH  13  29
TORSDOF 7
ENDMDL
MODEL 6
REMARK VINA RESULT:      -8.4      2.890      4.926
REMARK  7 active torsions:
REMARK  status: ('A' for Active; 'I' for Inactive)
REMARK    1  A    between atoms: C_5  and  S_6 
REMARK    2  A    between atoms: S_6  and  C_7 
REMARK    3  A    between atoms: C_7  and  C_8 
REMARK       I    between atoms: C_8  and  N_9 
REMARK    4  A    between atoms: N_9  and  C_10 
REMARK    5  A    between atoms: C_10  and  C_11 
REMARK    6  A    between atoms: C_11  and  C_12 
REMARK    7  A    between atoms: C_26  and  O_27 
ROOT
HETATM    1  C   UNL     1      30.697  43.467  55.564  1.00  0.00     0.052 C 
HETATM    2  C   UNL     1      29.638  43.324  54.498  1.00  0.00    -0.013 A 
HETATM    3  C   UNL     1      28.613  44.299  54.310  1.00  0.00     0.165 A 
HETATM    4  N   UNL     1      27.630  44.128  53.333  1.00  0.00    -0.271 N 
HETATM    5  C   UNL     1      26.839  45.257  53.472  1.00  0.00     0.197 A 
HETATM    6  N   UNL     1      27.314  46.031  54.424  1.00  0.00    -0.122 NA
HETATM    7  N   UNL     1      28.417  45.433  54.952  1.00  0.00    -0.128 NA
HETATM    8  C   UNL     1      27.613  43.006  52.457  1.00  0.00     0.053 A 
HETATM    9  C   UNL     1      28.642  42.063  52.635  1.00  0.00    -0.005 A 
HETATM   10  C   UNL     1      29.647  42.248  53.689  1.00  0.00     0.024 A 
HETATM   11  C   UNL     1      26.669  42.801  51.449  1.00  0.00     0.034 A 
HETATM   12  C   UNL     1      26.755  41.673  50.618  1.00  0.00     0.039 A 
HETATM   13  C   UNL     1      27.778  40.744  50.785  1.00  0.00     0.069 A 
HETATM   14  C   UNL     1      28.715  40.941  51.800  1.00  0.00     0.050 A 
ENDROOT
BRANCH   5  15
HETATM   15  S   UNL     1      25.414  45.666  52.578  1.00  0.00    -0.080 SA
BRANCH  15  16
HETATM   16  C   UNL     1      25.952  47.162  51.705  1.00  0.00     0.185 C 
BRANCH  16  17
HETATM   17  C   UNL     1      25.329  47.251  50.323  1.00  0.00     0.227 C 
HETATM   18  N   UNL     1      23.983  47.554  50.322  1.00  0.00    -0.360 N 
HETATM   19  H   UNL     1      23.467  47.307  51.168  1.00  0.00     0.162 HD
HETATM   20  O   UNL     1      25.987  47.100  49.297  1.00  0.00    -0.273 OA
BRANCH  18  21
HETATM   21  C   UNL     1      23.237  47.633  49.081  1.00  0.00     0.127 C 
BRANCH  21  22
HETATM   22  C   UNL     1      23.200  49.060  48.538  1.00  0.00     0.058 C 
BRANCH  22  23
HETATM   23  C   UNL     1      21.852  49.710  48.726  1.00  0.00    -0.057 A 
HETATM   24  C   UNL     1      21.667  51.068  48.442  1.00  0.00     0.007 A 
HETATM   25  C   UNL     1      20.419  51.667  48.632  1.00  0.00     0.001 A 
HETATM   26  C   UNL     1      19.348  50.913  49.108  1.00  0.00     0.000 A 
HETATM   27  C   UNL     1      19.522  49.561  49.397  1.00  0.00     0.001 A 
HETATM   28  C   UNL     1      20.769  48.962  49.209  1.00  0.00     0.007 A 
ENDBRANCH  22  23
ENDBRANCH  21  22
ENDBRANCH  18  21
ENDBRANCH  16  17
ENDBRANCH  15  16
ENDBRANCH   5  15
BRANCH  13  29
HETATM   29  O   UNL     1      27.973  39.617  50.037  1.00  0.00    -0.356 OA
HETATM   30  C   UNL     1      26.813  38.891  49.649  1.00  0.00     0.210 C 
ENDBRANCH  13  29
TORSDOF 7
ENDMDL
MODEL 7
REMARK VINA RESULT:      -8.4      3.576      5.199
REMARK  7 active torsions:
REMARK  status: ('A' for Active; 'I' for Inactive)
REMARK    1  A    between atoms: C_5  and  S_6 
REMARK    2  A    between atoms: S_6  and  C_7 
REMARK    3  A    between atoms: C_7  and  C_8 
REMARK       I    between atoms: C_8  and  N_9 
REMARK    4  A    between atoms: N_9  and  C_10 
REMARK    5  A    between atoms: C_10  and  C_11 
REMARK    6  A    between atoms: C_11  and  C_12 
REMARK    7  A    between atoms: C_26  and  O_27 
ROOT
HETATM    1  C   UNL     1      27.766  41.383  50.625  1.00  0.00     0.052 C 
HETATM    2  C   UNL     1      27.442  42.707  51.273  1.00  0.00    -0.013 A 
HETATM    3  C   UNL     1      26.635  43.692  50.627  1.00  0.00     0.165 A 
HETATM    4  N   UNL     1      26.373  44.919  51.239  1.00  0.00    -0.271 N 
HETATM    5  C   UNL     1      25.582  45.578  50.312  1.00  0.00     0.197 A 
HETATM    6  N   UNL     1      25.378  44.812  49.262  1.00  0.00    -0.122 NA
HETATM    7  N   UNL     1      26.038  43.637  49.454  1.00  0.00    -0.128 NA
HETATM    8  C   UNL     1      26.860  45.243  52.537  1.00  0.00     0.053 A 
HETATM    9  C   UNL     1      27.634  44.256  53.174  1.00  0.00    -0.005 A 
HETATM   10  C   UNL     1      27.922  42.985  52.499  1.00  0.00     0.024 A 
HETATM   11  C   UNL     1      26.606  46.444  53.202  1.00  0.00     0.034 A 
HETATM   12  C   UNL     1      27.109  46.658  54.495  1.00  0.00     0.039 A 
HETATM   13  C   UNL     1      27.868  45.679  55.132  1.00  0.00     0.069 A 
HETATM   14  C   UNL     1      28.132  44.483  54.464  1.00  0.00     0.050 A 
ENDROOT
BRANCH   5  15
HETATM   15  S   UNL     1      24.925  47.175  50.428  1.00  0.00    -0.080 SA
BRANCH  15  16
HETATM   16  C   UNL     1      23.492  47.057  49.322  1.00  0.00     0.185 C 
BRANCH  16  17
HETATM   17  C   UNL     1      23.090  48.421  48.789  1.00  0.00     0.227 C 
HETATM   18  N   UNL     1      22.799  49.353  49.763  1.00  0.00    -0.360 N 
HETATM   19  H   UNL     1      22.500  48.980  50.665  1.00  0.00     0.162 HD
HETATM   20  O   UNL     1      23.063  48.672  47.586  1.00  0.00    -0.273 OA
BRANCH  18  21
HETATM   21  C   UNL     1      22.359  50.689  49.411  1.00  0.00     0.127 C 
BRANCH  21  22
HETATM   22  C   UNL     1      20.949  50.970  49.929  1.00  0.00     0.058 C 
BRANCH  22  23
HETATM   23  C   UNL     1      19.957  51.167  48.811  1.00  0.00    -0.057 A 
HETATM   24  C   UNL     1      19.870  50.244  47.761  1.00  0.00     0.007 A 
HETATM   25  C   UNL     1      18.959  50.441  46.721  1.00  0.00     0.001 A 
HETATM   26  C   UNL     1      18.128  51.559  46.722  1.00  0.00     0.000 A 
HETATM   27  C   UNL     1      18.208  52.485  47.761  1.00  0.00     0.001 A 
HETATM   28  C   UNL     1      19.120  52.291  48.799  1.00  0.00     0.007 A 
ENDBRANCH  22  23
ENDBRANCH  21  22
ENDBRANCH  18  21
ENDBRANCH  16  17
ENDBRANCH  15  16
ENDBRANCH   5  15
BRANCH  13  29
HETATM   29  O   UNL     1      28.403  45.764  56.387  1.00  0.00    -0.356 OA
HETATM   30  C   UNL     1      29.822  45.768  56.484  1.00  0.00     0.210 C 
ENDBRANCH  13  29
TORSDOF 7
ENDMDL
MODEL 8
REMARK VINA RESULT:      -8.4      3.080      9.272
REMARK  7 active torsions:
REMARK  status: ('A' for Active; 'I' for Inactive)
REMARK    1  A    between atoms: C_5  and  S_6 
REMARK    2  A    between atoms: S_6  and  C_7 
REMARK    3  A    between atoms: C_7  and  C_8 
REMARK       I    between atoms: C_8  and  N_9 
REMARK    4  A    between atoms: N_9  and  C_10 
REMARK    5  A    between atoms: C_10  and  C_11 
REMARK    6  A    between atoms: C_11  and  C_12 
REMARK    7  A    between atoms: C_26  and  O_27 
ROOT
HETATM    1  C   UNL     1      20.885  51.201  48.723  1.00  0.00     0.052 C 
HETATM    2  C   UNL     1      21.092  49.707  48.664  1.00  0.00    -0.013 A 
HETATM    3  C   UNL     1      22.300  49.089  49.110  1.00  0.00     0.165 A 
HETATM    4  N   UNL     1      22.474  47.706  49.019  1.00  0.00    -0.271 N 
HETATM    5  C   UNL     1      23.744  47.508  49.534  1.00  0.00     0.197 A 
HETATM    6  N   UNL     1      24.266  48.655  49.911  1.00  0.00    -0.122 NA
HETATM    7  N   UNL     1      23.369  49.644  49.642  1.00  0.00    -0.128 NA
HETATM    8  C   UNL     1      21.461  46.842  48.516  1.00  0.00     0.053 A 
HETATM    9  C   UNL     1      20.266  47.459  48.102  1.00  0.00    -0.005 A 
HETATM   10  C   UNL     1      20.117  48.917  48.178  1.00  0.00     0.024 A 
HETATM   11  C   UNL     1      21.575  45.453  48.428  1.00  0.00     0.034 A 
HETATM   12  C   UNL     1      20.507  44.684  47.942  1.00  0.00     0.039 A 
HETATM   13  C   UNL     1      19.319  45.291  47.540  1.00  0.00     0.069 A 
HETATM   14  C   UNL     1      19.208  46.680  47.617  1.00  0.00     0.050 A 
ENDROOT
BRANCH   5  15
HETATM   15  S   UNL     1      24.602  46.012  49.688  1.00  0.00    -0.080 SA
BRANCH  15  16
HETATM   16  C   UNL     1      26.121  46.550  50.519  1.00  0.00     0.185 C 
BRANCH  16  17
HETATM   17  C   UNL     1      26.370  45.755  51.788  1.00  0.00     0.227 C 
HETATM   18  N   UNL     1      26.249  46.484  52.953  1.00  0.00    -0.360 N 
HETATM   19  H   UNL     1      26.400  47.491  52.868  1.00  0.00     0.162 HD
HETATM   20  O   UNL     1      26.622  44.552  51.769  1.00  0.00    -0.273 OA
BRANCH  18  21
HETATM   21  C   UNL     1      26.499  45.875  54.245  1.00  0.00     0.127 C 
BRANCH  21  22
HETATM   22  C   UNL     1      27.779  46.414  54.881  1.00  0.00     0.058 C 
BRANCH  22  23
HETATM   23  C   UNL     1      28.808  45.334  55.099  1.00  0.00    -0.057 A 
HETATM   24  C   UNL     1      28.723  44.116  54.413  1.00  0.00     0.007 A 
HETATM   25  C   UNL     1      29.672  43.115  54.631  1.00  0.00     0.001 A 
HETATM   26  C   UNL     1      30.712  43.322  55.534  1.00  0.00     0.000 A 
HETATM   27  C   UNL     1      30.804  44.529  56.224  1.00  0.00     0.001 A 
HETATM   28  C   UNL     1      29.856  45.530  56.010  1.00  0.00     0.007 A 
ENDBRANCH  22  23
ENDBRANCH  21  22
ENDBRANCH  18  21
ENDBRANCH  16  17
ENDBRANCH  15  16
ENDBRANCH   5  15
BRANCH  13  29
HETATM   29  O   UNL     1      18.210  44.654  47.061  1.00  0.00    -0.356 OA
HETATM   30  C   UNL     1      17.314  45.425  46.269  1.00  0.00     0.210 C 
ENDBRANCH  13  29
TORSDOF 7
ENDMDL
MODEL 9
REMARK VINA RESULT:      -8.0      3.545      5.104
REMARK  7 active torsions:
REMARK  status: ('A' for Active; 'I' for Inactive)
REMARK    1  A    between atoms: C_5  and  S_6 
REMARK    2  A    between atoms: S_6  and  C_7 
REMARK    3  A    between atoms: C_7  and  C_8 
REMARK       I    between atoms: C_8  and  N_9 
REMARK    4  A    between atoms: N_9  and  C_10 
REMARK    5  A    between atoms: C_10  and  C_11 
REMARK    6  A    between atoms: C_11  and  C_12 
REMARK    7  A    between atoms: C_26  and  O_27 
ROOT
HETATM    1  C   UNL     1      26.460  47.500  53.546  1.00  0.00     0.052 C 
HETATM    2  C   UNL     1      26.176  46.364  52.593  1.00  0.00    -0.013 A 
HETATM    3  C   UNL     1      25.306  46.514  51.470  1.00  0.00     0.165 A 
HETATM    4  N   UNL     1      25.042  45.439  50.619  1.00  0.00    -0.271 N 
HETATM    5  C   UNL     1      24.171  45.975  49.685  1.00  0.00     0.197 A 
HETATM    6  N   UNL     1      23.954  47.247  49.944  1.00  0.00    -0.122 NA
HETATM    7  N   UNL     1      24.657  47.584  51.060  1.00  0.00    -0.128 NA
HETATM    8  C   UNL     1      25.641  44.160  50.798  1.00  0.00     0.053 A 
HETATM    9  C   UNL     1      26.515  44.030  51.893  1.00  0.00    -0.005 A 
HETATM   10  C   UNL     1      26.755  45.165  52.792  1.00  0.00     0.024 A 
HETATM   11  C   UNL     1      25.429  43.061  49.962  1.00  0.00     0.034 A 
HETATM   12  C   UNL     1      26.090  41.848  50.207  1.00  0.00     0.039 A 
HETATM   13  C   UNL     1      26.963  41.719  51.284  1.00  0.00     0.069 A 
HETATM   14  C   UNL     1      27.166  42.813  52.127  1.00  0.00     0.050 A 
ENDROOT
BRANCH   5  15
HETATM   15  S   UNL     1      23.422  45.167  48.351  1.00  0.00    -0.080 SA
BRANCH  15  16
HETATM   16  C   UNL     1      21.975  44.418  49.147  1.00  0.00     0.185 C 
BRANCH  16  17
HETATM   17  C   UNL     1      20.687  45.084  48.696  1.00  0.00     0.227 C 
HETATM   18  N   UNL     1      20.560  46.402  49.080  1.00  0.00    -0.360 N 
HETATM   19  H   UNL     1      21.089  46.681  49.909  1.00  0.00     0.162 HD
HETATM   20  O   UNL     1      19.850  44.497  48.014  1.00  0.00    -0.273 OA
BRANCH  18  21
HETATM   21  C   UNL     1      19.367  47.161  48.762  1.00  0.00     0.127 C 
BRANCH  21  22
HETATM   22  C   UNL     1      19.013  48.145  49.876  1.00  0.00     0.058 C 
BRANCH  22  23
HETATM   23  C   UNL     1      19.170  49.581  49.444  1.00  0.00    -0.057 A 
HETATM   24  C   UNL     1      18.585  50.618  50.182  1.00  0.00     0.007 A 
HETATM   25  C   UNL     1      18.723  51.944  49.768  1.00  0.00     0.001 A 
HETATM   26  C   UNL     1      19.444  52.245  48.614  1.00  0.00     0.000 A 
HETATM   27  C   UNL     1      20.027  51.221  47.871  1.00  0.00     0.001 A 
HETATM   28  C   UNL     1      19.889  49.894  48.282  1.00  0.00     0.007 A 
ENDBRANCH  22  23
ENDBRANCH  21  22
ENDBRANCH  18  21
ENDBRANCH  16  17
ENDBRANCH  15  16
ENDBRANCH   5  15
BRANCH  13  29
HETATM   29  O   UNL     1      27.669  40.599  51.620  1.00  0.00    -0.356 OA
HETATM   30  C   UNL     1      28.817  40.782  52.440  1.00  0.00     0.210 C 
ENDBRANCH  13  29
TORSDOF 7
ENDMDL
MODEL 10
REMARK VINA RESULT:      -8.0     16.589     18.348
REMARK  7 active torsions:
REMARK  status: ('A' for Active; 'I' for Inactive)
REMARK    1  A    between atoms: C_5  and  S_6 
REMARK    2  A    between atoms: S_6  and  C_7 
REMARK    3  A    between atoms: C_7  and  C_8 
REMARK       I    between atoms: C_8  and  N_9 
REMARK    4  A    between atoms: N_9  and  C_10 
REMARK    5  A    between atoms: C_10  and  C_11 
REMARK    6  A    between atoms: C_11  and  C_12 
REMARK    7  A    between atoms: C_26  and  O_27 
ROOT
HETATM    1  C   UNL     1      37.734  51.903  66.100  1.00  0.00     0.052 C 
HETATM    2  C   UNL     1      38.160  50.469  66.301  1.00  0.00    -0.013 A 
HETATM    3  C   UNL     1      37.663  49.673  67.377  1.00  0.00     0.165 A 
HETATM    4  N   UNL     1      38.094  48.357  67.554  1.00  0.00    -0.271 N 
HETATM    5  C   UNL     1      37.404  47.941  68.681  1.00  0.00     0.197 A 
HETATM    6  N   UNL     1      36.626  48.906  69.119  1.00  0.00    -0.122 NA
HETATM    7  N   UNL     1      36.789  49.990  68.311  1.00  0.00    -0.128 NA
HETATM    8  C   UNL     1      39.015  47.730  66.666  1.00  0.00     0.053 A 
HETATM    9  C   UNL     1      39.479  48.516  65.596  1.00  0.00    -0.005 A 
HETATM   10  C   UNL     1      39.035  49.907  65.447  1.00  0.00     0.024 A 
HETATM   11  C   UNL     1      39.458  46.411  66.785  1.00  0.00     0.034 A 
HETATM   12  C   UNL     1      40.347  45.875  65.840  1.00  0.00     0.039 A 
HETATM   13  C   UNL     1      40.801  46.648  64.774  1.00  0.00     0.069 A 
HETATM   14  C   UNL     1      40.368  47.970  64.661  1.00  0.00     0.050 A 
ENDROOT
BRANCH   5  15
HETATM   15  S   UNL     1      37.496  46.403  69.470  1.00  0.00    -0.080 SA
BRANCH  15  16
HETATM   16  C   UNL     1      35.909  45.661  69.003  1.00  0.00     0.185 C 
BRANCH  16  17
HETATM   17  C   UNL     1      36.013  44.912  67.686  1.00  0.00     0.227 C 
HETATM   18  N   UNL     1      35.459  45.570  66.609  1.00  0.00    -0.360 N 
HETATM   19  H   UNL     1      34.726  46.248  66.826  1.00  0.00     0.162 HD
HETATM   20  O   UNL     1      36.578  43.825  67.594  1.00  0.00    -0.273 OA
BRANCH  18  21
HETATM   21  C   UNL     1      35.443  44.965  65.291  1.00  0.00     0.127 C 
BRANCH  21  22
HETATM   22  C   UNL     1      36.618  45.442  64.440  1.00  0.00     0.058 C 
BRANCH  22  23
HETATM   23  C   UNL     1      37.443  44.296  63.910  1.00  0.00    -0.057 A 
HETATM   24  C   UNL     1      38.464  44.521  62.978  1.00  0.00     0.007 A 
HETATM   25  C   UNL     1      39.214  43.454  62.480  1.00  0.00     0.001 A 
HETATM   26  C   UNL     1      38.951  42.154  62.909  1.00  0.00     0.000 A 
HETATM   27  C   UNL     1      37.935  41.919  63.834  1.00  0.00     0.001 A 
HETATM   28  C   UNL     1      37.183  42.984  64.330  1.00  0.00     0.007 A 
ENDBRANCH  22  23
ENDBRANCH  21  22
ENDBRANCH  18  21
ENDBRANCH  16  17
ENDBRANCH  15  16
ENDBRANCH   5  15
BRANCH  13  29
HETATM   29  O   UNL     1      41.655  46.240  63.789  1.00  0.00    -0.356 OA
HETATM   30  C   UNL     1      42.233  44.948  63.931  1.00  0.00     0.210 C 
ENDBRANCH  13  29
TORSDOF 7
ENDMDL
