MODEL 1
REMARK VINA RESULT:     -10.2      0.000      0.000
REMARK  7 active torsions:
REMARK  status: ('A' for Active; 'I' for Inactive)
REMARK    1  A    between atoms: C_3  and  C_4 
REMARK       I    between atoms: C_4  and  N_5 
REMARK    2  A    between atoms: N_5  and  C_6 
REMARK    3  A    between atoms: C_6  and  C_7 
REMARK    4  A    between atoms: C_7  and  O_8 
REMARK    5  A    between atoms: C_7  and  C_9 
REMARK    6  A    between atoms: C_18  and  N_19 
REMARK       I    between atoms: N_19  and  C_20 
REMARK    7  A    between atoms: C_20  and  C_21 
ROOT
HETATM    1  C   UNL     1      27.206  49.103  49.023  1.00  0.00     0.050 C 
HETATM    2  C   UNL     1      25.815  48.591  49.224  1.00  0.00    -0.037 A 
HETATM    3  C   UNL     1      25.488  47.306  49.642  1.00  0.00     0.080 A 
HETATM    4  S   UNL     1      23.786  47.097  49.727  1.00  0.00    -0.066 SA
HETATM    5  C   UNL     1      23.474  48.699  49.295  1.00  0.00     0.078 A 
HETATM    6  C   UNL     1      24.635  49.388  49.030  1.00  0.00     0.045 A 
ENDROOT
BRANCH   3   7
HETATM    7  C   UNL     1      26.391  46.222  50.024  1.00  0.00     0.259 C 
HETATM    8  N   UNL     1      26.198  45.711  51.287  1.00  0.00    -0.354 N 
HETATM    9  H   UNL     1      25.357  45.979  51.783  1.00  0.00     0.162 HD
HETATM   10  O   UNL     1      27.270  45.779  49.287  1.00  0.00    -0.267 OA
BRANCH   8  11
HETATM   11  C   UNL     1      27.022  44.656  51.846  1.00  0.00     0.159 C 
BRANCH  11  12
HETATM   12  C   UNL     1      26.810  44.462  53.361  1.00  0.00     0.169 C 
BRANCH  12  13
HETATM   13  O   UNL     1      26.005  45.531  53.870  1.00  0.00    -0.389 OA
HETATM   14  H   UNL     1      26.082  45.503  54.840  1.00  0.00     0.210 HD
ENDBRANCH  12  13
BRANCH  12  15
HETATM   15  C   UNL     1      28.105  44.349  54.148  1.00  0.00    -0.028 A 
HETATM   16  C   UNL     1      28.478  45.378  55.030  1.00  0.00     0.013 A 
HETATM   17  C   UNL     1      29.657  45.282  55.772  1.00  0.00     0.043 A 
HETATM   18  C   UNL     1      30.463  44.158  55.642  1.00  0.00     0.116 A 
HETATM   19  F   UNL     1      31.594  44.069  56.356  1.00  0.00    -0.206 F 
HETATM   20  C   UNL     1      30.112  43.124  54.785  1.00  0.00     0.043 A 
HETATM   21  C   UNL     1      28.936  43.219  54.039  1.00  0.00     0.013 A 
ENDBRANCH  12  15
ENDBRANCH  11  12
ENDBRANCH   8  11
ENDBRANCH   3   7
BRANCH   5  22
HETATM   22  N   UNL     1      22.197  49.228  49.268  1.00  0.00    -0.317 N 
HETATM   23  C   UNL     1      21.749  50.352  49.934  1.00  0.00     0.258 C 
HETATM   24  O   UNL     1      22.374  51.017  50.753  1.00  0.00    -0.267 OA
HETATM   25  H   UNL     1      21.533  48.723  48.692  1.00  0.00     0.169 HD
BRANCH  23  26
HETATM   26  C   UNL     1      20.376  50.829  49.571  1.00  0.00     0.054 A 
HETATM   27  C   UNL     1      19.172  50.347  50.105  1.00  0.00     0.049 A 
HETATM   28 CL   UNL     1      19.083  49.149  51.349  1.00  0.00    -0.083 Cl
HETATM   29  C   UNL     1      17.947  50.859  49.651  1.00  0.00     0.025 A 
HETATM   30  C   UNL     1      17.910  51.855  48.676  1.00  0.00     0.002 A 
HETATM   31  C   UNL     1      19.097  52.354  48.151  1.00  0.00     0.001 A 
HETATM   32  C   UNL     1      20.319  51.846  48.598  1.00  0.00     0.019 A 
ENDBRANCH  23  26
ENDBRANCH   5  22
TORSDOF 7
ENDMDL
MODEL 2
REMARK VINA RESULT:      -9.8      1.720      2.092
REMARK  7 active torsions:
REMARK  status: ('A' for Active; 'I' for Inactive)
REMARK    1  A    between atoms: C_3  and  C_4 
REMARK       I    between atoms: C_4  and  N_5 
REMARK    2  A    between atoms: N_5  and  C_6 
REMARK    3  A    between atoms: C_6  and  C_7 
REMARK    4  A    between atoms: C_7  and  O_8 
REMARK    5  A    between atoms: C_7  and  C_9 
REMARK    6  A    between atoms: C_18  and  N_19 
REMARK       I    between atoms: N_19  and  C_20 
REMARK    7  A    between atoms: C_20  and  C_21 
ROOT
HETATM    1  C   UNL     1      24.169  43.776  48.614  1.00  0.00     0.050 C 
HETATM    2  C   UNL     1      24.142  45.191  49.095  1.00  0.00    -0.037 A 
HETATM    3  C   UNL     1      25.196  45.842  49.725  1.00  0.00     0.080 A 
HETATM    4  S   UNL     1      24.767  47.449  50.149  1.00  0.00    -0.066 SA
HETATM    5  C   UNL     1      23.237  47.325  49.447  1.00  0.00     0.078 A 
HETATM    6  C   UNL     1      23.012  46.066  48.939  1.00  0.00     0.045 A 
ENDROOT
BRANCH   3   7
HETATM    7  C   UNL     1      26.540  45.335  49.996  1.00  0.00     0.259 C 
HETATM    8  N   UNL     1      26.637  44.453  51.048  1.00  0.00    -0.354 N 
HETATM    9  H   UNL     1      25.778  44.080  51.434  1.00  0.00     0.162 HD
HETATM   10  O   UNL     1      27.532  45.660  49.345  1.00  0.00    -0.267 OA
BRANCH   8  11
HETATM   11  C   UNL     1      27.895  43.875  51.480  1.00  0.00     0.159 C 
BRANCH  11  12
HETATM   12  C   UNL     1      27.783  43.112  52.815  1.00  0.00     0.169 C 
BRANCH  12  13
HETATM   13  O   UNL     1      26.411  43.061  53.221  1.00  0.00    -0.389 OA
HETATM   14  H   UNL     1      26.407  43.014  54.193  1.00  0.00     0.210 HD
ENDBRANCH  12  13
BRANCH  12  15
HETATM   15  C   UNL     1      28.644  43.693  53.923  1.00  0.00    -0.028 A 
HETATM   16  C   UNL     1      28.270  44.899  54.540  1.00  0.00     0.013 A 
HETATM   17  C   UNL     1      29.043  45.438  55.571  1.00  0.00     0.043 A 
HETATM   18  C   UNL     1      30.187  44.773  55.994  1.00  0.00     0.116 A 
HETATM   19  F   UNL     1      30.925  45.293  56.983  1.00  0.00    -0.206 F 
HETATM   20  C   UNL     1      30.573  43.576  55.407  1.00  0.00     0.043 A 
HETATM   21  C   UNL     1      29.804  43.036  54.375  1.00  0.00     0.013 A 
ENDBRANCH  12  15
ENDBRANCH  11  12
ENDBRANCH   8  11
ENDBRANCH   3   7
BRANCH   5  22
HETATM   22  N   UNL     1      22.363  48.395  49.371  1.00  0.00    -0.317 N 
HETATM   23  C   UNL     1      21.058  48.371  48.919  1.00  0.00     0.258 C 
HETATM   24  O   UNL     1      20.479  47.421  48.402  1.00  0.00    -0.267 OA
HETATM   25  H   UNL     1      22.739  49.282  49.686  1.00  0.00     0.169 HD
BRANCH  23  26
HETATM   26  C   UNL     1      20.263  49.621  49.134  1.00  0.00     0.054 A 
HETATM   27  C   UNL     1      19.186  49.767  50.022  1.00  0.00     0.049 A 
HETATM   28 CL   UNL     1      18.640  48.517  51.084  1.00  0.00    -0.083 Cl
HETATM   29  C   UNL     1      18.502  50.989  50.102  1.00  0.00     0.025 A 
HETATM   30  C   UNL     1      18.888  52.073  49.313  1.00  0.00     0.002 A 
HETATM   31  C   UNL     1      19.965  51.947  48.443  1.00  0.00     0.001 A 
HETATM   32  C   UNL     1      20.648  50.732  48.357  1.00  0.00     0.019 A 
ENDBRANCH  23  26
ENDBRANCH   5  22
TORSDOF 7
ENDMDL
MODEL 3
REMARK VINA RESULT:      -9.6      4.449     10.643
REMARK  7 active torsions:
REMARK  status: ('A' for Active; 'I' for Inactive)
REMARK    1  A    between atoms: C_3  and  C_4 
REMARK       I    between atoms: C_4  and  N_5 
REMARK    2  A    between atoms: N_5  and  C_6 
REMARK    3  A    between atoms: C_6  and  C_7 
REMARK    4  A    between atoms: C_7  and  O_8 
REMARK    5  A    between atoms: C_7  and  C_9 
REMARK    6  A    between atoms: C_18  and  N_19 
REMARK       I    between atoms: N_19  and  C_20 
REMARK    7  A    between atoms: C_20  and  C_21 
ROOT
HETATM    1  C   UNL     1      22.865  43.187  50.014  1.00  0.00     0.050 C 
HETATM    2  C   UNL     1      23.968  44.124  50.387  1.00  0.00    -0.037 A 
HETATM    3  C   UNL     1      24.103  45.428  49.922  1.00  0.00     0.080 A 
HETATM    4  S   UNL     1      25.513  46.170  50.560  1.00  0.00    -0.066 SA
HETATM    5  C   UNL     1      25.909  44.825  51.501  1.00  0.00     0.078 A 
HETATM    6  C   UNL     1      25.024  43.790  51.305  1.00  0.00     0.045 A 
ENDROOT
BRANCH   3   7
HETATM    7  C   UNL     1      23.201  46.173  49.046  1.00  0.00     0.259 C 
HETATM    8  N   UNL     1      22.803  47.403  49.517  1.00  0.00    -0.354 N 
HETATM    9  H   UNL     1      23.288  47.782  50.323  1.00  0.00     0.162 HD
HETATM   10  O   UNL     1      22.809  45.752  47.960  1.00  0.00    -0.267 OA
BRANCH   8  11
HETATM   11  C   UNL     1      21.885  48.265  48.798  1.00  0.00     0.159 C 
BRANCH  11  12
HETATM   12  C   UNL     1      22.046  49.755  49.159  1.00  0.00     0.169 C 
BRANCH  12  13
HETATM   13  O   UNL     1      22.785  49.873  50.380  1.00  0.00    -0.389 OA
HETATM   14  H   UNL     1      22.377  49.257  51.015  1.00  0.00     0.210 HD
ENDBRANCH  12  13
BRANCH  12  15
HETATM   15  C   UNL     1      20.727  50.503  49.260  1.00  0.00    -0.028 A 
HETATM   16  C   UNL     1      20.504  51.636  48.459  1.00  0.00     0.013 A 
HETATM   17  C   UNL     1      19.291  52.325  48.528  1.00  0.00     0.043 A 
HETATM   18  C   UNL     1      18.296  51.884  49.392  1.00  0.00     0.116 A 
HETATM   19  F   UNL     1      17.135  52.548  49.456  1.00  0.00    -0.206 F 
HETATM   20  C   UNL     1      18.489  50.762  50.187  1.00  0.00     0.043 A 
HETATM   21  C   UNL     1      19.701  50.073  50.121  1.00  0.00     0.013 A 
ENDBRANCH  12  15
ENDBRANCH  11  12
ENDBRANCH   8  11
ENDBRANCH   3   7
BRANCH   5  22
HETATM   22  N   UNL     1      26.975  44.820  52.382  1.00  0.00    -0.317 N 
HETATM   23  C   UNL     1      26.917  44.674  53.754  1.00  0.00     0.258 C 
HETATM   24  O   UNL     1      25.904  44.632  54.446  1.00  0.00    -0.267 OA
HETATM   25  H   UNL     1      27.887  44.937  51.956  1.00  0.00     0.169 HD
BRANCH  23  26
HETATM   26  C   UNL     1      28.230  44.495  54.453  1.00  0.00     0.054 A 
HETATM   27  C   UNL     1      29.025  43.340  54.426  1.00  0.00     0.049 A 
HETATM   28 CL   UNL     1      28.641  41.931  53.499  1.00  0.00    -0.083 Cl
HETATM   29  C   UNL     1      30.221  43.292  55.156  1.00  0.00     0.025 A 
HETATM   30  C   UNL     1      30.640  44.390  55.908  1.00  0.00     0.002 A 
HETATM   31  C   UNL     1      29.870  45.547  55.929  1.00  0.00     0.001 A 
HETATM   32  C   UNL     1      28.677  45.600  55.206  1.00  0.00     0.019 A 
ENDBRANCH  23  26
ENDBRANCH   5  22
TORSDOF 7
ENDMDL
MODEL 4
REMARK VINA RESULT:      -9.5      1.610      2.096
REMARK  7 active torsions:
REMARK  status: ('A' for Active; 'I' for Inactive)
REMARK    1  A    between atoms: C_3  and  C_4 
REMARK       I    between atoms: C_4  and  N_5 
REMARK    2  A    between atoms: N_5  and  C_6 
REMARK    3  A    between atoms: C_6  and  C_7 
REMARK    4  A    between atoms: C_7  and  O_8 
REMARK    5  A    between atoms: C_7  and  C_9 
REMARK    6  A    between atoms: C_18  and  N_19 
REMARK       I    between atoms: N_19  and  C_20 
REMARK    7  A    between atoms: C_20  and  C_21 
ROOT
HETATM    1  C   UNL     1      27.412  48.689  49.231  1.00  0.00     0.050 C 
HETATM    2  C   UNL     1      26.054  48.113  49.471  1.00  0.00    -0.037 A 
HETATM    3  C   UNL     1      25.801  46.834  49.955  1.00  0.00     0.080 A 
HETATM    4  S   UNL     1      24.114  46.537  50.067  1.00  0.00    -0.066 SA
HETATM    5  C   UNL     1      23.711  48.095  49.559  1.00  0.00     0.078 A 
HETATM    6  C   UNL     1      24.830  48.833  49.248  1.00  0.00     0.045 A 
ENDROOT
BRANCH   3   7
HETATM    7  C   UNL     1      26.765  45.822  50.381  1.00  0.00     0.259 C 
HETATM    8  N   UNL     1      26.638  45.398  51.684  1.00  0.00    -0.354 N 
HETATM    9  H   UNL     1      25.802  45.665  52.190  1.00  0.00     0.162 HD
HETATM   10  O   UNL     1      27.639  45.365  49.647  1.00  0.00    -0.267 OA
BRANCH   8  11
HETATM   11  C   UNL     1      27.527  44.424  52.288  1.00  0.00     0.159 C 
BRANCH  11  12
HETATM   12  C   UNL     1      27.300  44.256  53.803  1.00  0.00     0.169 C 
BRANCH  12  13
HETATM   13  O   UNL     1      26.456  45.310  54.279  1.00  0.00    -0.389 OA
HETATM   14  H   UNL     1      26.899  45.694  55.056  1.00  0.00     0.210 HD
ENDBRANCH  12  13
BRANCH  12  15
HETATM   15  C   UNL     1      28.586  44.198  54.610  1.00  0.00    -0.028 A 
HETATM   16  C   UNL     1      29.447  43.094  54.475  1.00  0.00     0.013 A 
HETATM   17  C   UNL     1      30.641  43.033  55.197  1.00  0.00     0.043 A 
HETATM   18  C   UNL     1      30.983  44.075  56.051  1.00  0.00     0.116 A 
HETATM   19  F   UNL     1      32.128  44.012  56.742  1.00  0.00    -0.206 F 
HETATM   20  C   UNL     1      30.155  45.179  56.195  1.00  0.00     0.043 A 
HETATM   21  C   UNL     1      28.960  45.242  55.477  1.00  0.00     0.013 A 
ENDBRANCH  12  15
ENDBRANCH  11  12
ENDBRANCH   8  11
ENDBRANCH   3   7
BRANCH   5  22
HETATM   22  N   UNL     1      22.406  48.551  49.518  1.00  0.00    -0.317 N 
HETATM   23  C   UNL     1      21.560  48.551  48.426  1.00  0.00     0.258 C 
HETATM   24  O   UNL     1      21.851  48.249  47.273  1.00  0.00    -0.267 OA
HETATM   25  H   UNL     1      22.050  48.920  50.392  1.00  0.00     0.169 HD
BRANCH  23  26
HETATM   26  C   UNL     1      20.132  48.907  48.699  1.00  0.00     0.054 A 
HETATM   27  C   UNL     1      19.608  50.207  48.769  1.00  0.00     0.049 A 
HETATM   28 CL   UNL     1      20.537  51.635  48.470  1.00  0.00    -0.083 Cl
HETATM   29  C   UNL     1      18.252  50.404  49.068  1.00  0.00     0.025 A 
HETATM   30  C   UNL     1      17.408  49.316  49.290  1.00  0.00     0.002 A 
HETATM   31  C   UNL     1      17.910  48.022  49.206  1.00  0.00     0.001 A 
HETATM   32  C   UNL     1      19.260  47.821  48.911  1.00  0.00     0.019 A 
ENDBRANCH  23  26
ENDBRANCH   5  22
TORSDOF 7
ENDMDL
MODEL 5
REMARK VINA RESULT:      -9.3      2.502      3.314
REMARK  7 active torsions:
REMARK  status: ('A' for Active; 'I' for Inactive)
REMARK    1  A    between atoms: C_3  and  C_4 
REMARK       I    between atoms: C_4  and  N_5 
REMARK    2  A    between atoms: N_5  and  C_6 
REMARK    3  A    between atoms: C_6  and  C_7 
REMARK    4  A    between atoms: C_7  and  O_8 
REMARK    5  A    between atoms: C_7  and  C_9 
REMARK    6  A    between atoms: C_18  and  N_19 
REMARK       I    between atoms: N_19  and  C_20 
REMARK    7  A    between atoms: C_20  and  C_21 
ROOT
HETATM    1  C   UNL     1      23.955  42.382  49.104  1.00  0.00     0.050 C 
HETATM    2  C   UNL     1      24.193  43.822  49.428  1.00  0.00    -0.037 A 
HETATM    3  C   UNL     1      25.379  44.344  49.932  1.00  0.00     0.080 A 
HETATM    4  S   UNL     1      25.248  46.035  50.197  1.00  0.00    -0.066 SA
HETATM    5  C   UNL     1      23.676  46.104  49.584  1.00  0.00     0.078 A 
HETATM    6  C   UNL     1      23.215  44.857  49.229  1.00  0.00     0.045 A 
ENDROOT
BRANCH   3   7
HETATM    7  C   UNL     1      26.635  43.645  50.194  1.00  0.00     0.259 C 
HETATM    8  N   UNL     1      27.066  43.675  51.501  1.00  0.00    -0.354 N 
HETATM    9  H   UNL     1      26.419  44.006  52.206  1.00  0.00     0.162 HD
HETATM   10  O   UNL     1      27.282  43.063  49.325  1.00  0.00    -0.267 OA
BRANCH   8  11
HETATM   11  C   UNL     1      28.307  43.064  51.936  1.00  0.00     0.159 C 
BRANCH  11  12
HETATM   12  C   UNL     1      28.259  42.574  53.398  1.00  0.00     0.169 C 
BRANCH  12  13
HETATM   13  O   UNL     1      26.900  42.322  53.772  1.00  0.00    -0.389 OA
HETATM   14  H   UNL     1      26.414  43.155  53.641  1.00  0.00     0.210 HD
ENDBRANCH  12  13
BRANCH  12  15
HETATM   15  C   UNL     1      28.913  43.530  54.382  1.00  0.00    -0.028 A 
HETATM   16  C   UNL     1      30.170  43.218  54.927  1.00  0.00     0.013 A 
HETATM   17  C   UNL     1      30.793  44.093  55.820  1.00  0.00     0.043 A 
HETATM   18  C   UNL     1      30.166  45.283  56.168  1.00  0.00     0.116 A 
HETATM   19  F   UNL     1      30.765  46.120  57.025  1.00  0.00    -0.206 F 
HETATM   20  C   UNL     1      28.928  45.618  55.636  1.00  0.00     0.043 A 
HETATM   21  C   UNL     1      28.303  44.745  54.746  1.00  0.00     0.013 A 
ENDBRANCH  12  15
ENDBRANCH  11  12
ENDBRANCH   8  11
ENDBRANCH   3   7
BRANCH   5  22
HETATM   22  N   UNL     1      22.988  47.294  49.432  1.00  0.00    -0.317 N 
HETATM   23  C   UNL     1      22.333  47.735  48.299  1.00  0.00     0.258 C 
HETATM   24  O   UNL     1      22.340  47.203  47.194  1.00  0.00    -0.267 OA
HETATM   25  H   UNL     1      22.972  47.891  50.251  1.00  0.00     0.169 HD
BRANCH  23  26
HETATM   26  C   UNL     1      21.491  48.963  48.461  1.00  0.00     0.054 A 
HETATM   27  C   UNL     1      21.923  50.285  48.282  1.00  0.00     0.049 A 
HETATM   28 CL   UNL     1      23.516  50.714  47.763  1.00  0.00    -0.083 Cl
HETATM   29  C   UNL     1      21.036  51.350  48.501  1.00  0.00     0.025 A 
HETATM   30  C   UNL     1      19.718  51.110  48.887  1.00  0.00     0.002 A 
HETATM   31  C   UNL     1      19.272  49.804  49.051  1.00  0.00     0.001 A 
HETATM   32  C   UNL     1      20.151  48.739  48.837  1.00  0.00     0.019 A 
ENDBRANCH  23  26
ENDBRANCH   5  22
TORSDOF 7
ENDMDL
MODEL 6
REMARK VINA RESULT:      -9.0      2.084      2.598
REMARK  7 active torsions:
REMARK  status: ('A' for Active; 'I' for Inactive)
REMARK    1  A    between atoms: C_3  and  C_4 
REMARK       I    between atoms: C_4  and  N_5 
REMARK    2  A    between atoms: N_5  and  C_6 
REMARK    3  A    between atoms: C_6  and  C_7 
REMARK    4  A    between atoms: C_7  and  O_8 
REMARK    5  A    between atoms: C_7  and  C_9 
REMARK    6  A    between atoms: C_18  and  N_19 
REMARK       I    between atoms: N_19  and  C_20 
REMARK    7  A    between atoms: C_20  and  C_21 
ROOT
HETATM    1  C   UNL     1      26.930  49.868  48.500  1.00  0.00     0.050 C 
HETATM    2  C   UNL     1      25.587  49.291  48.812  1.00  0.00    -0.037 A 
HETATM    3  C   UNL     1      25.362  48.027  49.346  1.00  0.00     0.080 A 
HETATM    4  S   UNL     1      23.684  47.724  49.535  1.00  0.00    -0.066 SA
HETATM    5  C   UNL     1      23.249  49.264  48.995  1.00  0.00     0.078 A 
HETATM    6  C   UNL     1      24.350  49.998  48.617  1.00  0.00     0.045 A 
ENDROOT
BRANCH   3   7
HETATM    7  C   UNL     1      26.349  47.034  49.765  1.00  0.00     0.259 C 
HETATM    8  N   UNL     1      26.016  46.307  50.885  1.00  0.00    -0.354 N 
HETATM    9  H   UNL     1      25.065  46.371  51.225  1.00  0.00     0.162 HD
HETATM   10  O   UNL     1      27.412  46.844  49.176  1.00  0.00    -0.267 OA
BRANCH   8  11
HETATM   11  C   UNL     1      26.889  45.303  51.462  1.00  0.00     0.159 C 
BRANCH  11  12
HETATM   12  C   UNL     1      26.152  44.001  51.830  1.00  0.00     0.169 C 
BRANCH  12  13
HETATM   13  O   UNL     1      25.511  44.158  53.101  1.00  0.00    -0.389 OA
HETATM   14  H   UNL     1      26.069  43.703  53.755  1.00  0.00     0.210 HD
ENDBRANCH  12  13
BRANCH  12  15
HETATM   15  C   UNL     1      27.048  42.773  51.835  1.00  0.00    -0.028 A 
HETATM   16  C   UNL     1      26.716  41.663  51.039  1.00  0.00     0.013 A 
HETATM   17  C   UNL     1      27.538  40.534  51.019  1.00  0.00     0.043 A 
HETATM   18  C   UNL     1      28.695  40.511  51.788  1.00  0.00     0.116 A 
HETATM   19  F   UNL     1      29.480  39.426  51.767  1.00  0.00    -0.206 F 
HETATM   20  C   UNL     1      29.049  41.598  52.575  1.00  0.00     0.043 A 
HETATM   21  C   UNL     1      28.229  42.727  52.599  1.00  0.00     0.013 A 
ENDBRANCH  12  15
ENDBRANCH  11  12
ENDBRANCH   8  11
ENDBRANCH   3   7
BRANCH   5  22
HETATM   22  N   UNL     1      21.941  49.711  48.993  1.00  0.00    -0.317 N 
HETATM   23  C   UNL     1      21.370  50.615  49.867  1.00  0.00     0.258 C 
HETATM   24  O   UNL     1      21.892  51.098  50.867  1.00  0.00    -0.267 OA
HETATM   25  H   UNL     1      21.354  49.322  48.263  1.00  0.00     0.169 HD
BRANCH  23  26
HETATM   26  C   UNL     1      19.992  51.087  49.520  1.00  0.00     0.054 A 
HETATM   27  C   UNL     1      18.793  50.572  50.036  1.00  0.00     0.049 A 
HETATM   28 CL   UNL     1      18.719  49.331  51.239  1.00  0.00    -0.083 Cl
HETATM   29  C   UNL     1      17.562  51.083  49.599  1.00  0.00     0.025 A 
HETATM   30  C   UNL     1      17.513  52.111  48.657  1.00  0.00     0.002 A 
HETATM   31  C   UNL     1      18.694  52.643  48.151  1.00  0.00     0.001 A 
HETATM   32  C   UNL     1      19.922  52.136  48.581  1.00  0.00     0.019 A 
ENDBRANCH  23  26
ENDBRANCH   5  22
TORSDOF 7
ENDMDL
MODEL 7
REMARK VINA RESULT:      -8.9      4.218     10.034
REMARK  7 active torsions:
REMARK  status: ('A' for Active; 'I' for Inactive)
REMARK    1  A    between atoms: C_3  and  C_4 
REMARK       I    between atoms: C_4  and  N_5 
REMARK    2  A    between atoms: N_5  and  C_6 
REMARK    3  A    between atoms: C_6  and  C_7 
REMARK    4  A    between atoms: C_7  and  O_8 
REMARK    5  A    between atoms: C_7  and  C_9 
REMARK    6  A    between atoms: C_18  and  N_19 
REMARK       I    between atoms: N_19  and  C_20 
REMARK    7  A    between atoms: C_20  and  C_21 
ROOT
HETATM    1  C   UNL     1      23.919  48.448  49.333  1.00  0.00     0.050 C 
HETATM    2  C   UNL     1      24.408  47.172  49.939  1.00  0.00    -0.037 A 
HETATM    3  C   UNL     1      23.887  45.910  49.676  1.00  0.00     0.080 A 
HETATM    4  S   UNL     1      24.700  44.703  50.586  1.00  0.00    -0.066 SA
HETATM    5  C   UNL     1      25.780  45.809  51.264  1.00  0.00     0.078 A 
HETATM    6  C   UNL     1      25.508  47.096  50.861  1.00  0.00     0.045 A 
ENDROOT
BRANCH   3   7
HETATM    7  C   UNL     1      22.826  45.547  48.739  1.00  0.00     0.259 C 
HETATM    8  N   UNL     1      21.544  45.792  49.175  1.00  0.00    -0.354 N 
HETATM    9  H   UNL     1      21.427  46.359  50.007  1.00  0.00     0.162 HD
HETATM   10  O   UNL     1      23.038  45.054  47.633  1.00  0.00    -0.267 OA
BRANCH   8  11
HETATM   11  C   UNL     1      20.368  45.465  48.392  1.00  0.00     0.159 C 
BRANCH  11  12
HETATM   12  C   UNL     1      19.864  46.644  47.537  1.00  0.00     0.169 C 
BRANCH  12  13
HETATM   13  O   UNL     1      20.632  46.721  46.331  1.00  0.00    -0.389 OA
HETATM   14  H   UNL     1      20.553  47.635  46.006  1.00  0.00     0.210 HD
ENDBRANCH  12  13
BRANCH  12  15
HETATM   15  C   UNL     1      19.884  47.978  48.266  1.00  0.00    -0.028 A 
HETATM   16  C   UNL     1      20.642  49.044  47.753  1.00  0.00     0.013 A 
HETATM   17  C   UNL     1      20.658  50.280  48.402  1.00  0.00     0.043 A 
HETATM   18  C   UNL     1      19.913  50.459  49.561  1.00  0.00     0.116 A 
HETATM   19  F   UNL     1      19.931  51.646  50.181  1.00  0.00    -0.206 F 
HETATM   20  C   UNL     1      19.148  49.424  50.083  1.00  0.00     0.043 A 
HETATM   21  C   UNL     1      19.132  48.187  49.438  1.00  0.00     0.013 A 
ENDBRANCH  12  15
ENDBRANCH  11  12
ENDBRANCH   8  11
ENDBRANCH   3   7
BRANCH   5  22
HETATM   22  N   UNL     1      26.825  45.423  52.084  1.00  0.00    -0.317 N 
HETATM   23  C   UNL     1      26.763  45.154  53.437  1.00  0.00     0.258 C 
HETATM   24  O   UNL     1      25.794  45.314  54.174  1.00  0.00    -0.267 OA
HETATM   25  H   UNL     1      27.724  45.334  51.625  1.00  0.00     0.169 HD
BRANCH  23  26
HETATM   26  C   UNL     1      27.992  44.555  54.047  1.00  0.00     0.054 A 
HETATM   27  C   UNL     1      28.801  45.156  55.023  1.00  0.00     0.049 A 
HETATM   28 CL   UNL     1      28.457  46.688  55.747  1.00  0.00    -0.083 Cl
HETATM   29  C   UNL     1      29.950  44.498  55.486  1.00  0.00     0.025 A 
HETATM   30  C   UNL     1      30.297  43.240  54.993  1.00  0.00     0.002 A 
HETATM   31  C   UNL     1      29.494  42.626  54.039  1.00  0.00     0.001 A 
HETATM   32  C   UNL     1      28.351  43.277  53.572  1.00  0.00     0.019 A 
ENDBRANCH  23  26
ENDBRANCH   5  22
TORSDOF 7
ENDMDL
MODEL 8
REMARK VINA RESULT:      -8.9      4.108      9.662
REMARK  7 active torsions:
REMARK  status: ('A' for Active; 'I' for Inactive)
REMARK    1  A    between atoms: C_3  and  C_4 
REMARK       I    between atoms: C_4  and  N_5 
REMARK    2  A    between atoms: N_5  and  C_6 
REMARK    3  A    between atoms: C_6  and  C_7 
REMARK    4  A    between atoms: C_7  and  O_8 
REMARK    5  A    between atoms: C_7  and  C_9 
REMARK    6  A    between atoms: C_18  and  N_19 
REMARK       I    between atoms: N_19  and  C_20 
REMARK    7  A    between atoms: C_20  and  C_21 
ROOT
HETATM    1  C   UNL     1      25.249  41.619  49.582  1.00  0.00     0.050 C 
HETATM    2  C   UNL     1      25.612  42.680  50.571  1.00  0.00    -0.037 A 
HETATM    3  C   UNL     1      25.025  43.939  50.647  1.00  0.00     0.080 A 
HETATM    4  S   UNL     1      25.733  44.878  51.897  1.00  0.00    -0.066 SA
HETATM    5  C   UNL     1      26.750  43.624  52.391  1.00  0.00     0.078 A 
HETATM    6  C   UNL     1      26.610  42.512  51.592  1.00  0.00     0.045 A 
ENDROOT
BRANCH   3   7
HETATM    7  C   UNL     1      23.921  44.471  49.851  1.00  0.00     0.259 C 
HETATM    8  N   UNL     1      24.005  45.810  49.546  1.00  0.00    -0.354 N 
HETATM    9  H   UNL     1      24.883  46.283  49.726  1.00  0.00     0.162 HD
HETATM   10  O   UNL     1      22.971  43.790  49.468  1.00  0.00    -0.267 OA
BRANCH   8  11
HETATM   11  C   UNL     1      22.984  46.514  48.794  1.00  0.00     0.159 C 
BRANCH  11  12
HETATM   12  C   UNL     1      23.113  48.048  48.890  1.00  0.00     0.169 C 
BRANCH  12  13
HETATM   13  O   UNL     1      22.409  48.655  47.801  1.00  0.00    -0.389 OA
HETATM   14  H   UNL     1      22.005  47.931  47.290  1.00  0.00     0.210 HD
ENDBRANCH  12  13
BRANCH  12  15
HETATM   15  C   UNL     1      24.550  48.537  48.934  1.00  0.00    -0.028 A 
HETATM   16  C   UNL     1      25.476  47.912  49.788  1.00  0.00     0.013 A 
HETATM   17  C   UNL     1      26.805  48.340  49.828  1.00  0.00     0.043 A 
HETATM   18  C   UNL     1      27.216  49.387  49.013  1.00  0.00     0.116 A 
HETATM   19  F   UNL     1      28.491  49.794  49.054  1.00  0.00    -0.206 F 
HETATM   20  C   UNL     1      26.324  50.015  48.154  1.00  0.00     0.043 A 
HETATM   21  C   UNL     1      24.995  49.591  48.114  1.00  0.00     0.013 A 
ENDBRANCH  12  15
ENDBRANCH  11  12
ENDBRANCH   8  11
ENDBRANCH   3   7
BRANCH   5  22
HETATM   22  N   UNL     1      27.576  43.726  53.496  1.00  0.00    -0.317 N 
HETATM   23  C   UNL     1      28.957  43.698  53.506  1.00  0.00     0.258 C 
HETATM   24  O   UNL     1      29.693  43.467  52.552  1.00  0.00    -0.267 OA
HETATM   25  H   UNL     1      27.098  43.832  54.383  1.00  0.00     0.169 HD
BRANCH  23  26
HETATM   26  C   UNL     1      29.612  44.036  54.809  1.00  0.00     0.054 A 
HETATM   27  C   UNL     1      29.418  45.215  55.545  1.00  0.00     0.049 A 
HETATM   28 CL   UNL     1      28.310  46.461  55.089  1.00  0.00    -0.083 Cl
HETATM   29  C   UNL     1      30.125  45.422  56.739  1.00  0.00     0.025 A 
HETATM   30  C   UNL     1      31.017  44.461  57.214  1.00  0.00     0.002 A 
HETATM   31  C   UNL     1      31.204  43.280  56.504  1.00  0.00     0.001 A 
HETATM   32  C   UNL     1      30.506  43.069  55.313  1.00  0.00     0.019 A 
ENDBRANCH  23  26
ENDBRANCH   5  22
TORSDOF 7
ENDMDL
MODEL 9
REMARK VINA RESULT:      -8.8      2.500      3.034
REMARK  7 active torsions:
REMARK  status: ('A' for Active; 'I' for Inactive)
REMARK    1  A    between atoms: C_3  and  C_4 
REMARK       I    between atoms: C_4  and  N_5 
REMARK    2  A    between atoms: N_5  and  C_6 
REMARK    3  A    between atoms: C_6  and  C_7 
REMARK    4  A    between atoms: C_7  and  O_8 
REMARK    5  A    between atoms: C_7  and  C_9 
REMARK    6  A    between atoms: C_18  and  N_19 
REMARK       I    between atoms: N_19  and  C_20 
REMARK    7  A    between atoms: C_20  and  C_21 
ROOT
HETATM    1  C   UNL     1      26.682  45.599  51.933  1.00  0.00     0.050 C 
HETATM    2  C   UNL     1      25.555  45.727  50.959  1.00  0.00    -0.037 A 
HETATM    3  C   UNL     1      25.104  44.714  50.119  1.00  0.00     0.080 A 
HETATM    4  S   UNL     1      23.811  45.259  49.131  1.00  0.00    -0.066 SA
HETATM    5  C   UNL     1      23.785  46.788  49.847  1.00  0.00     0.078 A 
HETATM    6  C   UNL     1      24.778  46.924  50.790  1.00  0.00     0.045 A 
ENDROOT
BRANCH   3   7
HETATM    7  C   UNL     1      25.567  43.330  50.042  1.00  0.00     0.259 C 
HETATM    8  N   UNL     1      26.927  43.155  50.157  1.00  0.00    -0.354 N 
HETATM    9  H   UNL     1      27.482  43.946  50.463  1.00  0.00     0.162 HD
HETATM   10  O   UNL     1      24.814  42.371  49.885  1.00  0.00    -0.267 OA
BRANCH   8  11
HETATM   11  C   UNL     1      27.566  41.857  50.070  1.00  0.00     0.159 C 
BRANCH  11  12
HETATM   12  C   UNL     1      27.685  41.150  51.435  1.00  0.00     0.169 C 
BRANCH  12  13
HETATM   13  O   UNL     1      26.401  40.652  51.829  1.00  0.00    -0.389 OA
HETATM   14  H   UNL     1      26.169  39.947  51.200  1.00  0.00     0.210 HD
ENDBRANCH  12  13
BRANCH  12  15
HETATM   15  C   UNL     1      28.272  42.028  52.527  1.00  0.00    -0.028 A 
HETATM   16  C   UNL     1      27.439  42.538  53.538  1.00  0.00     0.013 A 
HETATM   17  C   UNL     1      27.966  43.334  54.557  1.00  0.00     0.043 A 
HETATM   18  C   UNL     1      29.326  43.618  54.575  1.00  0.00     0.116 A 
HETATM   19  F   UNL     1      29.828  44.382  55.555  1.00  0.00    -0.206 F 
HETATM   20  C   UNL     1      30.172  43.119  53.594  1.00  0.00     0.043 A 
HETATM   21  C   UNL     1      29.647  42.326  52.573  1.00  0.00     0.013 A 
ENDBRANCH  12  15
ENDBRANCH  11  12
ENDBRANCH   8  11
ENDBRANCH   3   7
BRANCH   5  22
HETATM   22  N   UNL     1      22.838  47.744  49.528  1.00  0.00    -0.317 N 
HETATM   23  C   UNL     1      22.962  48.759  48.599  1.00  0.00     0.258 C 
HETATM   24  O   UNL     1      23.973  49.060  47.972  1.00  0.00    -0.267 OA
HETATM   25  H   UNL     1      21.966  47.675  50.040  1.00  0.00     0.169 HD
BRANCH  23  26
HETATM   26  C   UNL     1      21.715  49.531  48.297  1.00  0.00     0.054 A 
HETATM   27  C   UNL     1      20.630  49.073  47.534  1.00  0.00     0.049 A 
HETATM   28 CL   UNL     1      20.528  47.480  46.868  1.00  0.00    -0.083 Cl
HETATM   29  C   UNL     1      19.533  49.914  47.296  1.00  0.00     0.025 A 
HETATM   30  C   UNL     1      19.501  51.206  47.820  1.00  0.00     0.002 A 
HETATM   31  C   UNL     1      20.561  51.666  48.593  1.00  0.00     0.001 A 
HETATM   32  C   UNL     1      21.657  50.834  48.830  1.00  0.00     0.019 A 
ENDBRANCH  23  26
ENDBRANCH   5  22
TORSDOF 7
ENDMDL
MODEL 10
REMARK VINA RESULT:      -8.7      4.671     10.982
REMARK  7 active torsions:
REMARK  status: ('A' for Active; 'I' for Inactive)
REMARK    1  A    between atoms: C_3  and  C_4 
REMARK       I    between atoms: C_4  and  N_5 
REMARK    2  A    between atoms: N_5  and  C_6 
REMARK    3  A    between atoms: C_6  and  C_7 
REMARK    4  A    between atoms: C_7  and  O_8 
REMARK    5  A    between atoms: C_7  and  C_9 
REMARK    6  A    between atoms: C_18  and  N_19 
REMARK       I    between atoms: N_19  and  C_20 
REMARK    7  A    between atoms: C_20  and  C_21 
ROOT
HETATM    1  C   UNL     1      21.964  44.110  47.635  1.00  0.00     0.050 C 
HETATM    2  C   UNL     1      22.965  44.701  48.576  1.00  0.00    -0.037 A 
HETATM    3  C   UNL     1      23.090  46.055  48.865  1.00  0.00     0.080 A 
HETATM    4  S   UNL     1      24.372  46.337  49.970  1.00  0.00    -0.066 SA
HETATM    5  C   UNL     1      24.718  44.693  50.133  1.00  0.00     0.078 A 
HETATM    6  C   UNL     1      23.916  43.923  49.321  1.00  0.00     0.045 A 
ENDROOT
BRANCH   3   7
HETATM    7  C   UNL     1      22.265  47.162  48.384  1.00  0.00     0.259 C 
HETATM    8  N   UNL     1      21.535  47.817  49.349  1.00  0.00    -0.354 N 
HETATM    9  H   UNL     1      21.750  47.621  50.320  1.00  0.00     0.162 HD
HETATM   10  O   UNL     1      22.208  47.503  47.204  1.00  0.00    -0.267 OA
BRANCH   8  11
HETATM   11  C   UNL     1      20.638  48.916  49.050  1.00  0.00     0.159 C 
BRANCH  11  12
HETATM   12  C   UNL     1      19.481  49.044  50.061  1.00  0.00     0.169 C 
BRANCH  12  13
HETATM   13  O   UNL     1      18.996  47.740  50.398  1.00  0.00    -0.389 OA
HETATM   14  H   UNL     1      18.625  47.802  51.296  1.00  0.00     0.210 HD
ENDBRANCH  12  13
BRANCH  12  15
HETATM   15  C   UNL     1      18.342  49.926  49.576  1.00  0.00    -0.028 A 
HETATM   16  C   UNL     1      17.359  49.392  48.725  1.00  0.00     0.013 A 
HETATM   17  C   UNL     1      16.297  50.185  48.283  1.00  0.00     0.043 A 
HETATM   18  C   UNL     1      16.210  51.509  48.692  1.00  0.00     0.116 A 
HETATM   19  F   UNL     1      15.191  52.267  48.266  1.00  0.00    -0.206 F 
HETATM   20  C   UNL     1      17.163  52.058  49.540  1.00  0.00     0.043 A 
HETATM   21  C   UNL     1      18.226  51.269  49.981  1.00  0.00     0.013 A 
ENDBRANCH  12  15
ENDBRANCH  11  12
ENDBRANCH   8  11
ENDBRANCH   3   7
BRANCH   5  22
HETATM   22  N   UNL     1      25.667  44.215  51.018  1.00  0.00    -0.317 N 
HETATM   23  C   UNL     1      27.037  44.367  50.928  1.00  0.00     0.258 C 
HETATM   24  O   UNL     1      27.661  44.857  49.992  1.00  0.00    -0.267 OA
HETATM   25  H   UNL     1      25.298  43.702  51.810  1.00  0.00     0.169 HD
BRANCH  23  26
HETATM   26  C   UNL     1      27.827  43.934  52.124  1.00  0.00     0.054 A 
HETATM   27  C   UNL     1      27.827  44.561  53.380  1.00  0.00     0.049 A 
HETATM   28 CL   UNL     1      26.834  45.921  53.775  1.00  0.00    -0.083 Cl
HETATM   29  C   UNL     1      28.644  44.071  54.410  1.00  0.00     0.025 A 
HETATM   30  C   UNL     1      29.455  42.955  54.205  1.00  0.00     0.002 A 
HETATM   31  C   UNL     1      29.451  42.315  52.971  1.00  0.00     0.001 A 
HETATM   32  C   UNL     1      28.642  42.799  51.941  1.00  0.00     0.019 A 
ENDBRANCH  23  26
ENDBRANCH   5  22
TORSDOF 7
ENDMDL
