MODEL 1
REMARK VINA RESULT:      -9.6      0.000      0.000
REMARK  8 active torsions:
REMARK  status: ('A' for Active; 'I' for Inactive)
REMARK    1  A    between atoms: C_4  and  C_5 
REMARK    2  A    between atoms: C_5  and  N_6 
REMARK    3  A    between atoms: N_10  and  C_11 
REMARK    4  A    between atoms: C_13  and  N_14 
REMARK    5  A    between atoms: N_17  and  C_19 
REMARK    6  A    between atoms: C_19  and  C_20 
REMARK    7  A    between atoms: C_29  and  N_30 
REMARK    8  A    between atoms: C_31  and  N_32 
ROOT
HETATM    1  C   UNL     1      24.252  45.307  49.496  1.00  0.00     0.181 A 
HETATM    2  N   UNL     1      23.765  46.415  48.888  1.00  0.00    -0.042 NA
HETATM    3  C   UNL     1      22.682  46.360  48.095  1.00  0.00     0.728 A 
HETATM    4  N   UNL     1      22.051  45.221  47.811  1.00  0.00    -0.048 NA
HETATM    5  C   UNL     1      22.509  44.096  48.382  1.00  0.00     0.157 A 
HETATM    6  C   UNL     1      23.617  44.109  49.213  1.00  0.00     0.189 A 
ENDROOT
BRANCH   1   7
HETATM    7  N   UNL     1      25.331  45.537  50.333  1.00  0.00    -0.360 N 
HETATM    8  C   UNL     1      26.768  45.329  50.059  1.00  0.00     0.152 C 
HETATM    9  C   UNL     1      27.335  44.173  50.924  1.00  0.00     0.255 C 
HETATM   10  N   UNL     1      27.042  44.440  52.405  1.00  0.00    -0.064 N 
HETATM   11  H   UNL     1      27.519  45.323  52.626  1.00  0.00     0.280 HD
HETATM   12  C   UNL     1      25.562  44.707  52.658  1.00  0.00     0.255 C 
HETATM   13  C   UNL     1      25.054  45.855  51.754  1.00  0.00     0.152 C 
BRANCH  10  14
HETATM   14  C   UNL     1      27.660  43.434  53.360  1.00  0.00     0.273 C 
BRANCH  14  15
HETATM   15  C   UNL     1      28.674  43.926  54.360  1.00  0.00    -0.033 A 
HETATM   16  C   UNL     1      29.762  43.100  54.693  1.00  0.00     0.009 A 
HETATM   17  C   UNL     1      30.747  43.535  55.584  1.00  0.00     0.001 A 
HETATM   18  C   UNL     1      30.657  44.798  56.159  1.00  0.00     0.000 A 
HETATM   19  C   UNL     1      29.594  45.633  55.831  1.00  0.00     0.001 A 
HETATM   20  C   UNL     1      28.617  45.208  54.927  1.00  0.00     0.009 A 
ENDBRANCH  14  15
ENDBRANCH  10  14
ENDBRANCH   1   7
BRANCH   6  21
HETATM   21  N   UNL     1      23.978  42.891  49.850  1.00  0.00    -0.108 N 
HETATM   22  O   UNL     1      24.783  42.168  49.250  1.00  0.00    -0.532 OA
HETATM   23  O   UNL     1      23.417  42.615  50.917  1.00  0.00    -0.532 OA
ENDBRANCH   6  21
BRANCH   3  24
HETATM   24  N   UNL     1      22.186  47.557  47.591  1.00  0.00    -0.211 N 
HETATM   25  C   UNL     1      22.615  48.782  48.285  1.00  0.00     0.169 C 
HETATM   26  C   UNL     1      21.715  49.116  49.492  1.00  0.00     0.255 C 
HETATM   27  N   UNL     1      20.250  49.157  49.045  1.00  0.00    -0.064 N 
HETATM   28  H   UNL     1      20.186  49.882  48.319  1.00  0.00     0.280 HD
HETATM   29  C   UNL     1      19.845  47.830  48.409  1.00  0.00     0.255 C 
HETATM   30  C   UNL     1      20.768  47.507  47.209  1.00  0.00     0.169 C 
BRANCH  27  31
HETATM   31  C   UNL     1      19.310  49.586  50.146  1.00  0.00     0.273 C 
BRANCH  31  32
HETATM   32  C   UNL     1      18.271  50.563  49.665  1.00  0.00    -0.033 A 
HETATM   33  C   UNL     1      18.418  51.939  49.907  1.00  0.00     0.009 A 
HETATM   34  C   UNL     1      17.432  52.839  49.502  1.00  0.00     0.001 A 
HETATM   35  C   UNL     1      16.293  52.377  48.846  1.00  0.00     0.000 A 
HETATM   36  C   UNL     1      16.141  51.016  48.588  1.00  0.00     0.001 A 
HETATM   37  C   UNL     1      17.124  50.112  48.995  1.00  0.00     0.009 A 
ENDBRANCH  31  32
ENDBRANCH  27  31
ENDBRANCH   3  24
BRANCH   5  38
HETATM   38  N   UNL     1      21.812  42.950  48.019  1.00  0.00    -0.284 NA
HETATM   39  H   UNL     1      21.342  42.540  48.822  1.00  0.00     0.125 HD
HETATM   40  H   UNL     1      22.340  42.244  47.510  1.00  0.00     0.125 HD
ENDBRANCH   5  38
TORSDOF 8
ENDMDL
MODEL 2
REMARK VINA RESULT:      -9.5      2.795     10.917
REMARK  8 active torsions:
REMARK  status: ('A' for Active; 'I' for Inactive)
REMARK    1  A    between atoms: C_4  and  C_5 
REMARK    2  A    between atoms: C_5  and  N_6 
REMARK    3  A    between atoms: N_10  and  C_11 
REMARK    4  A    between atoms: C_13  and  N_14 
REMARK    5  A    between atoms: N_17  and  C_19 
REMARK    6  A    between atoms: C_19  and  C_20 
REMARK    7  A    between atoms: C_29  and  N_30 
REMARK    8  A    between atoms: C_31  and  N_32 
ROOT
HETATM    1  C   UNL     1      24.318  48.817  49.342  1.00  0.00     0.181 A 
HETATM    2  N   UNL     1      24.133  47.890  50.314  1.00  0.00    -0.042 NA
HETATM    3  C   UNL     1      25.158  47.170  50.800  1.00  0.00     0.728 A 
HETATM    4  N   UNL     1      26.401  47.275  50.332  1.00  0.00    -0.048 NA
HETATM    5  C   UNL     1      26.628  48.172  49.360  1.00  0.00     0.157 A 
HETATM    6  C   UNL     1      25.601  48.941  48.836  1.00  0.00     0.189 A 
ENDROOT
BRANCH   1   7
HETATM    7  N   UNL     1      23.179  49.522  48.995  1.00  0.00    -0.360 N 
HETATM    8  C   UNL     1      22.766  50.873  49.429  1.00  0.00     0.152 C 
HETATM    9  C   UNL     1      21.509  50.804  50.334  1.00  0.00     0.255 C 
HETATM   10  N   UNL     1      20.391  50.040  49.615  1.00  0.00    -0.064 N 
HETATM   11  H   UNL     1      20.193  50.578  48.763  1.00  0.00     0.280 HD
HETATM   12  C   UNL     1      20.854  48.671  49.126  1.00  0.00     0.255 C 
HETATM   13  C   UNL     1      22.119  48.806  48.246  1.00  0.00     0.152 C 
BRANCH  10  14
HETATM   14  C   UNL     1      19.066  50.014  50.356  1.00  0.00     0.273 C 
BRANCH  14  15
HETATM   15  C   UNL     1      17.897  50.752  49.759  1.00  0.00    -0.033 A 
HETATM   16  C   UNL     1      17.746  52.124  50.023  1.00  0.00     0.009 A 
HETATM   17  C   UNL     1      16.700  52.855  49.455  1.00  0.00     0.001 A 
HETATM   18  C   UNL     1      15.786  52.225  48.618  1.00  0.00     0.000 A 
HETATM   19  C   UNL     1      15.926  50.870  48.335  1.00  0.00     0.001 A 
HETATM   20  C   UNL     1      16.981  50.141  48.888  1.00  0.00     0.009 A 
ENDBRANCH  14  15
ENDBRANCH  10  14
ENDBRANCH   1   7
BRANCH   6  21
HETATM   21  N   UNL     1      25.943  49.932  47.876  1.00  0.00    -0.108 N 
HETATM   22  O   UNL     1      26.960  50.600  48.108  1.00  0.00    -0.532 OA
HETATM   23  O   UNL     1      25.173  50.098  46.924  1.00  0.00    -0.532 OA
ENDBRANCH   6  21
BRANCH   3  24
HETATM   24  N   UNL     1      24.901  46.314  51.864  1.00  0.00    -0.211 N 
HETATM   25  C   UNL     1      25.682  46.548  53.090  1.00  0.00     0.169 C 
HETATM   26  C   UNL     1      27.045  45.827  53.062  1.00  0.00     0.255 C 
HETATM   27  N   UNL     1      26.833  44.341  52.756  1.00  0.00    -0.064 N 
HETATM   28  H   UNL     1      26.230  43.971  53.501  1.00  0.00     0.280 HD
HETATM   29  C   UNL     1      26.092  44.164  51.433  1.00  0.00     0.255 C 
HETATM   30  C   UNL     1      24.734  44.906  51.477  1.00  0.00     0.169 C 
BRANCH  27  31
HETATM   31  C   UNL     1      28.112  43.539  52.818  1.00  0.00     0.273 C 
BRANCH  31  32
HETATM   32  C   UNL     1      28.932  43.861  54.039  1.00  0.00    -0.033 A 
HETATM   33  C   UNL     1      28.658  45.009  54.800  1.00  0.00     0.009 A 
HETATM   34  C   UNL     1      29.448  45.331  55.905  1.00  0.00     0.001 A 
HETATM   35  C   UNL     1      30.514  44.509  56.264  1.00  0.00     0.000 A 
HETATM   36  C   UNL     1      30.787  43.360  55.525  1.00  0.00     0.001 A 
HETATM   37  C   UNL     1      30.002  43.035  54.418  1.00  0.00     0.009 A 
ENDBRANCH  31  32
ENDBRANCH  27  31
ENDBRANCH   3  24
BRANCH   5  38
HETATM   38  N   UNL     1      27.943  48.206  48.912  1.00  0.00    -0.284 NA
HETATM   39  H   UNL     1      28.259  47.279  48.639  1.00  0.00     0.125 HD
HETATM   40  H   UNL     1      28.618  48.650  49.531  1.00  0.00     0.125 HD
ENDBRANCH   5  38
TORSDOF 8
ENDMDL
MODEL 3
REMARK VINA RESULT:      -9.2      2.306     10.549
REMARK  8 active torsions:
REMARK  status: ('A' for Active; 'I' for Inactive)
REMARK    1  A    between atoms: C_4  and  C_5 
REMARK    2  A    between atoms: C_5  and  N_6 
REMARK    3  A    between atoms: N_10  and  C_11 
REMARK    4  A    between atoms: C_13  and  N_14 
REMARK    5  A    between atoms: N_17  and  C_19 
REMARK    6  A    between atoms: C_19  and  C_20 
REMARK    7  A    between atoms: C_29  and  N_30 
REMARK    8  A    between atoms: C_31  and  N_32 
ROOT
HETATM    1  C   UNL     1      22.757  46.872  48.557  1.00  0.00     0.181 A 
HETATM    2  N   UNL     1      23.402  45.756  48.975  1.00  0.00    -0.042 NA
HETATM    3  C   UNL     1      24.622  45.819  49.533  1.00  0.00     0.728 A 
HETATM    4  N   UNL     1      25.298  46.960  49.666  1.00  0.00    -0.048 NA
HETATM    5  C   UNL     1      24.702  48.089  49.254  1.00  0.00     0.157 A 
HETATM    6  C   UNL     1      23.441  48.070  48.679  1.00  0.00     0.189 A 
ENDROOT
BRANCH   1   7
HETATM    7  N   UNL     1      21.482  46.650  48.065  1.00  0.00    -0.360 N 
HETATM    8  C   UNL     1      21.014  46.709  46.665  1.00  0.00     0.152 C 
HETATM    9  C   UNL     1      20.048  47.904  46.454  1.00  0.00     0.255 C 
HETATM   10  N   UNL     1      18.899  47.829  47.465  1.00  0.00    -0.064 N 
HETATM   11  H   UNL     1      18.420  46.940  47.273  1.00  0.00     0.280 HD
HETATM   12  C   UNL     1      19.403  47.712  48.900  1.00  0.00     0.255 C 
HETATM   13  C   UNL     1      20.373  46.515  49.040  1.00  0.00     0.152 C 
BRANCH  10  14
HETATM   14  C   UNL     1      17.821  48.882  47.274  1.00  0.00     0.273 C 
BRANCH  14  15
HETATM   15  C   UNL     1      17.927  50.164  48.057  1.00  0.00    -0.033 A 
HETATM   16  C   UNL     1      18.950  51.076  47.742  1.00  0.00     0.009 A 
HETATM   17  C   UNL     1      19.058  52.295  48.416  1.00  0.00     0.001 A 
HETATM   18  C   UNL     1      18.150  52.620  49.417  1.00  0.00     0.000 A 
HETATM   19  C   UNL     1      17.124  51.735  49.734  1.00  0.00     0.001 A 
HETATM   20  C   UNL     1      17.003  50.523  49.051  1.00  0.00     0.009 A 
ENDBRANCH  14  15
ENDBRANCH  10  14
ENDBRANCH   1   7
BRANCH   6  21
HETATM   21  N   UNL     1      22.844  49.319  48.357  1.00  0.00    -0.108 N 
HETATM   22  O   UNL     1      23.155  49.817  47.268  1.00  0.00    -0.532 OA
HETATM   23  O   UNL     1      22.115  49.842  49.208  1.00  0.00    -0.532 OA
ENDBRANCH   6  21
BRANCH   3  24
HETATM   24  N   UNL     1      25.171  44.641  50.026  1.00  0.00    -0.211 N 
HETATM   25  C   UNL     1      24.408  43.962  51.087  1.00  0.00     0.169 C 
HETATM   26  C   UNL     1      24.747  44.506  52.490  1.00  0.00     0.255 C 
HETATM   27  N   UNL     1      26.262  44.454  52.709  1.00  0.00    -0.064 N 
HETATM   28  H   UNL     1      26.538  43.469  52.613  1.00  0.00     0.280 HD
HETATM   29  C   UNL     1      26.989  45.245  51.625  1.00  0.00     0.255 C 
HETATM   30  C   UNL     1      26.627  44.692  50.225  1.00  0.00     0.169 C 
BRANCH  27  31
HETATM   31  C   UNL     1      26.670  44.868  54.104  1.00  0.00     0.273 C 
BRANCH  31  32
HETATM   32  C   UNL     1      28.037  44.362  54.475  1.00  0.00    -0.033 A 
HETATM   33  C   UNL     1      28.477  43.103  54.033  1.00  0.00     0.009 A 
HETATM   34  C   UNL     1      29.727  42.615  54.417  1.00  0.00     0.001 A 
HETATM   35  C   UNL     1      30.552  43.379  55.239  1.00  0.00     0.000 A 
HETATM   36  C   UNL     1      30.133  44.635  55.673  1.00  0.00     0.001 A 
HETATM   37  C   UNL     1      28.883  45.126  55.294  1.00  0.00     0.009 A 
ENDBRANCH  31  32
ENDBRANCH  27  31
ENDBRANCH   3  24
BRANCH   5  38
HETATM   38  N   UNL     1      25.479  49.231  49.406  1.00  0.00    -0.284 NA
HETATM   39  H   UNL     1      24.896  50.060  49.488  1.00  0.00     0.125 HD
HETATM   40  H   UNL     1      26.212  49.372  48.715  1.00  0.00     0.125 HD
ENDBRANCH   5  38
TORSDOF 8
ENDMDL
MODEL 4
REMARK VINA RESULT:      -9.1      1.393      2.007
REMARK  8 active torsions:
REMARK  status: ('A' for Active; 'I' for Inactive)
REMARK    1  A    between atoms: C_4  and  C_5 
REMARK    2  A    between atoms: C_5  and  N_6 
REMARK    3  A    between atoms: N_10  and  C_11 
REMARK    4  A    between atoms: C_13  and  N_14 
REMARK    5  A    between atoms: N_17  and  C_19 
REMARK    6  A    between atoms: C_19  and  C_20 
REMARK    7  A    between atoms: C_29  and  N_30 
REMARK    8  A    between atoms: C_31  and  N_32 
ROOT
HETATM    1  C   UNL     1      24.348  46.839  49.613  1.00  0.00     0.181 A 
HETATM    2  N   UNL     1      24.066  48.130  49.311  1.00  0.00    -0.042 NA
HETATM    3  C   UNL     1      22.928  48.469  48.685  1.00  0.00     0.728 A 
HETATM    4  N   UNL     1      22.032  47.572  48.275  1.00  0.00    -0.048 NA
HETATM    5  C   UNL     1      22.278  46.280  48.541  1.00  0.00     0.157 A 
HETATM    6  C   UNL     1      23.436  45.886  49.192  1.00  0.00     0.189 A 
ENDROOT
BRANCH   1   7
HETATM    7  N   UNL     1      25.527  46.657  50.317  1.00  0.00    -0.360 N 
HETATM    8  C   UNL     1      26.750  45.946  49.892  1.00  0.00     0.152 C 
HETATM    9  C   UNL     1      26.960  44.657  50.728  1.00  0.00     0.255 C 
HETATM   10  N   UNL     1      26.956  44.999  52.222  1.00  0.00    -0.064 N 
HETATM   11  H   UNL     1      27.740  45.649  52.359  1.00  0.00     0.280 HD
HETATM   12  C   UNL     1      25.711  45.781  52.629  1.00  0.00     0.255 C 
HETATM   13  C   UNL     1      25.549  47.042  51.748  1.00  0.00     0.152 C 
BRANCH  10  14
HETATM   14  C   UNL     1      27.276  43.830  53.137  1.00  0.00     0.273 C 
BRANCH  14  15
HETATM   15  C   UNL     1      28.425  43.971  54.102  1.00  0.00    -0.033 A 
HETATM   16  C   UNL     1      29.466  43.027  54.068  1.00  0.00     0.009 A 
HETATM   17  C   UNL     1      30.570  43.144  54.916  1.00  0.00     0.001 A 
HETATM   18  C   UNL     1      30.648  44.202  55.815  1.00  0.00     0.000 A 
HETATM   19  C   UNL     1      29.633  45.153  55.854  1.00  0.00     0.001 A 
HETATM   20  C   UNL     1      28.536  45.047  54.995  1.00  0.00     0.009 A 
ENDBRANCH  14  15
ENDBRANCH  10  14
ENDBRANCH   1   7
BRANCH   6  21
HETATM   21  N   UNL     1      23.573  44.510  49.519  1.00  0.00    -0.108 N 
HETATM   22  O   UNL     1      24.069  43.781  48.651  1.00  0.00    -0.532 OA
HETATM   23  O   UNL     1      23.131  44.134  50.611  1.00  0.00    -0.532 OA
ENDBRANCH   6  21
BRANCH   3  24
HETATM   24  N   UNL     1      22.667  49.823  48.503  1.00  0.00    -0.211 N 
HETATM   25  C   UNL     1      22.533  50.630  49.726  1.00  0.00     0.169 C 
HETATM   26  C   UNL     1      21.097  50.605  50.288  1.00  0.00     0.255 C 
HETATM   27  N   UNL     1      20.108  51.007  49.189  1.00  0.00    -0.064 N 
HETATM   28  H   UNL     1      20.375  51.952  48.886  1.00  0.00     0.280 HD
HETATM   29  C   UNL     1      20.240  50.081  47.982  1.00  0.00     0.255 C 
HETATM   30  C   UNL     1      21.691  50.110  47.442  1.00  0.00     0.169 C 
BRANCH  27  31
HETATM   31  C   UNL     1      18.686  51.114  49.687  1.00  0.00     0.273 C 
BRANCH  31  32
HETATM   32  C   UNL     1      17.819  49.988  49.192  1.00  0.00    -0.033 A 
HETATM   33  C   UNL     1      16.738  50.243  48.332  1.00  0.00     0.009 A 
HETATM   34  C   UNL     1      15.907  49.204  47.911  1.00  0.00     0.001 A 
HETATM   35  C   UNL     1      16.148  47.901  48.339  1.00  0.00     0.000 A 
HETATM   36  C   UNL     1      17.225  47.632  49.182  1.00  0.00     0.001 A 
HETATM   37  C   UNL     1      18.057  48.668  49.608  1.00  0.00     0.009 A 
ENDBRANCH  31  32
ENDBRANCH  27  31
ENDBRANCH   3  24
BRANCH   5  38
HETATM   38  N   UNL     1      21.309  45.406  48.063  1.00  0.00    -0.284 NA
HETATM   39  H   UNL     1      21.495  45.149  47.097  1.00  0.00     0.125 HD
HETATM   40  H   UNL     1      20.342  45.699  48.179  1.00  0.00     0.125 HD
ENDBRANCH   5  38
TORSDOF 8
ENDMDL
MODEL 5
REMARK VINA RESULT:      -9.1      1.378     10.455
REMARK  8 active torsions:
REMARK  status: ('A' for Active; 'I' for Inactive)
REMARK    1  A    between atoms: C_4  and  C_5 
REMARK    2  A    between atoms: C_5  and  N_6 
REMARK    3  A    between atoms: N_10  and  C_11 
REMARK    4  A    between atoms: C_13  and  N_14 
REMARK    5  A    between atoms: N_17  and  C_19 
REMARK    6  A    between atoms: C_19  and  C_20 
REMARK    7  A    between atoms: C_29  and  N_30 
REMARK    8  A    between atoms: C_31  and  N_32 
ROOT
HETATM    1  C   UNL     1      22.566  46.277  48.347  1.00  0.00     0.181 A 
HETATM    2  N   UNL     1      23.578  46.673  49.158  1.00  0.00    -0.042 NA
HETATM    3  C   UNL     1      24.571  45.836  49.498  1.00  0.00     0.728 A 
HETATM    4  N   UNL     1      24.607  44.561  49.112  1.00  0.00    -0.048 NA
HETATM    5  C   UNL     1      23.618  44.122  48.318  1.00  0.00     0.157 A 
HETATM    6  C   UNL     1      22.578  44.954  47.937  1.00  0.00     0.189 A 
ENDROOT
BRANCH   1   7
HETATM    7  N   UNL     1      21.655  47.272  48.036  1.00  0.00    -0.360 N 
HETATM    8  C   UNL     1      21.918  48.687  47.701  1.00  0.00     0.152 C 
HETATM    9  C   UNL     1      21.391  49.627  48.815  1.00  0.00     0.255 C 
HETATM   10  N   UNL     1      19.908  49.341  49.078  1.00  0.00    -0.064 N 
HETATM   11  H   UNL     1      19.428  49.531  48.189  1.00  0.00     0.280 HD
HETATM   12  C   UNL     1      19.650  47.866  49.367  1.00  0.00     0.255 C 
HETATM   13  C   UNL     1      20.215  46.982  48.230  1.00  0.00     0.152 C 
BRANCH  10  14
HETATM   14  C   UNL     1      19.249  50.287  50.066  1.00  0.00     0.273 C 
BRANCH  14  15
HETATM   15  C   UNL     1      17.956  50.950  49.669  1.00  0.00    -0.033 A 
HETATM   16  C   UNL     1      17.738  52.293  50.023  1.00  0.00     0.009 A 
HETATM   17  C   UNL     1      16.570  52.957  49.639  1.00  0.00     0.001 A 
HETATM   18  C   UNL     1      15.601  52.289  48.899  1.00  0.00     0.000 A 
HETATM   19  C   UNL     1      15.805  50.963  48.529  1.00  0.00     0.001 A 
HETATM   20  C   UNL     1      16.979  50.302  48.898  1.00  0.00     0.009 A 
ENDBRANCH  14  15
ENDBRANCH  10  14
ENDBRANCH   1   7
BRANCH   6  21
HETATM   21  N   UNL     1      21.623  44.438  47.020  1.00  0.00    -0.108 N 
HETATM   22  O   UNL     1      20.709  43.754  47.497  1.00  0.00    -0.532 OA
HETATM   23  O   UNL     1      21.810  44.653  45.816  1.00  0.00    -0.532 OA
ENDBRANCH   6  21
BRANCH   3  24
HETATM   24  N   UNL     1      25.622  46.349  50.250  1.00  0.00    -0.211 N 
HETATM   25  C   UNL     1      26.940  45.729  50.034  1.00  0.00     0.169 C 
HETATM   26  C   UNL     1      27.148  44.478  50.912  1.00  0.00     0.255 C 
HETATM   27  N   UNL     1      26.880  44.830  52.379  1.00  0.00    -0.064 N 
HETATM   28  H   UNL     1      27.542  45.575  52.627  1.00  0.00     0.280 HD
HETATM   29  C   UNL     1      25.470  45.389  52.549  1.00  0.00     0.255 C 
HETATM   30  C   UNL     1      25.277  46.635  51.650  1.00  0.00     0.169 C 
BRANCH  27  31
HETATM   31  C   UNL     1      27.169  43.685  53.321  1.00  0.00     0.273 C 
BRANCH  31  32
HETATM   32  C   UNL     1      28.365  43.950  54.196  1.00  0.00    -0.033 A 
HETATM   33  C   UNL     1      29.400  43.006  54.295  1.00  0.00     0.009 A 
HETATM   34  C   UNL     1      30.486  43.232  55.142  1.00  0.00     0.001 A 
HETATM   35  C   UNL     1      30.552  44.403  55.893  1.00  0.00     0.000 A 
HETATM   36  C   UNL     1      29.538  45.353  55.794  1.00  0.00     0.001 A 
HETATM   37  C   UNL     1      28.449  45.130  54.951  1.00  0.00     0.009 A 
ENDBRANCH  31  32
ENDBRANCH  27  31
ENDBRANCH   3  24
BRANCH   5  38
HETATM   38  N   UNL     1      23.715  42.778  47.978  1.00  0.00    -0.284 NA
HETATM   39  H   UNL     1      23.525  42.185  48.781  1.00  0.00     0.125 HD
HETATM   40  H   UNL     1      24.574  42.493  47.513  1.00  0.00     0.125 HD
ENDBRANCH   5  38
TORSDOF 8
ENDMDL
MODEL 6
REMARK VINA RESULT:      -8.8      2.122      9.474
REMARK  8 active torsions:
REMARK  status: ('A' for Active; 'I' for Inactive)
REMARK    1  A    between atoms: C_4  and  C_5 
REMARK    2  A    between atoms: C_5  and  N_6 
REMARK    3  A    between atoms: N_10  and  C_11 
REMARK    4  A    between atoms: C_13  and  N_14 
REMARK    5  A    between atoms: N_17  and  C_19 
REMARK    6  A    between atoms: C_19  and  C_20 
REMARK    7  A    between atoms: C_29  and  N_30 
REMARK    8  A    between atoms: C_31  and  N_32 
ROOT
HETATM    1  C   UNL     1      22.687  43.736  48.296  1.00  0.00     0.181 A 
HETATM    2  N   UNL     1      23.487  44.493  49.085  1.00  0.00    -0.042 NA
HETATM    3  C   UNL     1      24.631  44.008  49.594  1.00  0.00     0.728 A 
HETATM    4  N   UNL     1      25.030  42.750  49.405  1.00  0.00    -0.048 NA
HETATM    5  C   UNL     1      24.261  41.960  48.640  1.00  0.00     0.157 A 
HETATM    6  C   UNL     1      23.077  42.423  48.089  1.00  0.00     0.189 A 
ENDROOT
BRANCH   1   7
HETATM    7  N   UNL     1      21.579  44.398  47.796  1.00  0.00    -0.360 N 
HETATM    8  C   UNL     1      21.312  44.824  46.406  1.00  0.00     0.152 C 
HETATM    9  C   UNL     1      21.324  46.371  46.289  1.00  0.00     0.255 C 
HETATM   10  N   UNL     1      20.341  46.976  47.299  1.00  0.00    -0.064 N 
HETATM   11  H   UNL     1      19.419  46.602  47.044  1.00  0.00     0.280 HD
HETATM   12  C   UNL     1      20.598  46.480  48.718  1.00  0.00     0.255 C 
HETATM   13  C   UNL     1      20.592  44.934  48.764  1.00  0.00     0.152 C 
BRANCH  10  14
HETATM   14  C   UNL     1      20.176  48.481  47.192  1.00  0.00     0.273 C 
BRANCH  14  15
HETATM   15  C   UNL     1      21.068  49.360  48.029  1.00  0.00    -0.033 A 
HETATM   16  C   UNL     1      22.401  49.561  47.628  1.00  0.00     0.009 A 
HETATM   17  C   UNL     1      23.250  50.401  48.352  1.00  0.00     0.001 A 
HETATM   18  C   UNL     1      22.782  51.050  49.490  1.00  0.00     0.000 A 
HETATM   19  C   UNL     1      21.463  50.874  49.894  1.00  0.00     0.001 A 
HETATM   20  C   UNL     1      20.607  50.047  49.162  1.00  0.00     0.009 A 
ENDBRANCH  14  15
ENDBRANCH  10  14
ENDBRANCH   1   7
BRANCH   6  21
HETATM   21  N   UNL     1      22.371  41.552  47.215  1.00  0.00    -0.108 N 
HETATM   22  O   UNL     1      21.578  40.761  47.742  1.00  0.00    -0.532 OA
HETATM   23  O   UNL     1      22.647  41.603  46.011  1.00  0.00    -0.532 OA
ENDBRANCH   6  21
BRANCH   3  24
HETATM   24  N   UNL     1      25.443  44.879  50.309  1.00  0.00    -0.211 N 
HETATM   25  C   UNL     1      26.895  44.687  50.158  1.00  0.00     0.169 C 
HETATM   26  C   UNL     1      27.452  43.636  51.139  1.00  0.00     0.255 C 
HETATM   27  N   UNL     1      27.037  43.998  52.569  1.00  0.00    -0.064 N 
HETATM   28  H   UNL     1      27.425  44.929  52.760  1.00  0.00     0.280 HD
HETATM   29  C   UNL     1      25.518  44.100  52.679  1.00  0.00     0.255 C 
HETATM   30  C   UNL     1      24.978  45.150  51.678  1.00  0.00     0.169 C 
BRANCH  27  31
HETATM   31  C   UNL     1      27.634  43.076  53.606  1.00  0.00     0.273 C 
BRANCH  31  32
HETATM   32  C   UNL     1      28.632  43.776  54.489  1.00  0.00    -0.033 A 
HETATM   33  C   UNL     1      28.378  45.072  54.966  1.00  0.00     0.009 A 
HETATM   34  C   UNL     1      29.324  45.739  55.745  1.00  0.00     0.001 A 
HETATM   35  C   UNL     1      30.530  45.117  56.061  1.00  0.00     0.000 A 
HETATM   36  C   UNL     1      30.790  43.827  55.605  1.00  0.00     0.001 A 
HETATM   37  C   UNL     1      29.847  43.158  54.822  1.00  0.00     0.009 A 
ENDBRANCH  31  32
ENDBRANCH  27  31
ENDBRANCH   3  24
BRANCH   5  38
HETATM   38  N   UNL     1      24.733  40.660  48.510  1.00  0.00    -0.284 NA
HETATM   39  H   UNL     1      25.084  40.309  49.397  1.00  0.00     0.125 HD
HETATM   40  H   UNL     1      25.407  40.498  47.765  1.00  0.00     0.125 HD
ENDBRANCH   5  38
TORSDOF 8
ENDMDL
MODEL 7
REMARK VINA RESULT:      -8.8      2.033      2.965
REMARK  8 active torsions:
REMARK  status: ('A' for Active; 'I' for Inactive)
REMARK    1  A    between atoms: C_4  and  C_5 
REMARK    2  A    between atoms: C_5  and  N_6 
REMARK    3  A    between atoms: N_10  and  C_11 
REMARK    4  A    between atoms: C_13  and  N_14 
REMARK    5  A    between atoms: N_17  and  C_19 
REMARK    6  A    between atoms: C_19  and  C_20 
REMARK    7  A    between atoms: C_29  and  N_30 
REMARK    8  A    between atoms: C_31  and  N_32 
ROOT
HETATM    1  C   UNL     1      24.159  45.691  49.837  1.00  0.00     0.181 A 
HETATM    2  N   UNL     1      23.079  45.414  49.068  1.00  0.00    -0.042 NA
HETATM    3  C   UNL     1      22.336  46.393  48.526  1.00  0.00     0.728 A 
HETATM    4  N   UNL     1      22.572  47.686  48.745  1.00  0.00    -0.048 NA
HETATM    5  C   UNL     1      23.626  48.005  49.512  1.00  0.00     0.157 A 
HETATM    6  C   UNL     1      24.423  47.027  50.085  1.00  0.00     0.189 A 
ENDROOT
BRANCH   1   7
HETATM    7  N   UNL     1      24.860  44.577  50.267  1.00  0.00    -0.360 N 
HETATM    8  C   UNL     1      24.663  43.787  51.501  1.00  0.00     0.152 C 
HETATM    9  C   UNL     1      25.866  43.956  52.464  1.00  0.00     0.255 C 
HETATM   10  N   UNL     1      27.169  43.609  51.735  1.00  0.00    -0.064 N 
HETATM   11  H   UNL     1      27.072  42.627  51.448  1.00  0.00     0.280 HD
HETATM   12  C   UNL     1      27.326  44.394  50.436  1.00  0.00     0.255 C 
HETATM   13  C   UNL     1      26.089  44.199  49.529  1.00  0.00     0.152 C 
BRANCH  10  14
HETATM   14  C   UNL     1      28.407  43.619  52.615  1.00  0.00     0.273 C 
BRANCH  14  15
HETATM   15  C   UNL     1      28.426  44.534  53.812  1.00  0.00    -0.033 A 
HETATM   16  C   UNL     1      29.367  44.307  54.831  1.00  0.00     0.009 A 
HETATM   17  C   UNL     1      29.446  45.157  55.938  1.00  0.00     0.001 A 
HETATM   18  C   UNL     1      28.584  46.243  56.045  1.00  0.00     0.000 A 
HETATM   19  C   UNL     1      27.655  46.490  55.039  1.00  0.00     0.001 A 
HETATM   20  C   UNL     1      27.585  45.652  53.924  1.00  0.00     0.009 A 
ENDBRANCH  14  15
ENDBRANCH  10  14
ENDBRANCH   1   7
BRANCH   6  21
HETATM   21  N   UNL     1      25.573  47.452  50.805  1.00  0.00    -0.108 N 
HETATM   22  O   UNL     1      25.456  47.538  52.034  1.00  0.00    -0.532 OA
HETATM   23  O   UNL     1      26.575  47.763  50.152  1.00  0.00    -0.532 OA
ENDBRANCH   6  21
BRANCH   3  24
HETATM   24  N   UNL     1      21.306  46.025  47.668  1.00  0.00    -0.211 N 
HETATM   25  C   UNL     1      20.981  46.980  46.595  1.00  0.00     0.169 C 
HETATM   26  C   UNL     1      19.981  48.059  47.057  1.00  0.00     0.255 C 
HETATM   27  N   UNL     1      18.744  47.388  47.662  1.00  0.00    -0.064 N 
HETATM   28  H   UNL     1      18.341  46.796  46.925  1.00  0.00     0.280 HD
HETATM   29  C   UNL     1      19.139  46.476  48.820  1.00  0.00     0.255 C 
HETATM   30  C   UNL     1      20.153  45.409  48.340  1.00  0.00     0.169 C 
BRANCH  27  31
HETATM   31  C   UNL     1      17.664  48.375  48.040  1.00  0.00     0.273 C 
BRANCH  31  32
HETATM   32  C   UNL     1      18.200  49.769  48.222  1.00  0.00    -0.033 A 
HETATM   33  C   UNL     1      18.856  50.132  49.409  1.00  0.00     0.009 A 
HETATM   34  C   UNL     1      19.312  51.438  49.596  1.00  0.00     0.001 A 
HETATM   35  C   UNL     1      19.122  52.392  48.599  1.00  0.00     0.000 A 
HETATM   36  C   UNL     1      18.484  52.042  47.411  1.00  0.00     0.001 A 
HETATM   37  C   UNL     1      18.024  50.737  47.222  1.00  0.00     0.009 A 
ENDBRANCH  31  32
ENDBRANCH  27  31
ENDBRANCH   3  24
BRANCH   5  38
HETATM   38  N   UNL     1      23.792  49.371  49.711  1.00  0.00    -0.284 NA
HETATM   39  H   UNL     1      23.774  49.872  48.827  1.00  0.00     0.125 HD
HETATM   40  H   UNL     1      24.596  49.650  50.269  1.00  0.00     0.125 HD
ENDBRANCH   5  38
TORSDOF 8
ENDMDL
MODEL 8
REMARK VINA RESULT:      -8.8      2.170      3.232
REMARK  8 active torsions:
REMARK  status: ('A' for Active; 'I' for Inactive)
REMARK    1  A    between atoms: C_4  and  C_5 
REMARK    2  A    between atoms: C_5  and  N_6 
REMARK    3  A    between atoms: N_10  and  C_11 
REMARK    4  A    between atoms: C_13  and  N_14 
REMARK    5  A    between atoms: N_17  and  C_19 
REMARK    6  A    between atoms: C_19  and  C_20 
REMARK    7  A    between atoms: C_29  and  N_30 
REMARK    8  A    between atoms: C_31  and  N_32 
ROOT
HETATM    1  C   UNL     1      24.331  47.079  49.590  1.00  0.00     0.181 A 
HETATM    2  N   UNL     1      23.081  47.299  49.114  1.00  0.00    -0.042 NA
HETATM    3  C   UNL     1      22.795  48.382  48.374  1.00  0.00     0.728 A 
HETATM    4  N   UNL     1      23.692  49.330  48.101  1.00  0.00    -0.048 NA
HETATM    5  C   UNL     1      24.940  49.158  48.565  1.00  0.00     0.157 A 
HETATM    6  C   UNL     1      25.280  48.052  49.326  1.00  0.00     0.189 A 
ENDROOT
BRANCH   1   7
HETATM    7  N   UNL     1      24.482  45.887  50.279  1.00  0.00    -0.360 N 
HETATM    8  C   UNL     1      24.773  45.686  51.714  1.00  0.00     0.152 C 
HETATM    9  C   UNL     1      26.188  45.082  51.912  1.00  0.00     0.255 C 
HETATM   10  N   UNL     1      26.324  43.796  51.088  1.00  0.00    -0.064 N 
HETATM   11  H   UNL     1      25.606  43.158  51.452  1.00  0.00     0.280 HD
HETATM   12  C   UNL     1      25.965  44.013  49.622  1.00  0.00     0.255 C 
HETATM   13  C   UNL     1      24.554  44.633  49.493  1.00  0.00     0.152 C 
BRANCH  10  14
HETATM   14  C   UNL     1      27.629  43.048  51.300  1.00  0.00     0.273 C 
BRANCH  14  15
HETATM   15  C   UNL     1      28.366  43.248  52.598  1.00  0.00    -0.033 A 
HETATM   16  C   UNL     1      29.710  42.846  52.690  1.00  0.00     0.009 A 
HETATM   17  C   UNL     1      30.443  43.052  53.862  1.00  0.00     0.001 A 
HETATM   18  C   UNL     1      29.842  43.657  54.961  1.00  0.00     0.000 A 
HETATM   19  C   UNL     1      28.517  44.073  54.883  1.00  0.00     0.001 A 
HETATM   20  C   UNL     1      27.788  43.884  53.707  1.00  0.00     0.009 A 
ENDBRANCH  14  15
ENDBRANCH  10  14
ENDBRANCH   1   7
BRANCH   6  21
HETATM   21  N   UNL     1      26.643  47.900  49.696  1.00  0.00    -0.108 N 
HETATM   22  O   UNL     1      26.960  48.303  50.822  1.00  0.00    -0.532 OA
HETATM   23  O   UNL     1      27.419  47.440  48.850  1.00  0.00    -0.532 OA
ENDBRANCH   6  21
BRANCH   3  24
HETATM   24  N   UNL     1      21.516  48.483  47.840  1.00  0.00    -0.211 N 
HETATM   25  C   UNL     1      21.169  49.773  47.221  1.00  0.00     0.169 C 
HETATM   26  C   UNL     1      20.634  50.791  48.249  1.00  0.00     0.255 C 
HETATM   27  N   UNL     1      19.475  50.167  49.033  1.00  0.00    -0.064 N 
HETATM   28  H   UNL     1      18.755  49.919  48.344  1.00  0.00     0.280 HD
HETATM   29  C   UNL     1      19.921  48.878  49.718  1.00  0.00     0.255 C 
HETATM   30  C   UNL     1      20.467  47.876  48.672  1.00  0.00     0.169 C 
BRANCH  27  31
HETATM   31  C   UNL     1      18.821  51.138  49.988  1.00  0.00     0.273 C 
BRANCH  31  32
HETATM   32  C   UNL     1      17.520  51.675  49.457  1.00  0.00    -0.033 A 
HETATM   33  C   UNL     1      16.931  51.117  48.311  1.00  0.00     0.009 A 
HETATM   34  C   UNL     1      15.748  51.646  47.793  1.00  0.00     0.001 A 
HETATM   35  C   UNL     1      15.138  52.732  48.416  1.00  0.00     0.000 A 
HETATM   36  C   UNL     1      15.704  53.287  49.562  1.00  0.00     0.001 A 
HETATM   37  C   UNL     1      16.889  52.763  50.082  1.00  0.00     0.009 A 
ENDBRANCH  31  32
ENDBRANCH  27  31
ENDBRANCH   3  24
BRANCH   5  38
HETATM   38  N   UNL     1      25.809  50.199  48.258  1.00  0.00    -0.284 NA
HETATM   39  H   UNL     1      26.266  50.550  49.095  1.00  0.00     0.125 HD
HETATM   40  H   UNL     1      25.420  50.963  47.711  1.00  0.00     0.125 HD
ENDBRANCH   5  38
TORSDOF 8
ENDMDL
MODEL 9
REMARK VINA RESULT:      -8.8      2.839     11.000
REMARK  8 active torsions:
REMARK  status: ('A' for Active; 'I' for Inactive)
REMARK    1  A    between atoms: C_4  and  C_5 
REMARK    2  A    between atoms: C_5  and  N_6 
REMARK    3  A    between atoms: N_10  and  C_11 
REMARK    4  A    between atoms: C_13  and  N_14 
REMARK    5  A    between atoms: N_17  and  C_19 
REMARK    6  A    between atoms: C_19  and  C_20 
REMARK    7  A    between atoms: C_29  and  N_30 
REMARK    8  A    between atoms: C_31  and  N_32 
ROOT
HETATM    1  C   UNL     1      21.478  48.188  48.645  1.00  0.00     0.181 A 
HETATM    2  N   UNL     1      22.578  47.397  48.681  1.00  0.00    -0.042 NA
HETATM    3  C   UNL     1      23.752  47.851  49.150  1.00  0.00     0.728 A 
HETATM    4  N   UNL     1      23.930  49.106  49.560  1.00  0.00    -0.048 NA
HETATM    5  C   UNL     1      22.870  49.928  49.530  1.00  0.00     0.157 A 
HETATM    6  C   UNL     1      21.639  49.499  49.060  1.00  0.00     0.189 A 
ENDROOT
BRANCH   1   7
HETATM    7  N   UNL     1      20.330  47.557  48.197  1.00  0.00    -0.360 N 
HETATM    8  C   UNL     1      19.720  47.607  46.852  1.00  0.00     0.152 C 
HETATM    9  C   UNL     1      18.362  48.356  46.888  1.00  0.00     0.255 C 
HETATM   10  N   UNL     1      17.444  47.720  47.938  1.00  0.00    -0.064 N 
HETATM   11  H   UNL     1      17.311  46.747  47.635  1.00  0.00     0.280 HD
HETATM   12  C   UNL     1      18.114  47.627  49.305  1.00  0.00     0.255 C 
HETATM   13  C   UNL     1      19.468  46.887  49.199  1.00  0.00     0.152 C 
BRANCH  10  14
HETATM   14  C   UNL     1      16.038  48.293  47.977  1.00  0.00     0.273 C 
BRANCH  14  15
HETATM   15  C   UNL     1      15.850  49.749  47.639  1.00  0.00    -0.033 A 
HETATM   16  C   UNL     1      15.337  50.097  46.377  1.00  0.00     0.009 A 
HETATM   17  C   UNL     1      15.108  51.433  46.038  1.00  0.00     0.001 A 
HETATM   18  C   UNL     1      15.392  52.442  46.952  1.00  0.00     0.000 A 
HETATM   19  C   UNL     1      15.889  52.115  48.210  1.00  0.00     0.001 A 
HETATM   20  C   UNL     1      16.103  50.779  48.557  1.00  0.00     0.009 A 
ENDBRANCH  14  15
ENDBRANCH  10  14
ENDBRANCH   1   7
BRANCH   6  21
HETATM   21  N   UNL     1      20.547  50.404  49.151  1.00  0.00    -0.108 N 
HETATM   22  O   UNL     1      20.325  51.107  48.157  1.00  0.00    -0.532 OA
HETATM   23  O   UNL     1      19.945  50.470  50.230  1.00  0.00    -0.532 OA
ENDBRANCH   6  21
BRANCH   3  24
HETATM   24  N   UNL     1      24.804  46.948  49.247  1.00  0.00    -0.211 N 
HETATM   25  C   UNL     1      24.435  45.543  49.486  1.00  0.00     0.169 C 
HETATM   26  C   UNL     1      24.257  45.232  50.986  1.00  0.00     0.255 C 
HETATM   27  N   UNL     1      25.511  45.666  51.753  1.00  0.00    -0.064 N 
HETATM   28  H   UNL     1      26.296  45.138  51.352  1.00  0.00     0.280 HD
HETATM   29  C   UNL     1      25.792  47.149  51.529  1.00  0.00     0.255 C 
HETATM   30  C   UNL     1      25.953  47.442  50.018  1.00  0.00     0.169 C 
BRANCH  27  31
HETATM   31  C   UNL     1      25.463  45.297  53.217  1.00  0.00     0.273 C 
BRANCH  31  32
HETATM   32  C   UNL     1      26.814  44.904  53.753  1.00  0.00    -0.033 A 
HETATM   33  C   UNL     1      27.359  43.644  53.460  1.00  0.00     0.009 A 
HETATM   34  C   UNL     1      28.590  43.263  53.996  1.00  0.00     0.001 A 
HETATM   35  C   UNL     1      29.291  44.137  54.824  1.00  0.00     0.000 A 
HETATM   36  C   UNL     1      28.767  45.395  55.112  1.00  0.00     0.001 A 
HETATM   37  C   UNL     1      27.535  45.779  54.580  1.00  0.00     0.009 A 
ENDBRANCH  31  32
ENDBRANCH  27  31
ENDBRANCH   3  24
BRANCH   5  38
HETATM   38  N   UNL     1      23.142  51.224  49.952  1.00  0.00    -0.284 NA
HETATM   39  H   UNL     1      23.240  51.266  50.963  1.00  0.00     0.125 HD
HETATM   40  H   UNL     1      22.509  51.948  49.620  1.00  0.00     0.125 HD
ENDBRANCH   5  38
TORSDOF 8
ENDMDL
MODEL 10
REMARK VINA RESULT:      -8.7      3.496      8.644
REMARK  8 active torsions:
REMARK  status: ('A' for Active; 'I' for Inactive)
REMARK    1  A    between atoms: C_4  and  C_5 
REMARK    2  A    between atoms: C_5  and  N_6 
REMARK    3  A    between atoms: N_10  and  C_11 
REMARK    4  A    between atoms: C_13  and  N_14 
REMARK    5  A    between atoms: N_17  and  C_19 
REMARK    6  A    between atoms: C_19  and  C_20 
REMARK    7  A    between atoms: C_29  and  N_30 
REMARK    8  A    between atoms: C_31  and  N_32 
ROOT
HETATM    1  C   UNL     1      23.219  44.539  48.517  1.00  0.00     0.181 A 
HETATM    2  N   UNL     1      24.477  44.840  48.923  1.00  0.00    -0.042 NA
HETATM    3  C   UNL     1      24.782  46.048  49.422  1.00  0.00     0.728 A 
HETATM    4  N   UNL     1      23.897  47.041  49.505  1.00  0.00    -0.048 NA
HETATM    5  C   UNL     1      22.641  46.792  49.102  1.00  0.00     0.157 A 
HETATM    6  C   UNL     1      22.282  45.556  48.588  1.00  0.00     0.189 A 
ENDROOT
BRANCH   1   7
HETATM    7  N   UNL     1      23.049  43.234  48.089  1.00  0.00    -0.360 N 
HETATM    8  C   UNL     1      23.073  41.993  48.891  1.00  0.00     0.152 C 
HETATM    9  C   UNL     1      24.311  41.128  48.538  1.00  0.00     0.255 C 
HETATM   10  N   UNL     1      24.347  40.865  47.028  1.00  0.00    -0.064 N 
HETATM   11  H   UNL     1      23.479  40.356  46.816  1.00  0.00     0.280 HD
HETATM   12  C   UNL     1      24.265  42.154  46.218  1.00  0.00     0.255 C 
HETATM   13  C   UNL     1      23.022  42.978  46.629  1.00  0.00     0.152 C 
BRANCH  10  14
HETATM   14  C   UNL     1      25.450  39.923  46.579  1.00  0.00     0.273 C 
BRANCH  14  15
HETATM   15  C   UNL     1      26.621  39.701  47.501  1.00  0.00    -0.033 A 
HETATM   16  C   UNL     1      26.689  38.511  48.246  1.00  0.00     0.009 A 
HETATM   17  C   UNL     1      27.777  38.247  49.081  1.00  0.00     0.001 A 
HETATM   18  C   UNL     1      28.812  39.170  49.188  1.00  0.00     0.000 A 
HETATM   19  C   UNL     1      28.768  40.347  48.449  1.00  0.00     0.001 A 
HETATM   20  C   UNL     1      27.688  40.606  47.600  1.00  0.00     0.009 A 
ENDBRANCH  14  15
ENDBRANCH  10  14
ENDBRANCH   1   7
BRANCH   6  21
HETATM   21  N   UNL     1      20.912  45.346  48.273  1.00  0.00    -0.108 N 
HETATM   22  O   UNL     1      20.540  45.705  47.148  1.00  0.00    -0.532 OA
HETATM   23  O   UNL     1      20.185  44.885  49.160  1.00  0.00    -0.532 OA
ENDBRANCH   6  21
BRANCH   3  24
HETATM   24  N   UNL     1      26.069  46.243  49.909  1.00  0.00    -0.211 N 
HETATM   25  C   UNL     1      26.934  45.052  49.955  1.00  0.00     0.169 C 
HETATM   26  C   UNL     1      26.749  44.245  51.256  1.00  0.00     0.255 C 
HETATM   27  N   UNL     1      26.930  45.169  52.464  1.00  0.00    -0.064 N 
HETATM   28  H   UNL     1      27.879  45.556  52.397  1.00  0.00     0.280 HD
HETATM   29  C   UNL     1      25.950  46.337  52.400  1.00  0.00     0.255 C 
HETATM   30  C   UNL     1      26.143  47.126  51.082  1.00  0.00     0.169 C 
BRANCH  27  31
HETATM   31  C   UNL     1      26.872  44.433  53.783  1.00  0.00     0.273 C 
BRANCH  31  32
HETATM   32  C   UNL     1      28.219  44.343  54.449  1.00  0.00    -0.033 A 
HETATM   33  C   UNL     1      29.039  43.221  54.252  1.00  0.00     0.009 A 
HETATM   34  C   UNL     1      30.267  43.117  54.907  1.00  0.00     0.001 A 
HETATM   35  C   UNL     1      30.691  44.135  55.758  1.00  0.00     0.000 A 
HETATM   36  C   UNL     1      29.893  45.260  55.952  1.00  0.00     0.001 A 
HETATM   37  C   UNL     1      28.662  45.366  55.301  1.00  0.00     0.009 A 
ENDBRANCH  31  32
ENDBRANCH  27  31
ENDBRANCH   3  24
BRANCH   5  38
HETATM   38  N   UNL     1      21.785  47.882  49.199  1.00  0.00    -0.284 NA
HETATM   39  H   UNL     1      21.450  48.164  48.282  1.00  0.00     0.125 HD
HETATM   40  H   UNL     1      22.135  48.684  49.719  1.00  0.00     0.125 HD
ENDBRANCH   5  38
TORSDOF 8
ENDMDL
