MODEL 1
REMARK VINA RESULT:      -8.5      0.000      0.000
REMARK  2 active torsions:
REMARK  status: ('A' for Active; 'I' for Inactive)
REMARK    1  A    between atoms: N_20  and  C_21 
REMARK    2  A    between atoms: C_24  and  O_25 
ROOT
HETATM    1  C   UNL     1      26.450  48.249  49.856  1.00  0.00     0.048 C 
HETATM    2  C   UNL     1      25.058  47.796  49.511  1.00  0.00    -0.061 A 
HETATM    3  C   UNL     1      24.764  46.430  49.359  1.00  0.00     0.019 A 
HETATM    4  C   UNL     1      23.453  46.055  49.100  1.00  0.00     0.016 A 
HETATM    5  C   UNL     1      22.465  47.038  48.974  1.00  0.00     0.044 A 
HETATM    6  N   UNL     1      21.240  46.463  48.677  1.00  0.00    -0.324 N 
HETATM    7  C   UNL     1      21.341  45.088  48.602  1.00  0.00     0.264 A 
HETATM    8  O   UNL     1      20.446  44.309  48.317  1.00  0.00    -0.270 OA
HETATM    9  C   UNL     1      22.843  44.699  48.868  1.00  0.00     0.250 A 
HETATM   10  N   UNL     1      23.472  43.977  47.690  1.00  0.00    -0.043 N 
HETATM   11  H   UNL     1      24.491  43.997  47.834  1.00  0.00     0.282 HD
HETATM   12  C   UNL     1      22.961  42.562  47.774  1.00  0.00     0.204 C 
HETATM   13  C   UNL     1      23.735  41.935  46.639  1.00  0.00     0.036 C 
HETATM   14  C   UNL     1      23.649  43.025  45.545  1.00  0.00     0.030 C 
HETATM   15  C   UNL     1      23.283  44.343  46.255  1.00  0.00     0.237 C 
HETATM   16  C   UNL     1      23.040  42.250  49.252  1.00  0.00     0.126 C 
HETATM   17  C   UNL     1      22.850  43.598  49.961  1.00  0.00     0.145 C 
HETATM   18  C   UNL     1      24.028  43.673  50.883  1.00  0.00     0.239 C 
HETATM   19  O   UNL     1      24.085  44.529  51.752  1.00  0.00    -0.272 OA
HETATM   20  N   UNL     1      24.938  42.688  50.558  1.00  0.00    -0.252 N 
HETATM   21  C   UNL     1      24.399  41.788  49.667  1.00  0.00     0.238 C 
HETATM   22  O   UNL     1      24.885  40.786  49.166  1.00  0.00    -0.272 OA
HETATM   23  C   UNL     1      22.718  48.383  49.114  1.00  0.00     0.031 A 
HETATM   24  C   UNL     1      24.033  48.759  49.392  1.00  0.00     0.009 A 
HETATM   25  H   UNL     1      20.373  46.971  48.542  1.00  0.00     0.169 HD
ENDROOT
BRANCH  20  26
HETATM   26  C   UNL     1      26.279  42.615  51.064  1.00  0.00     0.045 A 
HETATM   27  C   UNL     1      26.801  41.428  51.600  1.00  0.00     0.033 A 
HETATM   28  C   UNL     1      28.077  41.388  52.184  1.00  0.00     0.039 A 
HETATM   29  C   UNL     1      28.873  42.527  52.248  1.00  0.00     0.068 A 
HETATM   30  C   UNL     1      28.392  43.704  51.694  1.00  0.00     0.039 A 
HETATM   31  C   UNL     1      27.116  43.743  51.109  1.00  0.00     0.033 A 
BRANCH  29  32
HETATM   32  O   UNL     1      30.077  42.359  52.868  1.00  0.00    -0.356 OA
HETATM   33  C   UNL     1      30.268  43.040  54.104  1.00  0.00     0.210 C 
ENDBRANCH  29  32
ENDBRANCH  20  26
TORSDOF 2
ENDMDL
MODEL 2
REMARK VINA RESULT:      -8.2      4.405      6.852
REMARK  2 active torsions:
REMARK  status: ('A' for Active; 'I' for Inactive)
REMARK    1  A    between atoms: N_20  and  C_21 
REMARK    2  A    between atoms: C_24  and  O_25 
ROOT
HETATM    1  C   UNL     1      21.589  51.556  48.449  1.00  0.00     0.048 C 
HETATM    2  C   UNL     1      20.106  51.325  48.372  1.00  0.00    -0.061 A 
HETATM    3  C   UNL     1      19.593  50.058  48.044  1.00  0.00     0.019 A 
HETATM    4  C   UNL     1      18.217  49.875  48.044  1.00  0.00     0.016 A 
HETATM    5  C   UNL     1      17.376  50.952  48.344  1.00  0.00     0.044 A 
HETATM    6  N   UNL     1      16.047  50.575  48.250  1.00  0.00    -0.324 N 
HETATM    7  C   UNL     1      15.931  49.245  47.898  1.00  0.00     0.264 A 
HETATM    8  O   UNL     1      14.893  48.635  47.698  1.00  0.00    -0.270 OA
HETATM    9  C   UNL     1      17.383  48.665  47.718  1.00  0.00     0.250 A 
HETATM   10  N   UNL     1      17.632  48.155  46.310  1.00  0.00    -0.043 N 
HETATM   11  H   UNL     1      18.651  48.045  46.206  1.00  0.00     0.282 HD
HETATM   12  C   UNL     1      16.954  46.810  46.250  1.00  0.00     0.204 C 
HETATM   13  C   UNL     1      17.366  46.369  44.866  1.00  0.00     0.036 C 
HETATM   14  C   UNL     1      17.203  47.671  44.047  1.00  0.00     0.030 C 
HETATM   15  C   UNL     1      17.192  48.836  45.056  1.00  0.00     0.237 C 
HETATM   16  C   UNL     1      17.305  46.184  47.581  1.00  0.00     0.126 C 
HETATM   17  C   UNL     1      17.468  47.360  48.553  1.00  0.00     0.145 C 
HETATM   18  C   UNL     1      18.816  47.122  49.162  1.00  0.00     0.239 C 
HETATM   19  O   UNL     1      19.182  47.763  50.134  1.00  0.00    -0.272 OA
HETATM   20  N   UNL     1      19.483  46.147  48.449  1.00  0.00    -0.252 N 
HETATM   21  C   UNL     1      18.641  45.515  47.563  1.00  0.00     0.238 C 
HETATM   22  O   UNL     1      18.858  44.601  46.783  1.00  0.00    -0.272 OA
HETATM   23  C   UNL     1      17.845  52.206  48.667  1.00  0.00     0.031 A 
HETATM   24  C   UNL     1      19.228  52.385  48.685  1.00  0.00     0.009 A 
HETATM   25  H   UNL     1      15.254  51.181  48.425  1.00  0.00     0.169 HD
ENDROOT
BRANCH  20  26
HETATM   26  C   UNL     1      20.878  45.838  48.595  1.00  0.00     0.045 A 
HETATM   27  C   UNL     1      21.314  44.556  48.960  1.00  0.00     0.033 A 
HETATM   28  C   UNL     1      22.671  44.285  49.198  1.00  0.00     0.039 A 
HETATM   29  C   UNL     1      23.634  45.282  49.075  1.00  0.00     0.068 A 
HETATM   30  C   UNL     1      23.230  46.549  48.682  1.00  0.00     0.039 A 
HETATM   31  C   UNL     1      21.873  46.819  48.443  1.00  0.00     0.033 A 
BRANCH  29  32
HETATM   32  O   UNL     1      24.910  44.894  49.364  1.00  0.00    -0.356 OA
HETATM   33  C   UNL     1      25.811  45.908  49.795  1.00  0.00     0.210 C 
ENDBRANCH  29  32
ENDBRANCH  20  26
TORSDOF 2
ENDMDL
MODEL 3
REMARK VINA RESULT:      -8.2      6.531     11.121
REMARK  2 active torsions:
REMARK  status: ('A' for Active; 'I' for Inactive)
REMARK    1  A    between atoms: N_20  and  C_21 
REMARK    2  A    between atoms: C_24  and  O_25 
ROOT
HETATM    1  C   UNL     1      15.919  48.369  43.153  1.00  0.00     0.048 C 
HETATM    2  C   UNL     1      16.491  47.319  44.064  1.00  0.00    -0.061 A 
HETATM    3  C   UNL     1      17.030  47.669  45.314  1.00  0.00     0.019 A 
HETATM    4  C   UNL     1      17.491  46.660  46.148  1.00  0.00     0.016 A 
HETATM    5  C   UNL     1      17.433  45.328  45.719  1.00  0.00     0.044 A 
HETATM    6  N   UNL     1      17.977  44.485  46.674  1.00  0.00    -0.324 N 
HETATM    7  C   UNL     1      18.411  45.194  47.776  1.00  0.00     0.264 A 
HETATM    8  O   UNL     1      18.971  44.737  48.759  1.00  0.00    -0.270 OA
HETATM    9  C   UNL     1      18.132  46.720  47.509  1.00  0.00     0.250 A 
HETATM   10  N   UNL     1      19.402  47.551  47.512  1.00  0.00    -0.043 N 
HETATM   11  H   UNL     1      19.170  48.456  47.079  1.00  0.00     0.282 HD
HETATM   12  C   UNL     1      19.746  47.741  48.967  1.00  0.00     0.204 C 
HETATM   13  C   UNL     1      20.937  48.661  48.836  1.00  0.00     0.036 C 
HETATM   14  C   UNL     1      21.701  48.038  47.644  1.00  0.00     0.030 C 
HETATM   15  C   UNL     1      20.696  47.149  46.886  1.00  0.00     0.237 C 
HETATM   16  C   UNL     1      18.406  48.023  49.608  1.00  0.00     0.126 C 
HETATM   17  C   UNL     1      17.378  47.277  48.745  1.00  0.00     0.145 C 
HETATM   18  C   UNL     1      16.373  48.336  48.412  1.00  0.00     0.239 C 
HETATM   19  O   UNL     1      15.304  48.040  47.900  1.00  0.00    -0.272 OA
HETATM   20  N   UNL     1      16.872  49.576  48.750  1.00  0.00    -0.252 N 
HETATM   21  C   UNL     1      18.015  49.462  49.508  1.00  0.00     0.238 C 
HETATM   22  O   UNL     1      18.724  50.325  50.003  1.00  0.00    -0.272 OA
HETATM   23  C   UNL     1      16.914  44.951  44.502  1.00  0.00     0.031 A 
HETATM   24  C   UNL     1      16.433  45.964  43.671  1.00  0.00     0.009 A 
HETATM   25  H   UNL     1      18.044  43.477  46.592  1.00  0.00     0.169 HD
ENDROOT
BRANCH  20  26
HETATM   26  C   UNL     1      16.291  50.828  48.353  1.00  0.00     0.045 A 
HETATM   27  C   UNL     1      15.716  51.703  49.287  1.00  0.00     0.033 A 
HETATM   28  C   UNL     1      15.061  52.877  48.883  1.00  0.00     0.039 A 
HETATM   29  C   UNL     1      14.963  53.217  47.538  1.00  0.00     0.068 A 
HETATM   30  C   UNL     1      15.554  52.385  46.599  1.00  0.00     0.039 A 
HETATM   31  C   UNL     1      16.209  51.211  47.003  1.00  0.00     0.033 A 
BRANCH  29  32
HETATM   32  O   UNL     1      14.275  54.367  47.279  1.00  0.00    -0.356 OA
HETATM   33  C   UNL     1      13.913  55.168  48.398  1.00  0.00     0.210 C 
ENDBRANCH  29  32
ENDBRANCH  20  26
TORSDOF 2
ENDMDL
MODEL 4
REMARK VINA RESULT:      -8.1      8.989     11.442
REMARK  2 active torsions:
REMARK  status: ('A' for Active; 'I' for Inactive)
REMARK    1  A    between atoms: N_20  and  C_21 
REMARK    2  A    between atoms: C_24  and  O_25 
ROOT
HETATM    1  C   UNL     1      22.750  46.485  41.322  1.00  0.00     0.048 C 
HETATM    2  C   UNL     1      23.399  47.575  40.515  1.00  0.00    -0.061 A 
HETATM    3  C   UNL     1      24.783  47.558  40.269  1.00  0.00     0.019 A 
HETATM    4  C   UNL     1      25.329  48.552  39.468  1.00  0.00     0.016 A 
HETATM    5  C   UNL     1      24.502  49.554  38.948  1.00  0.00     0.044 A 
HETATM    6  N   UNL     1      25.243  50.467  38.215  1.00  0.00    -0.324 N 
HETATM    7  C   UNL     1      26.580  50.123  38.197  1.00  0.00     0.264 A 
HETATM    8  O   UNL     1      27.484  50.751  37.671  1.00  0.00    -0.270 OA
HETATM    9  C   UNL     1      26.752  48.811  39.050  1.00  0.00     0.250 A 
HETATM   10  N   UNL     1      27.676  49.010  40.238  1.00  0.00    -0.043 N 
HETATM   11  H   UNL     1      27.526  48.211  40.872  1.00  0.00     0.282 HD
HETATM   12  C   UNL     1      29.070  48.970  39.668  1.00  0.00     0.204 C 
HETATM   13  C   UNL     1      29.877  49.061  40.941  1.00  0.00     0.036 C 
HETATM   14  C   UNL     1      29.097  50.126  41.746  1.00  0.00     0.030 C 
HETATM   15  C   UNL     1      27.686  50.207  41.131  1.00  0.00     0.237 C 
HETATM   16  C   UNL     1      29.006  47.832  38.673  1.00  0.00     0.126 C 
HETATM   17  C   UNL     1      27.551  47.799  38.187  1.00  0.00     0.145 C 
HETATM   18  C   UNL     1      27.147  46.373  38.404  1.00  0.00     0.239 C 
HETATM   19  O   UNL     1      26.104  45.943  37.935  1.00  0.00    -0.272 OA
HETATM   20  N   UNL     1      28.092  45.733  39.178  1.00  0.00    -0.252 N 
HETATM   21  C   UNL     1      29.226  46.500  39.313  1.00  0.00     0.238 C 
HETATM   22  O   UNL     1      30.270  46.269  39.903  1.00  0.00    -0.272 OA
HETATM   23  C   UNL     1      23.145  49.602  39.173  1.00  0.00     0.031 A 
HETATM   24  C   UNL     1      22.593  48.593  39.962  1.00  0.00     0.009 A 
HETATM   25  H   UNL     1      24.865  51.278  37.739  1.00  0.00     0.169 HD
ENDROOT
BRANCH  20  26
HETATM   26  C   UNL     1      27.916  44.442  39.783  1.00  0.00     0.045 A 
HETATM   27  C   UNL     1      27.258  44.289  41.013  1.00  0.00     0.033 A 
HETATM   28  C   UNL     1      27.175  43.040  41.648  1.00  0.00     0.039 A 
HETATM   29  C   UNL     1      27.741  41.905  41.075  1.00  0.00     0.068 A 
HETATM   30  C   UNL     1      28.366  42.026  39.843  1.00  0.00     0.039 A 
HETATM   31  C   UNL     1      28.447  43.276  39.208  1.00  0.00     0.033 A 
BRANCH  29  32
HETATM   32  O   UNL     1      27.617  40.761  41.809  1.00  0.00    -0.356 OA
HETATM   33  C   UNL     1      28.620  40.510  42.787  1.00  0.00     0.210 C 
ENDBRANCH  29  32
ENDBRANCH  20  26
TORSDOF 2
ENDMDL
MODEL 5
REMARK VINA RESULT:      -8.0     19.710     22.416
REMARK  2 active torsions:
REMARK  status: ('A' for Active; 'I' for Inactive)
REMARK    1  A    between atoms: N_20  and  C_21 
REMARK    2  A    between atoms: C_24  and  O_25 
ROOT
HETATM    1  C   UNL     1      43.020  47.682  66.442  1.00  0.00     0.048 C 
HETATM    2  C   UNL     1      42.111  46.831  65.599  1.00  0.00    -0.061 A 
HETATM    3  C   UNL     1      40.715  46.906  65.748  1.00  0.00     0.019 A 
HETATM    4  C   UNL     1      39.913  46.147  64.907  1.00  0.00     0.016 A 
HETATM    5  C   UNL     1      40.507  45.312  63.953  1.00  0.00     0.044 A 
HETATM    6  N   UNL     1      39.541  44.613  63.247  1.00  0.00    -0.324 N 
HETATM    7  C   UNL     1      38.272  44.947  63.677  1.00  0.00     0.264 A 
HETATM    8  O   UNL     1      37.222  44.470  63.278  1.00  0.00    -0.270 OA
HETATM    9  C   UNL     1      38.417  45.998  64.840  1.00  0.00     0.250 A 
HETATM   10  N   UNL     1      37.827  45.501  66.147  1.00  0.00    -0.043 N 
HETATM   11  H   UNL     1      38.190  46.113  66.892  1.00  0.00     0.282 HD
HETATM   12  C   UNL     1      36.338  45.680  66.003  1.00  0.00     0.204 C 
HETATM   13  C   UNL     1      35.889  45.266  67.384  1.00  0.00     0.036 C 
HETATM   14  C   UNL     1      36.781  44.033  67.661  1.00  0.00     0.030 C 
HETATM   15  C   UNL     1      37.972  44.116  66.686  1.00  0.00     0.237 C 
HETATM   16  C   UNL     1      36.212  47.034  65.339  1.00  0.00     0.126 C 
HETATM   17  C   UNL     1      37.488  47.194  64.501  1.00  0.00     0.145 C 
HETATM   18  C   UNL     1      38.028  48.519  64.943  1.00  0.00     0.239 C 
HETATM   19  O   UNL     1      38.937  49.057  64.330  1.00  0.00    -0.272 OA
HETATM   20  N   UNL     1      37.364  48.939  66.078  1.00  0.00    -0.252 N 
HETATM   21  C   UNL     1      36.257  48.159  66.322  1.00  0.00     0.238 C 
HETATM   22  O   UNL     1      35.422  48.229  67.211  1.00  0.00    -0.272 OA
HETATM   23  C   UNL     1      41.869  45.213  63.783  1.00  0.00     0.031 A 
HETATM   24  C   UNL     1      42.675  45.989  64.616  1.00  0.00     0.009 A 
HETATM   25  H   UNL     1      39.727  43.951  62.503  1.00  0.00     0.169 HD
ENDROOT
BRANCH  20  26
HETATM   26  C   UNL     1      37.778  50.033  66.910  1.00  0.00     0.045 A 
HETATM   27  C   UNL     1      37.685  51.364  66.476  1.00  0.00     0.033 A 
HETATM   28  C   UNL     1      38.183  52.423  67.252  1.00  0.00     0.039 A 
HETATM   29  C   UNL     1      38.783  52.188  68.485  1.00  0.00     0.068 A 
HETATM   30  C   UNL     1      38.854  50.884  68.951  1.00  0.00     0.039 A 
HETATM   31  C   UNL     1      38.355  49.825  68.174  1.00  0.00     0.033 A 
BRANCH  29  32
HETATM   32  O   UNL     1      39.251  53.300  69.124  1.00  0.00    -0.356 OA
HETATM   33  C   UNL     1      38.897  54.561  68.567  1.00  0.00     0.210 C 
ENDBRANCH  29  32
ENDBRANCH  20  26
TORSDOF 2
ENDMDL
MODEL 6
REMARK VINA RESULT:      -8.0      7.188     11.969
REMARK  2 active torsions:
REMARK  status: ('A' for Active; 'I' for Inactive)
REMARK    1  A    between atoms: N_20  and  C_21 
REMARK    2  A    between atoms: C_24  and  O_25 
ROOT
HETATM    1  C   UNL     1      17.108  49.975  43.024  1.00  0.00     0.048 C 
HETATM    2  C   UNL     1      17.745  49.061  44.035  1.00  0.00    -0.061 A 
HETATM    3  C   UNL     1      17.912  49.471  45.368  1.00  0.00     0.019 A 
HETATM    4  C   UNL     1      18.449  48.572  46.280  1.00  0.00     0.016 A 
HETATM    5  C   UNL     1      18.832  47.297  45.849  1.00  0.00     0.044 A 
HETATM    6  N   UNL     1      19.380  46.573  46.896  1.00  0.00    -0.324 N 
HETATM    7  C   UNL     1      19.382  47.310  48.063  1.00  0.00     0.264 A 
HETATM    8  O   UNL     1      19.836  46.961  49.141  1.00  0.00    -0.270 OA
HETATM    9  C   UNL     1      18.767  48.723  47.744  1.00  0.00     0.250 A 
HETATM   10  N   UNL     1      19.744  49.854  48.009  1.00  0.00    -0.043 N 
HETATM   11  H   UNL     1      19.371  50.690  47.537  1.00  0.00     0.282 HD
HETATM   12  C   UNL     1      19.729  50.048  49.503  1.00  0.00     0.204 C 
HETATM   13  C   UNL     1      20.634  51.250  49.621  1.00  0.00     0.036 C 
HETATM   14  C   UNL     1      21.757  50.913  48.612  1.00  0.00     0.030 C 
HETATM   15  C   UNL     1      21.196  49.836  47.663  1.00  0.00     0.237 C 
HETATM   16  C   UNL     1      18.262  49.936  49.854  1.00  0.00     0.126 C 
HETATM   17  C   UNL     1      17.662  48.997  48.798  1.00  0.00     0.145 C 
HETATM   18  C   UNL     1      16.499  49.775  48.264  1.00  0.00     0.239 C 
HETATM   19  O   UNL     1      15.671  49.240  47.543  1.00  0.00    -0.272 OA
HETATM   20  N   UNL     1      16.573  51.082  48.698  1.00  0.00    -0.252 N 
HETATM   21  C   UNL     1      17.531  51.228  49.675  1.00  0.00     0.238 C 
HETATM   22  O   UNL     1      17.873  52.217  50.305  1.00  0.00    -0.272 OA
HETATM   23  C   UNL     1      18.685  46.865  44.551  1.00  0.00     0.031 A 
HETATM   24  C   UNL     1      18.129  47.762  43.639  1.00  0.00     0.009 A 
HETATM   25  H   UNL     1      19.727  45.623  46.830  1.00  0.00     0.169 HD
ENDROOT
BRANCH  20  26
HETATM   26  C   UNL     1      15.772  52.159  48.189  1.00  0.00     0.045 A 
HETATM   27  C   UNL     1      15.040  52.999  49.041  1.00  0.00     0.033 A 
HETATM   28  C   UNL     1      14.180  53.987  48.534  1.00  0.00     0.039 A 
HETATM   29  C   UNL     1      14.028  54.170  47.163  1.00  0.00     0.068 A 
HETATM   30  C   UNL     1      14.768  53.375  46.302  1.00  0.00     0.039 A 
HETATM   31  C   UNL     1      15.629  52.388  46.810  1.00  0.00     0.033 A 
BRANCH  29  32
HETATM   32  O   UNL     1      13.140  55.142  46.803  1.00  0.00    -0.356 OA
HETATM   33  C   UNL     1      13.651  56.237  46.050  1.00  0.00     0.210 C 
ENDBRANCH  29  32
ENDBRANCH  20  26
TORSDOF 2
ENDMDL
MODEL 7
REMARK VINA RESULT:      -7.8      2.603      5.945
REMARK  2 active torsions:
REMARK  status: ('A' for Active; 'I' for Inactive)
REMARK    1  A    between atoms: N_20  and  C_21 
REMARK    2  A    between atoms: C_24  and  O_25 
ROOT
HETATM    1  C   UNL     1      29.775  42.453  52.732  1.00  0.00     0.048 C 
HETATM    2  C   UNL     1      28.986  43.633  53.230  1.00  0.00    -0.061 A 
HETATM    3  C   UNL     1      27.950  44.181  52.456  1.00  0.00     0.019 A 
HETATM    4  C   UNL     1      27.208  45.231  52.982  1.00  0.00     0.016 A 
HETATM    5  C   UNL     1      27.523  45.732  54.250  1.00  0.00     0.044 A 
HETATM    6  N   UNL     1      26.698  46.797  54.572  1.00  0.00    -0.324 N 
HETATM    7  C   UNL     1      25.797  47.053  53.558  1.00  0.00     0.264 A 
HETATM    8  O   UNL     1      24.973  47.952  53.529  1.00  0.00    -0.270 OA
HETATM    9  C   UNL     1      26.074  46.028  52.396  1.00  0.00     0.250 A 
HETATM   10  N   UNL     1      26.460  46.713  51.098  1.00  0.00    -0.043 N 
HETATM   11  H   UNL     1      26.871  45.992  50.488  1.00  0.00     0.282 HD
HETATM   12  C   UNL     1      25.164  47.214  50.514  1.00  0.00     0.204 C 
HETATM   13  C   UNL     1      25.664  47.762  49.198  1.00  0.00     0.036 C 
HETATM   14  C   UNL     1      26.976  48.467  49.616  1.00  0.00     0.030 C 
HETATM   15  C   UNL     1      27.383  47.881  50.982  1.00  0.00     0.237 C 
HETATM   16  C   UNL     1      24.208  46.068  50.754  1.00  0.00     0.126 C 
HETATM   17  C   UNL     1      24.718  45.372  52.024  1.00  0.00     0.145 C 
HETATM   18  C   UNL     1      24.836  43.938  51.609  1.00  0.00     0.239 C 
HETATM   19  O   UNL     1      25.025  43.064  52.440  1.00  0.00    -0.272 OA
HETATM   20  N   UNL     1      24.719  43.838  50.238  1.00  0.00    -0.252 N 
HETATM   21  C   UNL     1      24.288  45.023  49.688  1.00  0.00     0.238 C 
HETATM   22  O   UNL     1      24.055  45.316  48.525  1.00  0.00    -0.272 OA
HETATM   23  C   UNL     1      28.533  45.220  55.033  1.00  0.00     0.031 A 
HETATM   24  C   UNL     1      29.265  44.153  54.512  1.00  0.00     0.009 A 
HETATM   25  H   UNL     1      26.732  47.321  55.439  1.00  0.00     0.169 HD
ENDROOT
BRANCH  20  26
HETATM   26  C   UNL     1      25.024  42.660  49.476  1.00  0.00     0.045 A 
HETATM   27  C   UNL     1      26.346  42.280  49.204  1.00  0.00     0.033 A 
HETATM   28  C   UNL     1      26.638  41.185  48.375  1.00  0.00     0.039 A 
HETATM   29  C   UNL     1      25.620  40.432  47.797  1.00  0.00     0.068 A 
HETATM   30  C   UNL     1      24.304  40.767  48.080  1.00  0.00     0.039 A 
HETATM   31  C   UNL     1      24.014  41.863  48.910  1.00  0.00     0.033 A 
BRANCH  29  32
HETATM   32  O   UNL     1      26.038  39.414  46.990  1.00  0.00    -0.356 OA
HETATM   33  C   UNL     1      27.403  39.024  47.097  1.00  0.00     0.210 C 
ENDBRANCH  29  32
ENDBRANCH  20  26
TORSDOF 2
ENDMDL
MODEL 8
REMARK VINA RESULT:      -7.7      6.611     11.155
REMARK  2 active torsions:
REMARK  status: ('A' for Active; 'I' for Inactive)
REMARK    1  A    between atoms: N_20  and  C_21 
REMARK    2  A    between atoms: C_24  and  O_25 
ROOT
HETATM    1  C   UNL     1      19.793  46.277  43.643  1.00  0.00     0.048 C 
HETATM    2  C   UNL     1      19.664  46.270  45.141  1.00  0.00    -0.061 A 
HETATM    3  C   UNL     1      19.493  47.469  45.853  1.00  0.00     0.019 A 
HETATM    4  C   UNL     1      19.316  47.409  47.229  1.00  0.00     0.016 A 
HETATM    5  C   UNL     1      19.338  46.168  47.875  1.00  0.00     0.044 A 
HETATM    6  N   UNL     1      19.187  46.327  49.243  1.00  0.00    -0.324 N 
HETATM    7  C   UNL     1      19.048  47.660  49.576  1.00  0.00     0.264 A 
HETATM    8  O   UNL     1      18.941  48.119  50.702  1.00  0.00    -0.270 OA
HETATM    9  C   UNL     1      19.137  48.501  48.249  1.00  0.00     0.250 A 
HETATM   10  N   UNL     1      20.298  49.479  48.259  1.00  0.00    -0.043 N 
HETATM   11  H   UNL     1      20.442  49.785  47.286  1.00  0.00     0.282 HD
HETATM   12  C   UNL     1      19.836  50.635  49.107  1.00  0.00     0.204 C 
HETATM   13  C   UNL     1      21.013  51.567  48.945  1.00  0.00     0.036 C 
HETATM   14  C   UNL     1      22.213  50.598  49.046  1.00  0.00     0.030 C 
HETATM   15  C   UNL     1      21.669  49.182  48.771  1.00  0.00     0.237 C 
HETATM   16  C   UNL     1      18.404  50.840  48.666  1.00  0.00     0.126 C 
HETATM   17  C   UNL     1      17.913  49.455  48.222  1.00  0.00     0.145 C 
HETATM   18  C   UNL     1      17.373  49.703  46.848  1.00  0.00     0.239 C 
HETATM   19  O   UNL     1      16.714  48.850  46.275  1.00  0.00    -0.272 OA
HETATM   20  N   UNL     1      17.758  50.955  46.414  1.00  0.00    -0.252 N 
HETATM   21  C   UNL     1      18.300  51.692  47.442  1.00  0.00     0.238 C 
HETATM   22  O   UNL     1      18.733  52.834  47.452  1.00  0.00    -0.272 OA
HETATM   23  C   UNL     1      19.506  44.975  47.209  1.00  0.00     0.031 A 
HETATM   24  C   UNL     1      19.664  45.034  45.824  1.00  0.00     0.009 A 
HETATM   25  H   UNL     1      19.167  45.573  49.920  1.00  0.00     0.169 HD
ENDROOT
BRANCH  20  26
HETATM   26  C   UNL     1      17.630  51.428  45.064  1.00  0.00     0.045 A 
HETATM   27  C   UNL     1      18.332  50.832  44.006  1.00  0.00     0.033 A 
HETATM   28  C   UNL     1      18.281  51.360  42.706  1.00  0.00     0.039 A 
HETATM   29  C   UNL     1      17.525  52.492  42.420  1.00  0.00     0.068 A 
HETATM   30  C   UNL     1      16.794  53.077  43.443  1.00  0.00     0.039 A 
HETATM   31  C   UNL     1      16.845  52.548  44.744  1.00  0.00     0.033 A 
BRANCH  29  32
HETATM   32  O   UNL     1      17.586  52.919  41.125  1.00  0.00    -0.356 OA
HETATM   33  C   UNL     1      18.112  52.005  40.168  1.00  0.00     0.210 C 
ENDBRANCH  29  32
ENDBRANCH  20  26
TORSDOF 2
ENDMDL
MODEL 9
REMARK VINA RESULT:      -7.7      6.950     12.031
REMARK  2 active torsions:
REMARK  status: ('A' for Active; 'I' for Inactive)
REMARK    1  A    between atoms: N_20  and  C_21 
REMARK    2  A    between atoms: C_24  and  O_25 
ROOT
HETATM    1  C   UNL     1      19.038  46.049  44.478  1.00  0.00     0.048 C 
HETATM    2  C   UNL     1      19.128  46.357  45.947  1.00  0.00    -0.061 A 
HETATM    3  C   UNL     1      18.548  47.524  46.473  1.00  0.00     0.019 A 
HETATM    4  C   UNL     1      18.603  47.736  47.844  1.00  0.00     0.016 A 
HETATM    5  C   UNL     1      19.251  46.804  48.662  1.00  0.00     0.044 A 
HETATM    6  N   UNL     1      19.232  47.219  49.984  1.00  0.00    -0.324 N 
HETATM    7  C   UNL     1      18.572  48.424  50.117  1.00  0.00     0.264 A 
HETATM    8  O   UNL     1      18.428  49.062  51.148  1.00  0.00    -0.270 OA
HETATM    9  C   UNL     1      18.104  48.880  48.685  1.00  0.00     0.250 A 
HETATM   10  N   UNL     1      18.712  50.208  48.273  1.00  0.00    -0.043 N 
HETATM   11  H   UNL     1      18.575  50.299  47.256  1.00  0.00     0.282 HD
HETATM   12  C   UNL     1      17.911  51.255  49.003  1.00  0.00     0.204 C 
HETATM   13  C   UNL     1      18.528  52.507  48.429  1.00  0.00     0.036 C 
HETATM   14  C   UNL     1      20.034  52.151  48.414  1.00  0.00     0.030 C 
HETATM   15  C   UNL     1      20.130  50.615  48.503  1.00  0.00     0.237 C 
HETATM   16  C   UNL     1      16.488  50.760  48.869  1.00  0.00     0.126 C 
HETATM   17  C   UNL     1      16.596  49.231  48.780  1.00  0.00     0.145 C 
HETATM   18  C   UNL     1      15.822  48.901  47.542  1.00  0.00     0.239 C 
HETATM   19  O   UNL     1      15.531  47.744  47.280  1.00  0.00    -0.272 OA
HETATM   20  N   UNL     1      15.559  50.055  46.834  1.00  0.00    -0.252 N 
HETATM   21  C   UNL     1      15.858  51.173  47.578  1.00  0.00     0.238 C 
HETATM   22  O   UNL     1      15.747  52.358  47.303  1.00  0.00    -0.272 OA
HETATM   23  C   UNL     1      19.832  45.653  48.179  1.00  0.00     0.031 A 
HETATM   24  C   UNL     1      19.760  45.430  46.804  1.00  0.00     0.009 A 
HETATM   25  H   UNL     1      19.635  46.709  50.762  1.00  0.00     0.169 HD
ENDROOT
BRANCH  20  26
HETATM   26  C   UNL     1      15.057  50.093  45.489  1.00  0.00     0.045 A 
HETATM   27  C   UNL     1      15.899  50.343  44.395  1.00  0.00     0.033 A 
HETATM   28  C   UNL     1      15.388  50.478  43.095  1.00  0.00     0.039 A 
HETATM   29  C   UNL     1      14.024  50.363  42.844  1.00  0.00     0.068 A 
HETATM   30  C   UNL     1      13.176  50.081  43.905  1.00  0.00     0.039 A 
HETATM   31  C   UNL     1      13.688  49.946  45.206  1.00  0.00     0.033 A 
BRANCH  29  32
HETATM   32  O   UNL     1      13.656  50.545  41.543  1.00  0.00    -0.356 OA
HETATM   33  C   UNL     1      14.606  51.167  40.684  1.00  0.00     0.210 C 
ENDBRANCH  29  32
ENDBRANCH  20  26
TORSDOF 2
ENDMDL
MODEL 10
REMARK VINA RESULT:      -7.3     16.507     19.830
REMARK  2 active torsions:
REMARK  status: ('A' for Active; 'I' for Inactive)
REMARK    1  A    between atoms: N_20  and  C_21 
REMARK    2  A    between atoms: C_24  and  O_25 
ROOT
HETATM    1  C   UNL     1      42.440  49.595  44.722  1.00  0.00     0.048 C 
HETATM    2  C   UNL     1      42.741  50.772  45.607  1.00  0.00    -0.061 A 
HETATM    3  C   UNL     1      42.000  51.961  45.498  1.00  0.00     0.019 A 
HETATM    4  C   UNL     1      42.274  53.000  46.378  1.00  0.00     0.016 A 
HETATM    5  C   UNL     1      43.289  52.852  47.329  1.00  0.00     0.044 A 
HETATM    6  N   UNL     1      43.431  54.010  48.077  1.00  0.00    -0.324 N 
HETATM    7  C   UNL     1      42.525  54.973  47.678  1.00  0.00     0.264 A 
HETATM    8  O   UNL     1      42.433  56.107  48.118  1.00  0.00    -0.270 OA
HETATM    9  C   UNL     1      41.678  54.378  46.492  1.00  0.00     0.250 A 
HETATM   10  N   UNL     1      41.830  55.181  45.213  1.00  0.00    -0.043 N 
HETATM   11  H   UNL     1      41.473  54.594  44.445  1.00  0.00     0.282 HD
HETATM   12  C   UNL     1      40.952  56.391  45.398  1.00  0.00     0.204 C 
HETATM   13  C   UNL     1      41.100  57.033  44.039  1.00  0.00     0.036 C 
HETATM   14  C   UNL     1      42.611  56.859  43.759  1.00  0.00     0.030 C 
HETATM   15  C   UNL     1      43.113  55.743  44.696  1.00  0.00     0.237 C 
HETATM   16  C   UNL     1      39.706  55.822  46.039  1.00  0.00     0.126 C 
HETATM   17  C   UNL     1      40.182  54.599  46.835  1.00  0.00     0.145 C 
HETATM   18  C   UNL     1      39.285  53.501  46.352  1.00  0.00     0.239 C 
HETATM   19  O   UNL     1      39.253  52.425  46.927  1.00  0.00    -0.272 OA
HETATM   20  N   UNL     1      38.599  53.919  45.230  1.00  0.00    -0.252 N 
HETATM   21  C   UNL     1      38.745  55.273  45.034  1.00  0.00     0.238 C 
HETATM   22  O   UNL     1      38.281  56.000  44.169  1.00  0.00    -0.272 OA
HETATM   23  C   UNL     1      44.036  51.703  47.460  1.00  0.00     0.031 A 
HETATM   24  C   UNL     1      43.749  50.652  46.589  1.00  0.00     0.009 A 
HETATM   25  H   UNL     1      44.099  54.142  48.828  1.00  0.00     0.169 HD
ENDROOT
BRANCH  20  26
HETATM   26  C   UNL     1      37.844  53.056  44.365  1.00  0.00     0.045 A 
HETATM   27  C   UNL     1      36.441  53.061  44.363  1.00  0.00     0.033 A 
HETATM   28  C   UNL     1      35.708  52.147  43.589  1.00  0.00     0.039 A 
HETATM   29  C   UNL     1      36.350  51.206  42.791  1.00  0.00     0.068 A 
HETATM   30  C   UNL     1      37.736  51.205  42.751  1.00  0.00     0.039 A 
HETATM   31  C   UNL     1      38.469  52.120  43.524  1.00  0.00     0.033 A 
BRANCH  29  32
HETATM   32  O   UNL     1      35.522  50.358  42.114  1.00  0.00    -0.356 OA
HETATM   33  C   UNL     1      34.136  50.685  42.097  1.00  0.00     0.210 C 
ENDBRANCH  29  32
ENDBRANCH  20  26
TORSDOF 2
ENDMDL
