MODEL 1
REMARK VINA RESULT:     -10.0      0.000      0.000
REMARK  3 active torsions:
REMARK  status: ('A' for Active; 'I' for Inactive)
REMARK    1  A    between atoms: C_5  and  N_6 
REMARK       I    between atoms: N_6  and  C_7 
REMARK    2  A    between atoms: C_7  and  C_8 
REMARK    3  A    between atoms: C_8  and  N_9 
ROOT
HETATM    1  N   UNL     1      25.253  44.169  49.583  1.00  0.00    -0.256 N 
HETATM    2  C   UNL     1      24.053  43.502  49.504  1.00  0.00     0.330 A 
HETATM    3  O   UNL     1      23.864  42.300  49.574  1.00  0.00    -0.246 OA
HETATM    4  N   UNL     1      23.073  44.445  49.259  1.00  0.00    -0.303 N 
HETATM    5  C   UNL     1      23.615  45.699  49.131  1.00  0.00     0.122 A 
HETATM    6  C   UNL     1      22.921  46.799  48.808  1.00  0.00     0.077 A 
HETATM    7  C   UNL     1      21.452  46.678  48.480  1.00  0.00     0.259 A 
HETATM    8  O   UNL     1      20.764  45.675  48.534  1.00  0.00    -0.267 OA
HETATM    9  N   UNL     1      21.060  47.939  48.080  1.00  0.00    -0.322 N 
HETATM   10  C   UNL     1      23.282  48.211  48.609  1.00  0.00     0.009 A 
HETATM   11  C   UNL     1      22.114  48.842  48.154  1.00  0.00     0.046 A 
HETATM   12  C   UNL     1      22.050  50.188  47.849  1.00  0.00     0.030 A 
HETATM   13  C   UNL     1      23.211  50.939  48.023  1.00  0.00     0.002 A 
HETATM   14  C   UNL     1      24.386  50.333  48.500  1.00  0.00     0.001 A 
HETATM   15  C   UNL     1      24.426  48.964  48.797  1.00  0.00     0.015 A 
HETATM   16  C   UNL     1      25.083  45.512  49.362  1.00  0.00     0.280 A 
HETATM   17  O   UNL     1      25.967  46.351  49.347  1.00  0.00    -0.265 OA
HETATM   18  H   UNL     1      22.093  44.217  49.113  1.00  0.00     0.171 HD
HETATM   19  H   UNL     1      20.118  48.155  47.788  1.00  0.00     0.169 HD
ENDROOT
BRANCH   1  20
HETATM   20  C   UNL     1      26.536  43.500  49.620  1.00  0.00     0.240 C 
BRANCH  20  21
HETATM   21  C   UNL     1      26.968  43.057  51.018  1.00  0.00     0.240 C 
HETATM   22  N   UNL     1      27.785  43.978  51.657  1.00  0.00    -0.326 N 
HETATM   23  H   UNL     1      27.838  44.909  51.246  1.00  0.00     0.169 HD
HETATM   24  O   UNL     1      26.674  41.940  51.437  1.00  0.00    -0.271 OA
BRANCH  22  25
HETATM   25  C   UNL     1      28.607  43.756  52.782  1.00  0.00     0.034 A 
HETATM   26  C   UNL     1      28.306  44.474  53.945  1.00  0.00     0.030 A 
HETATM   27  C   UNL     1      29.119  44.372  55.079  1.00  0.00     0.009 A 
HETATM   28  C   UNL     1      30.260  43.564  55.061  1.00  0.00    -0.062 A 
HETATM   29  C   UNL     1      31.146  43.453  56.267  1.00  0.00     0.048 C 
HETATM   30  C   UNL     1      30.543  42.824  53.909  1.00  0.00     0.009 A 
HETATM   31  C   UNL     1      29.723  42.920  52.778  1.00  0.00     0.030 A 
ENDBRANCH  22  25
ENDBRANCH  20  21
ENDBRANCH   1  20
TORSDOF 3
ENDMDL
MODEL 2
REMARK VINA RESULT:      -9.9      1.699      2.107
REMARK  3 active torsions:
REMARK  status: ('A' for Active; 'I' for Inactive)
REMARK    1  A    between atoms: C_5  and  N_6 
REMARK       I    between atoms: N_6  and  C_7 
REMARK    2  A    between atoms: C_7  and  C_8 
REMARK    3  A    between atoms: C_8  and  N_9 
ROOT
HETATM    1  N   UNL     1      24.858  43.493  50.503  1.00  0.00    -0.256 N 
HETATM    2  C   UNL     1      23.495  43.652  50.405  1.00  0.00     0.330 A 
HETATM    3  O   UNL     1      22.636  42.795  50.512  1.00  0.00    -0.246 OA
HETATM    4  N   UNL     1      23.257  44.977  50.090  1.00  0.00    -0.303 N 
HETATM    5  C   UNL     1      24.433  45.667  49.935  1.00  0.00     0.122 A 
HETATM    6  C   UNL     1      24.519  46.947  49.548  1.00  0.00     0.077 A 
HETATM    7  C   UNL     1      23.261  47.693  49.171  1.00  0.00     0.259 A 
HETATM    8  O   UNL     1      22.115  47.288  49.237  1.00  0.00    -0.267 OA
HETATM    9  N   UNL     1      23.687  48.923  48.710  1.00  0.00    -0.322 N 
HETATM   10  C   UNL     1      25.642  47.867  49.310  1.00  0.00     0.009 A 
HETATM   11  C   UNL     1      25.070  49.039  48.790  1.00  0.00     0.046 A 
HETATM   12  C   UNL     1      25.811  50.150  48.433  1.00  0.00     0.030 A 
HETATM   13  C   UNL     1      27.189  50.086  48.622  1.00  0.00     0.002 A 
HETATM   14  C   UNL     1      27.781  48.932  49.163  1.00  0.00     0.001 A 
HETATM   15  C   UNL     1      27.008  47.816  49.511  1.00  0.00     0.015 A 
HETATM   16  C   UNL     1      25.510  44.668  50.227  1.00  0.00     0.280 A 
HETATM   17  O   UNL     1      26.718  44.828  50.213  1.00  0.00    -0.265 OA
HETATM   18  H   UNL     1      22.331  45.359  49.917  1.00  0.00     0.171 HD
HETATM   19  H   UNL     1      23.053  49.633  48.378  1.00  0.00     0.169 HD
ENDROOT
BRANCH   1  20
HETATM   20  C   UNL     1      25.504  42.203  50.611  1.00  0.00     0.240 C 
BRANCH  20  21
HETATM   21  C   UNL     1      26.788  42.216  51.440  1.00  0.00     0.240 C 
HETATM   22  N   UNL     1      26.614  42.744  52.711  1.00  0.00    -0.326 N 
HETATM   23  H   UNL     1      25.654  42.863  53.033  1.00  0.00     0.169 HD
HETATM   24  O   UNL     1      27.857  41.877  50.940  1.00  0.00    -0.271 OA
BRANCH  22  25
HETATM   25  C   UNL     1      27.618  43.197  53.593  1.00  0.00     0.034 A 
HETATM   26  C   UNL     1      27.520  44.517  54.049  1.00  0.00     0.030 A 
HETATM   27  C   UNL     1      28.517  45.068  54.862  1.00  0.00     0.009 A 
HETATM   28  C   UNL     1      29.638  44.313  55.217  1.00  0.00    -0.062 A 
HETATM   29  C   UNL     1      30.719  44.894  56.080  1.00  0.00     0.048 C 
HETATM   30  C   UNL     1      29.721  42.985  54.786  1.00  0.00     0.009 A 
HETATM   31  C   UNL     1      28.718  42.432  53.979  1.00  0.00     0.030 A 
ENDBRANCH  22  25
ENDBRANCH  20  21
ENDBRANCH   1  20
TORSDOF 3
ENDMDL
MODEL 3
REMARK VINA RESULT:      -9.8      2.923      9.114
REMARK  3 active torsions:
REMARK  status: ('A' for Active; 'I' for Inactive)
REMARK    1  A    between atoms: C_5  and  N_6 
REMARK       I    between atoms: N_6  and  C_7 
REMARK    2  A    between atoms: C_7  and  C_8 
REMARK    3  A    between atoms: C_8  and  N_9 
ROOT
HETATM    1  N   UNL     1      23.953  47.670  49.134  1.00  0.00    -0.256 N 
HETATM    2  C   UNL     1      23.240  46.538  48.814  1.00  0.00     0.330 A 
HETATM    3  O   UNL     1      22.382  46.418  47.957  1.00  0.00    -0.246 OA
HETATM    4  N   UNL     1      23.623  45.546  49.696  1.00  0.00    -0.303 N 
HETATM    5  C   UNL     1      24.532  46.021  50.609  1.00  0.00     0.122 A 
HETATM    6  C   UNL     1      25.019  45.312  51.636  1.00  0.00     0.077 A 
HETATM    7  C   UNL     1      24.499  43.916  51.887  1.00  0.00     0.259 A 
HETATM    8  O   UNL     1      23.704  43.292  51.208  1.00  0.00    -0.267 OA
HETATM    9  N   UNL     1      25.097  43.507  53.062  1.00  0.00    -0.322 N 
HETATM   10  C   UNL     1      25.969  45.608  52.720  1.00  0.00     0.009 A 
HETATM   11  C   UNL     1      25.958  44.480  53.555  1.00  0.00     0.046 A 
HETATM   12  C   UNL     1      26.728  44.376  54.697  1.00  0.00     0.030 A 
HETATM   13  C   UNL     1      27.561  45.449  55.007  1.00  0.00     0.002 A 
HETATM   14  C   UNL     1      27.606  46.579  54.173  1.00  0.00     0.001 A 
HETATM   15  C   UNL     1      26.810  46.663  53.022  1.00  0.00     0.015 A 
HETATM   16  C   UNL     1      24.762  47.449  50.220  1.00  0.00     0.280 A 
HETATM   17  O   UNL     1      25.492  48.270  50.745  1.00  0.00    -0.265 OA
HETATM   18  H   UNL     1      23.218  44.614  49.710  1.00  0.00     0.171 HD
HETATM   19  H   UNL     1      24.923  42.605  53.480  1.00  0.00     0.169 HD
ENDROOT
BRANCH   1  20
HETATM   20  C   UNL     1      23.675  48.973  48.571  1.00  0.00     0.240 C 
BRANCH  20  21
HETATM   21  C   UNL     1      22.581  49.750  49.304  1.00  0.00     0.240 C 
HETATM   22  N   UNL     1      21.312  49.519  48.795  1.00  0.00    -0.326 N 
HETATM   23  H   UNL     1      21.207  48.730  48.160  1.00  0.00     0.169 HD
HETATM   24  O   UNL     1      22.872  50.560  50.180  1.00  0.00    -0.271 OA
BRANCH  22  25
HETATM   25  C   UNL     1      20.152  50.294  49.008  1.00  0.00     0.034 A 
HETATM   26  C   UNL     1      20.102  51.552  48.397  1.00  0.00     0.030 A 
HETATM   27  C   UNL     1      19.024  52.415  48.622  1.00  0.00     0.009 A 
HETATM   28  C   UNL     1      17.985  52.040  49.479  1.00  0.00    -0.062 A 
HETATM   29  C   UNL     1      16.828  52.958  49.737  1.00  0.00     0.048 C 
HETATM   30  C   UNL     1      18.020  50.771  50.066  1.00  0.00     0.009 A 
HETATM   31  C   UNL     1      19.096  49.906  49.832  1.00  0.00     0.030 A 
ENDBRANCH  22  25
ENDBRANCH  20  21
ENDBRANCH   1  20
TORSDOF 3
ENDMDL
MODEL 4
REMARK VINA RESULT:      -9.8      2.035      8.726
REMARK  3 active torsions:
REMARK  status: ('A' for Active; 'I' for Inactive)
REMARK    1  A    between atoms: C_5  and  N_6 
REMARK       I    between atoms: N_6  and  C_7 
REMARK    2  A    between atoms: C_7  and  C_8 
REMARK    3  A    between atoms: C_8  and  N_9 
ROOT
HETATM    1  N   UNL     1      26.359  43.819  51.607  1.00  0.00    -0.256 N 
HETATM    2  C   UNL     1      27.274  42.931  51.091  1.00  0.00     0.330 A 
HETATM    3  O   UNL     1      27.140  42.203  50.124  1.00  0.00    -0.246 OA
HETATM    4  N   UNL     1      28.383  42.956  51.916  1.00  0.00    -0.303 N 
HETATM    5  C   UNL     1      28.189  43.802  52.979  1.00  0.00     0.122 A 
HETATM    6  C   UNL     1      29.055  43.968  53.988  1.00  0.00     0.077 A 
HETATM    7  C   UNL     1      30.308  43.125  54.035  1.00  0.00     0.259 A 
HETATM    8  O   UNL     1      30.688  42.321  53.203  1.00  0.00    -0.267 OA
HETATM    9  N   UNL     1      30.918  43.441  55.232  1.00  0.00    -0.322 N 
HETATM   10  C   UNL     1      29.055  44.791  55.207  1.00  0.00     0.009 A 
HETATM   11  C   UNL     1      30.201  44.412  55.922  1.00  0.00     0.046 A 
HETATM   12  C   UNL     1      30.553  44.965  57.139  1.00  0.00     0.030 A 
HETATM   13  C   UNL     1      29.722  45.956  57.654  1.00  0.00     0.002 A 
HETATM   14  C   UNL     1      28.581  46.369  56.945  1.00  0.00     0.001 A 
HETATM   15  C   UNL     1      28.243  45.787  55.715  1.00  0.00     0.015 A 
HETATM   16  C   UNL     1      26.830  44.393  52.761  1.00  0.00     0.280 A 
HETATM   17  O   UNL     1      26.233  45.199  53.452  1.00  0.00    -0.265 OA
HETATM   18  H   UNL     1      29.196  42.359  51.789  1.00  0.00     0.171 HD
HETATM   19  H   UNL     1      31.781  43.016  55.537  1.00  0.00     0.169 HD
ENDROOT
BRANCH   1  20
HETATM   20  C   UNL     1      24.994  43.918  51.140  1.00  0.00     0.240 C 
BRANCH  20  21
HETATM   21  C   UNL     1      24.798  44.900  49.984  1.00  0.00     0.240 C 
HETATM   22  N   UNL     1      24.847  46.228  50.380  1.00  0.00    -0.326 N 
HETATM   23  H   UNL     1      25.209  46.417  51.314  1.00  0.00     0.169 HD
HETATM   24  O   UNL     1      24.525  44.492  48.859  1.00  0.00    -0.271 OA
BRANCH  22  25
HETATM   25  C   UNL     1      24.394  47.352  49.659  1.00  0.00     0.034 A 
HETATM   26  C   UNL     1      25.323  48.368  49.407  1.00  0.00     0.030 A 
HETATM   27  C   UNL     1      24.934  49.551  48.769  1.00  0.00     0.009 A 
HETATM   28  C   UNL     1      23.603  49.745  48.389  1.00  0.00    -0.062 A 
HETATM   29  C   UNL     1      23.171  51.012  47.712  1.00  0.00     0.048 C 
HETATM   30  C   UNL     1      22.681  48.718  48.613  1.00  0.00     0.009 A 
HETATM   31  C   UNL     1      23.074  47.531  49.245  1.00  0.00     0.030 A 
ENDBRANCH  22  25
ENDBRANCH  20  21
ENDBRANCH   1  20
TORSDOF 3
ENDMDL
MODEL 5
REMARK VINA RESULT:      -9.7      3.968      7.242
REMARK  3 active torsions:
REMARK  status: ('A' for Active; 'I' for Inactive)
REMARK    1  A    between atoms: C_5  and  N_6 
REMARK       I    between atoms: N_6  and  C_7 
REMARK    2  A    between atoms: C_7  and  C_8 
REMARK    3  A    between atoms: C_8  and  N_9 
ROOT
HETATM    1  N   UNL     1      26.188  43.638  51.290  1.00  0.00    -0.256 N 
HETATM    2  C   UNL     1      25.954  44.034  49.994  1.00  0.00     0.330 A 
HETATM    3  O   UNL     1      25.259  44.959  49.612  1.00  0.00    -0.246 OA
HETATM    4  N   UNL     1      26.606  43.139  49.166  1.00  0.00    -0.303 N 
HETATM    5  C   UNL     1      27.217  42.148  49.893  1.00  0.00     0.122 A 
HETATM    6  C   UNL     1      27.854  41.096  49.361  1.00  0.00     0.077 A 
HETATM    7  C   UNL     1      27.854  40.911  47.862  1.00  0.00     0.259 A 
HETATM    8  O   UNL     1      27.386  41.662  47.026  1.00  0.00    -0.267 OA
HETATM    9  N   UNL     1      28.475  39.698  47.642  1.00  0.00    -0.322 N 
HETATM   10  C   UNL     1      28.555  39.935  49.929  1.00  0.00     0.009 A 
HETATM   11  C   UNL     1      28.892  39.121  48.836  1.00  0.00     0.046 A 
HETATM   12  C   UNL     1      29.566  37.922  48.963  1.00  0.00     0.030 A 
HETATM   13  C   UNL     1      29.933  37.528  50.248  1.00  0.00     0.002 A 
HETATM   14  C   UNL     1      29.627  38.337  51.355  1.00  0.00     0.001 A 
HETATM   15  C   UNL     1      28.936  39.548  51.200  1.00  0.00     0.015 A 
HETATM   16  C   UNL     1      26.945  42.495  51.325  1.00  0.00     0.280 A 
HETATM   17  O   UNL     1      27.291  41.898  52.329  1.00  0.00    -0.265 OA
HETATM   18  H   UNL     1      26.563  43.173  48.151  1.00  0.00     0.171 HD
HETATM   19  H   UNL     1      28.609  39.310  46.720  1.00  0.00     0.169 HD
ENDROOT
BRANCH   1  20
HETATM   20  C   UNL     1      25.500  44.201  52.432  1.00  0.00     0.240 C 
BRANCH  20  21
HETATM   21  C   UNL     1      26.331  44.218  53.715  1.00  0.00     0.240 C 
HETATM   22  N   UNL     1      27.621  44.691  53.526  1.00  0.00    -0.326 N 
HETATM   23  H   UNL     1      27.814  45.164  52.644  1.00  0.00     0.169 HD
HETATM   24  O   UNL     1      25.880  43.748  54.756  1.00  0.00    -0.271 OA
BRANCH  22  25
HETATM   25  C   UNL     1      28.723  44.538  54.393  1.00  0.00     0.034 A 
HETATM   26  C   UNL     1      29.479  43.367  54.266  1.00  0.00     0.030 A 
HETATM   27  C   UNL     1      30.539  43.102  55.141  1.00  0.00     0.009 A 
HETATM   28  C   UNL     1      30.848  43.996  56.170  1.00  0.00    -0.062 A 
HETATM   29  C   UNL     1      31.975  43.719  57.121  1.00  0.00     0.048 C 
HETATM   30  C   UNL     1      30.111  45.179  56.278  1.00  0.00     0.009 A 
HETATM   31  C   UNL     1      29.056  45.447  55.397  1.00  0.00     0.030 A 
ENDBRANCH  22  25
ENDBRANCH  20  21
ENDBRANCH   1  20
TORSDOF 3
ENDMDL
MODEL 6
REMARK VINA RESULT:      -9.5      1.811      2.821
REMARK  3 active torsions:
REMARK  status: ('A' for Active; 'I' for Inactive)
REMARK    1  A    between atoms: C_5  and  N_6 
REMARK       I    between atoms: N_6  and  C_7 
REMARK    2  A    between atoms: C_7  and  C_8 
REMARK    3  A    between atoms: C_8  and  N_9 
ROOT
HETATM    1  N   UNL     1      26.669  42.405  51.070  1.00  0.00    -0.256 N 
HETATM    2  C   UNL     1      25.883  41.366  50.628  1.00  0.00     0.330 A 
HETATM    3  O   UNL     1      26.140  40.175  50.656  1.00  0.00    -0.246 OA
HETATM    4  N   UNL     1      24.746  41.918  50.069  1.00  0.00    -0.303 N 
HETATM    5  C   UNL     1      24.798  43.290  50.096  1.00  0.00     0.122 A 
HETATM    6  C   UNL     1      23.879  44.097  49.552  1.00  0.00     0.077 A 
HETATM    7  C   UNL     1      22.729  43.495  48.777  1.00  0.00     0.259 A 
HETATM    8  O   UNL     1      22.478  42.313  48.630  1.00  0.00    -0.267 OA
HETATM    9  N   UNL     1      22.038  44.568  48.252  1.00  0.00    -0.322 N 
HETATM   10  C   UNL     1      23.734  45.557  49.451  1.00  0.00     0.009 A 
HETATM   11  C   UNL     1      22.610  45.775  48.640  1.00  0.00     0.046 A 
HETATM   12  C   UNL     1      22.148  47.033  48.306  1.00  0.00     0.030 A 
HETATM   13  C   UNL     1      22.839  48.126  48.824  1.00  0.00     0.002 A 
HETATM   14  C   UNL     1      23.953  47.933  49.659  1.00  0.00     0.001 A 
HETATM   15  C   UNL     1      24.406  46.645  49.977  1.00  0.00     0.015 A 
HETATM   16  C   UNL     1      26.089  43.615  50.783  1.00  0.00     0.280 A 
HETATM   17  O   UNL     1      26.561  44.710  51.033  1.00  0.00    -0.265 OA
HETATM   18  H   UNL     1      24.012  41.373  49.625  1.00  0.00     0.171 HD
HETATM   19  H   UNL     1      21.218  44.463  47.674  1.00  0.00     0.169 HD
ENDROOT
BRANCH   1  20
HETATM   20  C   UNL     1      28.032  42.236  51.523  1.00  0.00     0.240 C 
BRANCH  20  21
HETATM   21  C   UNL     1      28.222  42.450  53.025  1.00  0.00     0.240 C 
HETATM   22  N   UNL     1      28.505  43.766  53.359  1.00  0.00    -0.326 N 
HETATM   23  H   UNL     1      28.350  44.468  52.637  1.00  0.00     0.169 HD
HETATM   24  O   UNL     1      28.217  41.494  53.796  1.00  0.00    -0.271 OA
BRANCH  22  25
HETATM   25  C   UNL     1      29.045  44.242  54.572  1.00  0.00     0.034 A 
HETATM   26  C   UNL     1      28.376  45.300  55.199  1.00  0.00     0.030 A 
HETATM   27  C   UNL     1      28.891  45.883  56.362  1.00  0.00     0.009 A 
HETATM   28  C   UNL     1      30.095  45.430  56.907  1.00  0.00    -0.062 A 
HETATM   29  C   UNL     1      30.663  46.053  58.148  1.00  0.00     0.048 C 
HETATM   30  C   UNL     1      30.748  44.354  56.298  1.00  0.00     0.009 A 
HETATM   31  C   UNL     1      30.227  43.766  55.139  1.00  0.00     0.030 A 
ENDBRANCH  22  25
ENDBRANCH  20  21
ENDBRANCH   1  20
TORSDOF 3
ENDMDL
MODEL 7
REMARK VINA RESULT:      -9.4      3.498      7.759
REMARK  3 active torsions:
REMARK  status: ('A' for Active; 'I' for Inactive)
REMARK    1  A    between atoms: C_5  and  N_6 
REMARK       I    between atoms: N_6  and  C_7 
REMARK    2  A    between atoms: C_7  and  C_8 
REMARK    3  A    between atoms: C_8  and  N_9 
ROOT
HETATM    1  N   UNL     1      26.073  44.837  51.032  1.00  0.00    -0.256 N 
HETATM    2  C   UNL     1      25.281  45.852  51.516  1.00  0.00     0.330 A 
HETATM    3  O   UNL     1      24.372  46.424  50.941  1.00  0.00    -0.246 OA
HETATM    4  N   UNL     1      25.745  46.170  52.778  1.00  0.00    -0.303 N 
HETATM    5  C   UNL     1      26.847  45.419  53.104  1.00  0.00     0.122 A 
HETATM    6  C   UNL     1      27.562  45.564  54.227  1.00  0.00     0.077 A 
HETATM    7  C   UNL     1      27.210  46.673  55.192  1.00  0.00     0.259 A 
HETATM    8  O   UNL     1      26.276  47.451  55.113  1.00  0.00    -0.267 OA
HETATM    9  N   UNL     1      28.185  46.635  56.167  1.00  0.00    -0.322 N 
HETATM   10  C   UNL     1      28.755  44.898  54.770  1.00  0.00     0.009 A 
HETATM   11  C   UNL     1      29.089  45.603  55.937  1.00  0.00     0.046 A 
HETATM   12  C   UNL     1      30.167  45.278  56.737  1.00  0.00     0.030 A 
HETATM   13  C   UNL     1      30.937  44.182  56.357  1.00  0.00     0.002 A 
HETATM   14  C   UNL     1      30.609  43.445  55.206  1.00  0.00     0.001 A 
HETATM   15  C   UNL     1      29.513  43.800  54.407  1.00  0.00     0.015 A 
HETATM   16  C   UNL     1      27.058  44.512  51.931  1.00  0.00     0.280 A 
HETATM   17  O   UNL     1      27.921  43.668  51.770  1.00  0.00    -0.265 OA
HETATM   18  H   UNL     1      25.364  46.921  53.348  1.00  0.00     0.171 HD
HETATM   19  H   UNL     1      28.208  47.277  56.945  1.00  0.00     0.169 HD
ENDROOT
BRANCH   1  20
HETATM   20  C   UNL     1      26.032  44.378  49.660  1.00  0.00     0.240 C 
BRANCH  20  21
HETATM   21  C   UNL     1      26.053  42.857  49.510  1.00  0.00     0.240 C 
HETATM   22  N   UNL     1      27.263  42.370  49.039  1.00  0.00    -0.326 N 
HETATM   23  H   UNL     1      28.053  43.014  49.047  1.00  0.00     0.169 HD
HETATM   24  O   UNL     1      25.036  42.197  49.703  1.00  0.00    -0.271 OA
BRANCH  22  25
HETATM   25  C   UNL     1      27.516  41.096  48.488  1.00  0.00     0.034 A 
HETATM   26  C   UNL     1      28.354  40.241  49.213  1.00  0.00     0.030 A 
HETATM   27  C   UNL     1      28.719  38.992  48.698  1.00  0.00     0.009 A 
HETATM   28  C   UNL     1      28.267  38.586  47.440  1.00  0.00    -0.062 A 
HETATM   29  C   UNL     1      28.658  37.254  46.872  1.00  0.00     0.048 C 
HETATM   30  C   UNL     1      27.406  39.428  46.729  1.00  0.00     0.009 A 
HETATM   31  C   UNL     1      27.035  40.674  47.250  1.00  0.00     0.030 A 
ENDBRANCH  22  25
ENDBRANCH  20  21
ENDBRANCH   1  20
TORSDOF 3
ENDMDL
MODEL 8
REMARK VINA RESULT:      -9.3      2.041      3.116
REMARK  3 active torsions:
REMARK  status: ('A' for Active; 'I' for Inactive)
REMARK    1  A    between atoms: C_5  and  N_6 
REMARK       I    between atoms: N_6  and  C_7 
REMARK    2  A    between atoms: C_7  and  C_8 
REMARK    3  A    between atoms: C_8  and  N_9 
ROOT
HETATM    1  N   UNL     1      24.942  45.845  49.481  1.00  0.00    -0.256 N 
HETATM    2  C   UNL     1      25.612  47.032  49.668  1.00  0.00     0.330 A 
HETATM    3  O   UNL     1      26.780  47.186  49.976  1.00  0.00    -0.246 OA
HETATM    4  N   UNL     1      24.694  48.052  49.507  1.00  0.00    -0.303 N 
HETATM    5  C   UNL     1      23.438  47.554  49.267  1.00  0.00     0.122 A 
HETATM    6  C   UNL     1      22.331  48.300  49.152  1.00  0.00     0.077 A 
HETATM    7  C   UNL     1      22.418  49.792  49.373  1.00  0.00     0.259 A 
HETATM    8  O   UNL     1      23.420  50.449  49.589  1.00  0.00    -0.267 OA
HETATM    9  N   UNL     1      21.118  50.250  49.306  1.00  0.00    -0.322 N 
HETATM   10  C   UNL     1      20.913  47.993  48.912  1.00  0.00     0.009 A 
HETATM   11  C   UNL     1      20.232  49.214  49.033  1.00  0.00     0.046 A 
HETATM   12  C   UNL     1      18.865  49.338  48.877  1.00  0.00     0.030 A 
HETATM   13  C   UNL     1      18.149  48.183  48.569  1.00  0.00     0.002 A 
HETATM   14  C   UNL     1      18.813  46.953  48.420  1.00  0.00     0.001 A 
HETATM   15  C   UNL     1      20.201  46.853  48.590  1.00  0.00     0.015 A 
HETATM   16  C   UNL     1      23.611  46.066  49.236  1.00  0.00     0.280 A 
HETATM   17  O   UNL     1      22.766  45.207  49.055  1.00  0.00    -0.265 OA
HETATM   18  H   UNL     1      24.914  49.037  49.633  1.00  0.00     0.171 HD
HETATM   19  H   UNL     1      20.871  51.221  49.428  1.00  0.00     0.169 HD
ENDROOT
BRANCH   1  20
HETATM   20  C   UNL     1      25.518  44.551  49.774  1.00  0.00     0.240 C 
BRANCH  20  21
HETATM   21  C   UNL     1      26.029  44.405  51.208  1.00  0.00     0.240 C 
HETATM   22  N   UNL     1      27.411  44.449  51.304  1.00  0.00    -0.326 N 
HETATM   23  H   UNL     1      27.920  44.777  50.484  1.00  0.00     0.169 HD
HETATM   24  O   UNL     1      25.249  44.170  52.126  1.00  0.00    -0.271 OA
BRANCH  22  25
HETATM   25  C   UNL     1      28.207  44.031  52.391  1.00  0.00     0.034 A 
HETATM   26  C   UNL     1      28.011  44.682  53.615  1.00  0.00     0.030 A 
HETATM   27  C   UNL     1      28.814  44.382  54.721  1.00  0.00     0.009 A 
HETATM   28  C   UNL     1      29.840  43.439  54.616  1.00  0.00    -0.062 A 
HETATM   29  C   UNL     1      30.714  43.115  55.791  1.00  0.00     0.048 C 
HETATM   30  C   UNL     1      30.016  42.767  53.402  1.00  0.00     0.009 A 
HETATM   31  C   UNL     1      29.206  43.062  52.298  1.00  0.00     0.030 A 
ENDBRANCH  22  25
ENDBRANCH  20  21
ENDBRANCH   1  20
TORSDOF 3
ENDMDL
MODEL 9
REMARK VINA RESULT:      -9.3      2.622      9.125
REMARK  3 active torsions:
REMARK  status: ('A' for Active; 'I' for Inactive)
REMARK    1  A    between atoms: C_5  and  N_6 
REMARK       I    between atoms: N_6  and  C_7 
REMARK    2  A    between atoms: C_7  and  C_8 
REMARK    3  A    between atoms: C_8  and  N_9 
ROOT
HETATM    1  N   UNL     1      25.590  46.700  50.744  1.00  0.00    -0.256 N 
HETATM    2  C   UNL     1      25.574  46.756  52.119  1.00  0.00     0.330 A 
HETATM    3  O   UNL     1      25.317  47.719  52.821  1.00  0.00    -0.246 OA
HETATM    4  N   UNL     1      25.973  45.519  52.586  1.00  0.00    -0.303 N 
HETATM    5  C   UNL     1      26.293  44.678  51.549  1.00  0.00     0.122 A 
HETATM    6  C   UNL     1      26.791  43.443  51.696  1.00  0.00     0.077 A 
HETATM    7  C   UNL     1      27.110  42.933  53.082  1.00  0.00     0.259 A 
HETATM    8  O   UNL     1      26.904  43.497  54.141  1.00  0.00    -0.267 OA
HETATM    9  N   UNL     1      27.707  41.703  52.893  1.00  0.00    -0.322 N 
HETATM   10  C   UNL     1      27.207  42.392  50.755  1.00  0.00     0.009 A 
HETATM   11  C   UNL     1      27.766  41.374  51.543  1.00  0.00     0.046 A 
HETATM   12  C   UNL     1      28.280  40.205  51.017  1.00  0.00     0.030 A 
HETATM   13  C   UNL     1      28.215  40.043  49.635  1.00  0.00     0.002 A 
HETATM   14  C   UNL     1      27.638  41.038  48.828  1.00  0.00     0.001 A 
HETATM   15  C   UNL     1      27.129  42.219  49.386  1.00  0.00     0.015 A 
HETATM   16  C   UNL     1      26.021  45.473  50.309  1.00  0.00     0.280 A 
HETATM   17  O   UNL     1      26.160  45.136  49.146  1.00  0.00    -0.265 OA
HETATM   18  H   UNL     1      26.091  45.297  53.572  1.00  0.00     0.171 HD
HETATM   19  H   UNL     1      28.037  41.130  53.655  1.00  0.00     0.169 HD
ENDROOT
BRANCH   1  20
HETATM   20  C   UNL     1      25.436  47.863  49.897  1.00  0.00     0.240 C 
BRANCH  20  21
HETATM   21  C   UNL     1      24.002  48.105  49.425  1.00  0.00     0.240 C 
HETATM   22  N   UNL     1      23.734  49.438  49.152  1.00  0.00    -0.326 N 
HETATM   23  H   UNL     1      24.535  50.065  49.083  1.00  0.00     0.169 HD
HETATM   24  O   UNL     1      23.187  47.187  49.411  1.00  0.00    -0.271 OA
BRANCH  22  25
HETATM   25  C   UNL     1      22.468  50.046  49.019  1.00  0.00     0.034 A 
HETATM   26  C   UNL     1      21.894  50.054  47.742  1.00  0.00     0.030 A 
HETATM   27  C   UNL     1      20.678  50.707  47.509  1.00  0.00     0.009 A 
HETATM   28  C   UNL     1      20.025  51.378  48.546  1.00  0.00    -0.062 A 
HETATM   29  C   UNL     1      18.726  52.090  48.309  1.00  0.00     0.048 C 
HETATM   30  C   UNL     1      20.583  51.344  49.828  1.00  0.00     0.009 A 
HETATM   31  C   UNL     1      21.796  50.683  50.062  1.00  0.00     0.030 A 
ENDBRANCH  22  25
ENDBRANCH  20  21
ENDBRANCH   1  20
TORSDOF 3
ENDMDL
MODEL 10
REMARK VINA RESULT:      -9.1      1.701      8.182
REMARK  3 active torsions:
REMARK  status: ('A' for Active; 'I' for Inactive)
REMARK    1  A    between atoms: C_5  and  N_6 
REMARK       I    between atoms: N_6  and  C_7 
REMARK    2  A    between atoms: C_7  and  C_8 
REMARK    3  A    between atoms: C_8  and  N_9 
ROOT
HETATM    1  N   UNL     1      24.087  42.766  50.335  1.00  0.00    -0.256 N 
HETATM    2  C   UNL     1      24.642  41.761  49.577  1.00  0.00     0.330 A 
HETATM    3  O   UNL     1      24.099  41.096  48.712  1.00  0.00    -0.246 OA
HETATM    4  N   UNL     1      25.939  41.580  50.019  1.00  0.00    -0.303 N 
HETATM    5  C   UNL     1      26.222  42.410  51.074  1.00  0.00     0.122 A 
HETATM    6  C   UNL     1      27.371  42.401  51.763  1.00  0.00     0.077 A 
HETATM    7  C   UNL     1      28.423  41.368  51.435  1.00  0.00     0.259 A 
HETATM    8  O   UNL     1      28.392  40.542  50.541  1.00  0.00    -0.267 OA
HETATM    9  N   UNL     1      29.415  41.541  52.379  1.00  0.00    -0.322 N 
HETATM   10  C   UNL     1      27.880  43.171  52.908  1.00  0.00     0.009 A 
HETATM   11  C   UNL     1      29.113  42.590  53.240  1.00  0.00     0.046 A 
HETATM   12  C   UNL     1      29.907  43.038  54.278  1.00  0.00     0.030 A 
HETATM   13  C   UNL     1      29.448  44.132  55.008  1.00  0.00     0.002 A 
HETATM   14  C   UNL     1      28.227  44.745  54.679  1.00  0.00     0.001 A 
HETATM   15  C   UNL     1      27.437  44.267  53.624  1.00  0.00     0.015 A 
HETATM   16  C   UNL     1      24.976  43.217  51.277  1.00  0.00     0.280 A 
HETATM   17  O   UNL     1      24.760  44.085  52.104  1.00  0.00    -0.265 OA
HETATM   18  H   UNL     1      26.565  40.866  49.656  1.00  0.00     0.171 HD
HETATM   19  H   UNL     1      30.248  40.973  52.410  1.00  0.00     0.169 HD
ENDROOT
BRANCH   1  20
HETATM   20  C   UNL     1      22.679  43.097  50.312  1.00  0.00     0.240 C 
BRANCH  20  21
HETATM   21  C   UNL     1      22.335  44.300  49.432  1.00  0.00     0.240 C 
HETATM   22  N   UNL     1      23.311  45.285  49.448  1.00  0.00    -0.326 N 
HETATM   23  H   UNL     1      24.215  45.033  49.846  1.00  0.00     0.169 HD
HETATM   24  O   UNL     1      21.243  44.374  48.877  1.00  0.00    -0.271 OA
BRANCH  22  25
HETATM   25  C   UNL     1      23.178  46.626  49.029  1.00  0.00     0.034 A 
HETATM   26  C   UNL     1      24.069  47.558  49.575  1.00  0.00     0.030 A 
HETATM   27  C   UNL     1      23.953  48.919  49.274  1.00  0.00     0.009 A 
HETATM   28  C   UNL     1      22.931  49.374  48.435  1.00  0.00    -0.062 A 
HETATM   29  C   UNL     1      22.790  50.832  48.111  1.00  0.00     0.048 C 
HETATM   30  C   UNL     1      22.061  48.440  47.866  1.00  0.00     0.009 A 
HETATM   31  C   UNL     1      22.183  47.076  48.161  1.00  0.00     0.030 A 
ENDBRANCH  22  25
ENDBRANCH  20  21
ENDBRANCH   1  20
TORSDOF 3
ENDMDL
