MODEL 1
REMARK VINA RESULT:      -8.7      0.000      0.000
REMARK  7 active torsions:
REMARK  status: ('A' for Active; 'I' for Inactive)
REMARK    1  A    between atoms: C_2  and  C_3 
REMARK    2  A    between atoms: C_3  and  C_4 
REMARK    3  A    between atoms: C_8  and  C_9 
REMARK       I    between atoms: C_9  and  N_10 
REMARK    4  A    between atoms: N_10  and  C_11 
REMARK    5  A    between atoms: C_11  and  C_12 
REMARK    6  A    between atoms: C_12  and  N_13 
REMARK    7  A    between atoms: C_16  and  C_17 
ROOT
HETATM    1  C   UNL     1      26.368  46.781  49.920  1.00  0.00     0.150 C 
ENDROOT
BRANCH   1   2
HETATM    2  N   UNL     1      25.385  47.849  49.798  1.00  0.00    -0.354 N 
HETATM    3  C   UNL     1      25.461  48.837  48.832  1.00  0.00     0.272 C 
HETATM    4  O   UNL     1      26.517  49.110  48.271  1.00  0.00    -0.266 OA
HETATM    5  H   UNL     1      24.419  47.667  50.083  1.00  0.00     0.162 HD
BRANCH   3   6
HETATM    6  C   UNL     1      24.204  49.565  48.632  1.00  0.00     0.146 A 
HETATM    7  N   UNL     1      23.898  50.105  47.435  1.00  0.00    -0.169 NA
HETATM    8  N   UNL     1      22.686  50.661  47.631  1.00  0.00    -0.282 N 
HETATM    9  C   UNL     1      22.205  50.493  48.900  1.00  0.00     0.030 A 
HETATM   10  H   UNL     1      22.239  51.139  46.853  1.00  0.00     0.189 HD
HETATM   11  C   UNL     1      23.175  49.787  49.575  1.00  0.00     0.065 A 
BRANCH   9  12
HETATM   12  C   UNL     1      20.881  51.023  49.332  1.00  0.00     0.058 C 
BRANCH  12  13
HETATM   13  C   UNL     1      20.099  51.601  48.151  1.00  0.00     0.002 C 
HETATM   14  C   UNL     1      18.885  52.387  48.619  1.00  0.00     0.005 C 
ENDBRANCH  12  13
ENDBRANCH   9  12
ENDBRANCH   3   6
ENDBRANCH   1   2
BRANCH   1  15
HETATM   15  C   UNL     1      25.820  45.355  49.712  1.00  0.00     0.254 C 
BRANCH  15  16
HETATM   16  N   UNL     1      25.974  44.534  50.965  1.00  0.00    -0.069 N 
HETATM   17  H   UNL     1      25.680  43.586  50.683  1.00  0.00     0.280 HD
HETATM   18  C   UNL     1      27.367  44.415  51.528  1.00  0.00     0.244 C 
HETATM   19  C   UNL     1      27.102  43.944  52.956  1.00  0.00     0.046 C 
HETATM   20  C   UNL     1      25.903  44.797  53.364  1.00  0.00     0.039 C 
HETATM   21  C   UNL     1      25.058  44.922  52.102  1.00  0.00     0.235 C 
BRANCH  19  22
HETATM   22  C   UNL     1      28.271  44.043  53.912  1.00  0.00    -0.046 A 
HETATM   23  C   UNL     1      29.227  43.006  54.018  1.00  0.00    -0.055 A 
HETATM   24  C   UNL     1      29.153  41.745  53.195  1.00  0.00     0.049 C 
HETATM   25  C   UNL     1      30.300  43.141  54.916  1.00  0.00     0.007 A 
HETATM   26  C   UNL     1      30.426  44.272  55.718  1.00  0.00     0.001 A 
HETATM   27  C   UNL     1      29.479  45.284  55.638  1.00  0.00     0.001 A 
HETATM   28  C   UNL     1      28.411  45.169  54.748  1.00  0.00     0.008 A 
ENDBRANCH  19  22
ENDBRANCH  15  16
ENDBRANCH   1  15
TORSDOF 7
ENDMDL
MODEL 2
REMARK VINA RESULT:      -8.6      2.248      3.845
REMARK  7 active torsions:
REMARK  status: ('A' for Active; 'I' for Inactive)
REMARK    1  A    between atoms: C_2  and  C_3 
REMARK    2  A    between atoms: C_3  and  C_4 
REMARK    3  A    between atoms: C_8  and  C_9 
REMARK       I    between atoms: C_9  and  N_10 
REMARK    4  A    between atoms: N_10  and  C_11 
REMARK    5  A    between atoms: C_11  and  C_12 
REMARK    6  A    between atoms: C_12  and  N_13 
REMARK    7  A    between atoms: C_16  and  C_17 
ROOT
HETATM    1  C   UNL     1      25.929  42.603  51.049  1.00  0.00     0.150 C 
ENDROOT
BRANCH   1   2
HETATM    2  N   UNL     1      25.672  44.034  50.975  1.00  0.00    -0.354 N 
HETATM    3  C   UNL     1      26.405  44.892  50.175  1.00  0.00     0.272 C 
HETATM    4  O   UNL     1      27.528  44.600  49.776  1.00  0.00    -0.266 OA
HETATM    5  H   UNL     1      24.717  44.373  51.125  1.00  0.00     0.162 HD
BRANCH   3   6
HETATM    6  C   UNL     1      25.755  46.186  49.946  1.00  0.00     0.146 A 
HETATM    7  N   UNL     1      26.481  47.286  49.664  1.00  0.00    -0.169 NA
HETATM    8  N   UNL     1      25.554  48.253  49.504  1.00  0.00    -0.282 N 
HETATM    9  C   UNL     1      24.271  47.813  49.667  1.00  0.00     0.030 A 
HETATM   10  H   UNL     1      25.867  49.194  49.280  1.00  0.00     0.189 HD
HETATM   11  C   UNL     1      24.371  46.472  49.961  1.00  0.00     0.065 A 
BRANCH   9  12
HETATM   12  C   UNL     1      23.091  48.713  49.529  1.00  0.00     0.058 C 
BRANCH  12  13
HETATM   13  C   UNL     1      22.769  48.991  48.060  1.00  0.00     0.002 C 
HETATM   14  C   UNL     1      22.995  50.452  47.708  1.00  0.00     0.005 C 
ENDBRANCH  12  13
ENDBRANCH   9  12
ENDBRANCH   3   6
ENDBRANCH   1   2
BRANCH   1  15
HETATM   15  C   UNL     1      26.668  42.132  52.319  1.00  0.00     0.254 C 
BRANCH  15  16
HETATM   16  N   UNL     1      27.854  43.016  52.607  1.00  0.00    -0.069 N 
HETATM   17  H   UNL     1      27.693  43.850  52.023  1.00  0.00     0.280 HD
HETATM   18  C   UNL     1      28.009  43.494  54.028  1.00  0.00     0.244 C 
HETATM   19  C   UNL     1      29.468  43.943  54.062  1.00  0.00     0.046 C 
HETATM   20  C   UNL     1      30.168  42.839  53.272  1.00  0.00     0.039 C 
HETATM   21  C   UNL     1      29.188  42.461  52.167  1.00  0.00     0.235 C 
BRANCH  19  22
HETATM   22  C   UNL     1      30.058  44.172  55.437  1.00  0.00    -0.046 A 
HETATM   23  C   UNL     1      29.759  45.336  56.183  1.00  0.00    -0.055 A 
HETATM   24  C   UNL     1      28.841  46.416  55.671  1.00  0.00     0.049 C 
HETATM   25  C   UNL     1      30.325  45.506  57.458  1.00  0.00     0.007 A 
HETATM   26  C   UNL     1      31.192  44.556  57.991  1.00  0.00     0.001 A 
HETATM   27  C   UNL     1      31.509  43.422  57.256  1.00  0.00     0.001 A 
HETATM   28  C   UNL     1      30.952  43.234  55.991  1.00  0.00     0.008 A 
ENDBRANCH  19  22
ENDBRANCH  15  16
ENDBRANCH   1  15
TORSDOF 7
ENDMDL
MODEL 3
REMARK VINA RESULT:      -8.5      1.470      1.616
REMARK  7 active torsions:
REMARK  status: ('A' for Active; 'I' for Inactive)
REMARK    1  A    between atoms: C_2  and  C_3 
REMARK    2  A    between atoms: C_3  and  C_4 
REMARK    3  A    between atoms: C_8  and  C_9 
REMARK       I    between atoms: C_9  and  N_10 
REMARK    4  A    between atoms: N_10  and  C_11 
REMARK    5  A    between atoms: C_11  and  C_12 
REMARK    6  A    between atoms: C_12  and  N_13 
REMARK    7  A    between atoms: C_16  and  C_17 
ROOT
HETATM    1  C   UNL     1      26.352  45.676  49.710  1.00  0.00     0.150 C 
ENDROOT
BRANCH   1   2
HETATM    2  N   UNL     1      25.064  46.291  49.416  1.00  0.00    -0.354 N 
HETATM    3  C   UNL     1      24.545  47.342  50.151  1.00  0.00     0.272 C 
HETATM    4  O   UNL     1      24.925  47.580  51.293  1.00  0.00    -0.266 OA
HETATM    5  H   UNL     1      24.729  46.298  48.449  1.00  0.00     0.162 HD
BRANCH   3   6
HETATM    6  C   UNL     1      23.458  48.055  49.474  1.00  0.00     0.146 A 
HETATM    7  N   UNL     1      22.426  47.384  48.924  1.00  0.00    -0.169 NA
HETATM    8  N   UNL     1      21.638  48.356  48.422  1.00  0.00    -0.282 N 
HETATM    9  C   UNL     1      22.121  49.617  48.635  1.00  0.00     0.030 A 
HETATM   10  H   UNL     1      20.779  48.090  47.948  1.00  0.00     0.189 HD
HETATM   11  C   UNL     1      23.308  49.451  49.312  1.00  0.00     0.065 A 
BRANCH   9  12
HETATM   12  C   UNL     1      21.407  50.838  48.169  1.00  0.00     0.058 C 
BRANCH  12  13
HETATM   13  C   UNL     1      20.261  51.209  49.112  1.00  0.00     0.002 C 
HETATM   14  C   UNL     1      19.392  52.309  48.526  1.00  0.00     0.005 C 
ENDBRANCH  12  13
ENDBRANCH   9  12
ENDBRANCH   3   6
ENDBRANCH   1   2
BRANCH   1  15
HETATM   15  C   UNL     1      26.349  44.135  49.761  1.00  0.00     0.254 C 
BRANCH  15  16
HETATM   16  N   UNL     1      26.513  43.646  51.177  1.00  0.00    -0.069 N 
HETATM   17  H   UNL     1      26.555  42.619  51.085  1.00  0.00     0.280 HD
HETATM   18  C   UNL     1      27.764  44.076  51.899  1.00  0.00     0.244 C 
HETATM   19  C   UNL     1      27.404  43.813  53.359  1.00  0.00     0.046 C 
HETATM   20  C   UNL     1      25.960  44.305  53.432  1.00  0.00     0.039 C 
HETATM   21  C   UNL     1      25.343  43.925  52.091  1.00  0.00     0.235 C 
BRANCH  19  22
HETATM   22  C   UNL     1      28.314  44.447  54.389  1.00  0.00    -0.046 A 
HETATM   23  C   UNL     1      29.557  43.866  54.731  1.00  0.00    -0.055 A 
HETATM   24  C   UNL     1      30.061  42.593  54.099  1.00  0.00     0.049 C 
HETATM   25  C   UNL     1      30.373  44.491  55.690  1.00  0.00     0.007 A 
HETATM   26  C   UNL     1      29.968  45.662  56.324  1.00  0.00     0.001 A 
HETATM   27  C   UNL     1      28.738  46.225  56.012  1.00  0.00     0.001 A 
HETATM   28  C   UNL     1      27.918  45.622  55.059  1.00  0.00     0.008 A 
ENDBRANCH  19  22
ENDBRANCH  15  16
ENDBRANCH   1  15
TORSDOF 7
ENDMDL
MODEL 4
REMARK VINA RESULT:      -8.2      1.386      2.118
REMARK  7 active torsions:
REMARK  status: ('A' for Active; 'I' for Inactive)
REMARK    1  A    between atoms: C_2  and  C_3 
REMARK    2  A    between atoms: C_3  and  C_4 
REMARK    3  A    between atoms: C_8  and  C_9 
REMARK       I    between atoms: C_9  and  N_10 
REMARK    4  A    between atoms: N_10  and  C_11 
REMARK    5  A    between atoms: C_11  and  C_12 
REMARK    6  A    between atoms: C_12  and  N_13 
REMARK    7  A    between atoms: C_16  and  C_17 
ROOT
HETATM    1  C   UNL     1      24.606  46.323  50.008  1.00  0.00     0.150 C 
ENDROOT
BRANCH   1   2
HETATM    2  N   UNL     1      23.726  47.482  50.070  1.00  0.00    -0.354 N 
HETATM    3  C   UNL     1      23.966  48.648  49.365  1.00  0.00     0.272 C 
HETATM    4  O   UNL     1      25.085  48.934  48.952  1.00  0.00    -0.266 OA
HETATM    5  H   UNL     1      22.728  47.336  50.241  1.00  0.00     0.162 HD
BRANCH   3   6
HETATM    6  C   UNL     1      22.793  49.522  49.255  1.00  0.00     0.146 A 
HETATM    7  N   UNL     1      22.644  50.587  50.068  1.00  0.00    -0.169 NA
HETATM    8  N   UNL     1      21.484  51.142  49.664  1.00  0.00    -0.282 N 
HETATM    9  C   UNL     1      20.893  50.480  48.624  1.00  0.00     0.030 A 
HETATM   10  H   UNL     1      21.153  51.978  50.138  1.00  0.00     0.189 HD
HETATM   11  C   UNL     1      21.720  49.417  48.341  1.00  0.00     0.065 A 
BRANCH   9  12
HETATM   12  C   UNL     1      19.606  50.925  48.018  1.00  0.00     0.058 C 
BRANCH  12  13
HETATM   13  C   UNL     1      19.249  52.349  48.450  1.00  0.00     0.002 C 
HETATM   14  C   UNL     1      18.099  52.356  49.444  1.00  0.00     0.005 C 
ENDBRANCH  12  13
ENDBRANCH   9  12
ENDBRANCH   3   6
ENDBRANCH   1   2
BRANCH   1  15
HETATM   15  C   UNL     1      24.262  45.183  50.989  1.00  0.00     0.254 C 
BRANCH  15  16
HETATM   16  N   UNL     1      24.969  45.377  52.305  1.00  0.00    -0.069 N 
HETATM   17  H   UNL     1      24.218  45.300  53.008  1.00  0.00     0.280 HD
HETATM   18  C   UNL     1      26.017  44.356  52.665  1.00  0.00     0.244 C 
HETATM   19  C   UNL     1      26.806  45.072  53.759  1.00  0.00     0.046 C 
HETATM   20  C   UNL     1      26.908  46.493  53.210  1.00  0.00     0.039 C 
HETATM   21  C   UNL     1      25.579  46.744  52.509  1.00  0.00     0.235 C 
BRANCH  19  22
HETATM   22  C   UNL     1      28.145  44.461  54.116  1.00  0.00    -0.046 A 
HETATM   23  C   UNL     1      28.883  44.908  55.237  1.00  0.00    -0.055 A 
HETATM   24  C   UNL     1      28.395  46.005  56.147  1.00  0.00     0.049 C 
HETATM   25  C   UNL     1      30.120  44.310  55.534  1.00  0.00     0.007 A 
HETATM   26  C   UNL     1      30.640  43.299  54.731  1.00  0.00     0.001 A 
HETATM   27  C   UNL     1      29.933  42.872  53.615  1.00  0.00     0.001 A 
HETATM   28  C   UNL     1      28.701  43.450  53.308  1.00  0.00     0.008 A 
ENDBRANCH  19  22
ENDBRANCH  15  16
ENDBRANCH   1  15
TORSDOF 7
ENDMDL
MODEL 5
REMARK VINA RESULT:      -8.2      2.161     10.396
REMARK  7 active torsions:
REMARK  status: ('A' for Active; 'I' for Inactive)
REMARK    1  A    between atoms: C_2  and  C_3 
REMARK    2  A    between atoms: C_3  and  C_4 
REMARK    3  A    between atoms: C_8  and  C_9 
REMARK       I    between atoms: C_9  and  N_10 
REMARK    4  A    between atoms: N_10  and  C_11 
REMARK    5  A    between atoms: C_11  and  C_12 
REMARK    6  A    between atoms: C_12  and  N_13 
REMARK    7  A    between atoms: C_16  and  C_17 
ROOT
HETATM    1  C   UNL     1      24.116  46.653  50.036  1.00  0.00     0.150 C 
ENDROOT
BRANCH   1   2
HETATM    2  N   UNL     1      24.639  46.047  51.252  1.00  0.00    -0.354 N 
HETATM    3  C   UNL     1      24.449  44.714  51.572  1.00  0.00     0.272 C 
HETATM    4  O   UNL     1      23.540  44.055  51.077  1.00  0.00    -0.266 OA
HETATM    5  H   UNL     1      25.502  46.418  51.658  1.00  0.00     0.162 HD
BRANCH   3   6
HETATM    6  C   UNL     1      25.362  44.221  52.608  1.00  0.00     0.146 A 
HETATM    7  N   UNL     1      24.976  44.155  53.899  1.00  0.00    -0.169 NA
HETATM    8  N   UNL     1      26.052  43.648  54.533  1.00  0.00    -0.282 N 
HETATM    9  C   UNL     1      27.102  43.381  53.700  1.00  0.00     0.030 A 
HETATM   10  H   UNL     1      26.000  43.503  55.538  1.00  0.00     0.189 HD
HETATM   11  C   UNL     1      26.684  43.749  52.442  1.00  0.00     0.065 A 
BRANCH   9  12
HETATM   12  C   UNL     1      28.388  42.809  54.191  1.00  0.00     0.058 C 
BRANCH  12  13
HETATM   13  C   UNL     1      29.379  43.911  54.572  1.00  0.00     0.002 C 
HETATM   14  C   UNL     1      30.561  43.352  55.348  1.00  0.00     0.005 C 
ENDBRANCH  12  13
ENDBRANCH   9  12
ENDBRANCH   3   6
ENDBRANCH   1   2
BRANCH   1  15
HETATM   15  C   UNL     1      24.736  48.015  49.659  1.00  0.00     0.254 C 
BRANCH  15  16
HETATM   16  N   UNL     1      23.942  48.680  48.565  1.00  0.00    -0.069 N 
HETATM   17  H   UNL     1      24.098  48.079  47.741  1.00  0.00     0.280 HD
HETATM   18  C   UNL     1      22.452  48.770  48.771  1.00  0.00     0.244 C 
HETATM   19  C   UNL     1      22.050  49.845  47.764  1.00  0.00     0.046 C 
HETATM   20  C   UNL     1      23.169  50.873  47.919  1.00  0.00     0.039 C 
HETATM   21  C   UNL     1      24.429  50.053  48.165  1.00  0.00     0.235 C 
BRANCH  19  22
HETATM   22  C   UNL     1      20.663  50.427  47.937  1.00  0.00    -0.046 A 
HETATM   23  C   UNL     1      19.515  49.748  47.465  1.00  0.00    -0.055 A 
HETATM   24  C   UNL     1      19.588  48.413  46.768  1.00  0.00     0.049 C 
HETATM   25  C   UNL     1      18.246  50.323  47.650  1.00  0.00     0.007 A 
HETATM   26  C   UNL     1      18.101  51.559  48.274  1.00  0.00     0.001 A 
HETATM   27  C   UNL     1      19.224  52.243  48.718  1.00  0.00     0.001 A 
HETATM   28  C   UNL     1      20.492  51.685  48.548  1.00  0.00     0.008 A 
ENDBRANCH  19  22
ENDBRANCH  15  16
ENDBRANCH   1  15
TORSDOF 7
ENDMDL
MODEL 6
REMARK VINA RESULT:      -8.1      2.413     10.169
REMARK  7 active torsions:
REMARK  status: ('A' for Active; 'I' for Inactive)
REMARK    1  A    between atoms: C_2  and  C_3 
REMARK    2  A    between atoms: C_3  and  C_4 
REMARK    3  A    between atoms: C_8  and  C_9 
REMARK       I    between atoms: C_9  and  N_10 
REMARK    4  A    between atoms: N_10  and  C_11 
REMARK    5  A    between atoms: C_11  and  C_12 
REMARK    6  A    between atoms: C_12  and  N_13 
REMARK    7  A    between atoms: C_16  and  C_17 
ROOT
HETATM    1  C   UNL     1      25.199  46.974  51.267  1.00  0.00     0.150 C 
ENDROOT
BRANCH   1   2
HETATM    2  N   UNL     1      25.805  46.754  52.573  1.00  0.00    -0.354 N 
HETATM    3  C   UNL     1      26.580  45.646  52.867  1.00  0.00     0.272 C 
HETATM    4  O   UNL     1      26.508  44.615  52.207  1.00  0.00    -0.266 OA
HETATM    5  H   UNL     1      26.066  47.565  53.141  1.00  0.00     0.162 HD
BRANCH   3   6
HETATM    6  C   UNL     1      27.398  45.803  54.074  1.00  0.00     0.146 A 
HETATM    7  N   UNL     1      27.171  46.811  54.940  1.00  0.00    -0.169 NA
HETATM    8  N   UNL     1      28.088  46.619  55.908  1.00  0.00    -0.282 N 
HETATM    9  C   UNL     1      28.885  45.528  55.699  1.00  0.00     0.030 A 
HETATM   10  H   UNL     1      28.114  47.269  56.690  1.00  0.00     0.189 HD
HETATM   11  C   UNL     1      28.463  44.981  54.509  1.00  0.00     0.065 A 
BRANCH   9  12
HETATM   12  C   UNL     1      29.962  45.128  56.649  1.00  0.00     0.058 C 
BRANCH  12  13
HETATM   13  C   UNL     1      30.911  44.107  56.019  1.00  0.00     0.002 C 
HETATM   14  C   UNL     1      31.761  43.415  57.072  1.00  0.00     0.005 C 
ENDBRANCH  12  13
ENDBRANCH   9  12
ENDBRANCH   3   6
ENDBRANCH   1   2
BRANCH   1  15
HETATM   15  C   UNL     1      25.971  47.932  50.337  1.00  0.00     0.254 C 
BRANCH  15  16
HETATM   16  N   UNL     1      25.142  48.290  49.130  1.00  0.00    -0.069 N 
HETATM   17  H   UNL     1      25.281  47.496  48.486  1.00  0.00     0.280 HD
HETATM   18  C   UNL     1      23.657  48.428  49.348  1.00  0.00     0.244 C 
HETATM   19  C   UNL     1      23.218  49.204  48.108  1.00  0.00     0.046 C 
HETATM   20  C   UNL     1      24.331  50.239  47.961  1.00  0.00     0.039 C 
HETATM   21  C   UNL     1      25.605  49.513  48.375  1.00  0.00     0.235 C 
BRANCH  19  22
HETATM   22  C   UNL     1      21.831  49.808  48.164  1.00  0.00    -0.046 A 
HETATM   23  C   UNL     1      20.699  49.096  47.703  1.00  0.00    -0.055 A 
HETATM   24  C   UNL     1      20.789  47.703  47.136  1.00  0.00     0.049 C 
HETATM   25  C   UNL     1      19.428  49.693  47.778  1.00  0.00     0.007 A 
HETATM   26  C   UNL     1      19.269  50.982  48.279  1.00  0.00     0.001 A 
HETATM   27  C   UNL     1      20.378  51.697  48.710  1.00  0.00     0.001 A 
HETATM   28  C   UNL     1      21.646  51.118  48.650  1.00  0.00     0.008 A 
ENDBRANCH  19  22
ENDBRANCH  15  16
ENDBRANCH   1  15
TORSDOF 7
ENDMDL
MODEL 7
REMARK VINA RESULT:      -7.8      2.407      3.506
REMARK  7 active torsions:
REMARK  status: ('A' for Active; 'I' for Inactive)
REMARK    1  A    between atoms: C_2  and  C_3 
REMARK    2  A    between atoms: C_3  and  C_4 
REMARK    3  A    between atoms: C_8  and  C_9 
REMARK       I    between atoms: C_9  and  N_10 
REMARK    4  A    between atoms: N_10  and  C_11 
REMARK    5  A    between atoms: C_11  and  C_12 
REMARK    6  A    between atoms: C_12  and  N_13 
REMARK    7  A    between atoms: C_16  and  C_17 
ROOT
HETATM    1  C   UNL     1      22.065  45.209  48.809  1.00  0.00     0.150 C 
ENDROOT
BRANCH   1   2
HETATM    2  N   UNL     1      21.632  46.570  49.095  1.00  0.00    -0.354 N 
HETATM    3  C   UNL     1      21.586  47.565  48.134  1.00  0.00     0.272 C 
HETATM    4  O   UNL     1      22.242  47.492  47.099  1.00  0.00    -0.266 OA
HETATM    5  H   UNL     1      20.945  46.725  49.838  1.00  0.00     0.162 HD
BRANCH   3   6
HETATM    6  C   UNL     1      20.772  48.721  48.520  1.00  0.00     0.146 A 
HETATM    7  N   UNL     1      19.838  48.619  49.487  1.00  0.00    -0.169 NA
HETATM    8  N   UNL     1      19.322  49.862  49.571  1.00  0.00    -0.282 N 
HETATM    9  C   UNL     1      19.892  50.751  48.703  1.00  0.00     0.030 A 
HETATM   10  H   UNL     1      18.583  50.038  50.247  1.00  0.00     0.189 HD
HETATM   11  C   UNL     1      20.836  50.035  48.002  1.00  0.00     0.065 A 
BRANCH   9  12
HETATM   12  C   UNL     1      19.477  52.180  48.632  1.00  0.00     0.058 C 
BRANCH  12  13
HETATM   13  C   UNL     1      17.961  52.314  48.482  1.00  0.00     0.002 C 
HETATM   14  C   UNL     1      17.311  52.773  49.777  1.00  0.00     0.005 C 
ENDBRANCH  12  13
ENDBRANCH   9  12
ENDBRANCH   3   6
ENDBRANCH   1   2
BRANCH   1  15
HETATM   15  C   UNL     1      23.545  44.910  49.126  1.00  0.00     0.254 C 
BRANCH  15  16
HETATM   16  N   UNL     1      24.031  45.762  50.270  1.00  0.00    -0.069 N 
HETATM   17  H   UNL     1      23.170  46.179  50.657  1.00  0.00     0.280 HD
HETATM   18  C   UNL     1      24.722  45.045  51.400  1.00  0.00     0.244 C 
HETATM   19  C   UNL     1      25.451  46.184  52.111  1.00  0.00     0.046 C 
HETATM   20  C   UNL     1      25.987  47.006  50.941  1.00  0.00     0.039 C 
HETATM   21  C   UNL     1      24.904  46.929  49.872  1.00  0.00     0.235 C 
BRANCH  19  22
HETATM   22  C   UNL     1      26.517  45.769  53.101  1.00  0.00    -0.046 A 
HETATM   23  C   UNL     1      26.814  46.557  54.238  1.00  0.00    -0.055 A 
HETATM   24  C   UNL     1      26.096  47.846  54.543  1.00  0.00     0.049 C 
HETATM   25  C   UNL     1      27.810  46.132  55.134  1.00  0.00     0.007 A 
HETATM   26  C   UNL     1      28.524  44.958  54.910  1.00  0.00     0.001 A 
HETATM   27  C   UNL     1      28.256  44.192  53.784  1.00  0.00     0.001 A 
HETATM   28  C   UNL     1      27.267  44.594  52.887  1.00  0.00     0.008 A 
ENDBRANCH  19  22
ENDBRANCH  15  16
ENDBRANCH   1  15
TORSDOF 7
ENDMDL
MODEL 8
REMARK VINA RESULT:      -7.8      2.062      2.530
REMARK  7 active torsions:
REMARK  status: ('A' for Active; 'I' for Inactive)
REMARK    1  A    between atoms: C_2  and  C_3 
REMARK    2  A    between atoms: C_3  and  C_4 
REMARK    3  A    between atoms: C_8  and  C_9 
REMARK       I    between atoms: C_9  and  N_10 
REMARK    4  A    between atoms: N_10  and  C_11 
REMARK    5  A    between atoms: C_11  and  C_12 
REMARK    6  A    between atoms: C_12  and  N_13 
REMARK    7  A    between atoms: C_16  and  C_17 
ROOT
HETATM    1  C   UNL     1      25.627  43.585  49.253  1.00  0.00     0.150 C 
ENDROOT
BRANCH   1   2
HETATM    2  N   UNL     1      24.934  44.803  48.856  1.00  0.00    -0.354 N 
HETATM    3  C   UNL     1      23.649  45.109  49.269  1.00  0.00     0.272 C 
HETATM    4  O   UNL     1      22.877  44.243  49.669  1.00  0.00    -0.266 OA
HETATM    5  H   UNL     1      25.485  45.644  48.663  1.00  0.00     0.162 HD
BRANCH   3   6
HETATM    6  C   UNL     1      23.292  46.519  49.089  1.00  0.00     0.146 A 
HETATM    7  N   UNL     1      24.043  47.499  49.632  1.00  0.00    -0.169 NA
HETATM    8  N   UNL     1      23.425  48.633  49.244  1.00  0.00    -0.282 N 
HETATM    9  C   UNL     1      22.318  48.416  48.473  1.00  0.00     0.030 A 
HETATM   10  H   UNL     1      23.816  49.524  49.538  1.00  0.00     0.189 HD
HETATM   11  C   UNL     1      22.204  47.049  48.360  1.00  0.00     0.065 A 
BRANCH   9  12
HETATM   12  C   UNL     1      21.488  49.529  47.931  1.00  0.00     0.058 C 
BRANCH  12  13
HETATM   13  C   UNL     1      21.341  50.662  48.949  1.00  0.00     0.002 C 
HETATM   14  C   UNL     1      20.310  51.684  48.498  1.00  0.00     0.005 C 
ENDBRANCH  12  13
ENDBRANCH   9  12
ENDBRANCH   3   6
ENDBRANCH   1   2
BRANCH   1  15
HETATM   15  C   UNL     1      27.033  43.793  49.851  1.00  0.00     0.254 C 
BRANCH  15  16
HETATM   16  N   UNL     1      27.067  43.377  51.299  1.00  0.00    -0.069 N 
HETATM   17  H   UNL     1      27.153  42.349  51.263  1.00  0.00     0.280 HD
HETATM   18  C   UNL     1      28.221  43.889  52.121  1.00  0.00     0.244 C 
HETATM   19  C   UNL     1      27.721  43.680  53.549  1.00  0.00     0.046 C 
HETATM   20  C   UNL     1      26.261  44.117  53.450  1.00  0.00     0.039 C 
HETATM   21  C   UNL     1      25.800  43.652  52.074  1.00  0.00     0.235 C 
BRANCH  19  22
HETATM   22  C   UNL     1      28.497  44.397  54.633  1.00  0.00    -0.046 A 
HETATM   23  C   UNL     1      29.787  43.967  55.022  1.00  0.00    -0.055 A 
HETATM   24  C   UNL     1      30.474  42.783  54.392  1.00  0.00     0.049 C 
HETATM   25  C   UNL     1      30.474  44.664  56.031  1.00  0.00     0.007 A 
HETATM   26  C   UNL     1      29.897  45.760  56.667  1.00  0.00     0.001 A 
HETATM   27  C   UNL     1      28.622  46.174  56.307  1.00  0.00     0.001 A 
HETATM   28  C   UNL     1      27.927  45.497  55.305  1.00  0.00     0.008 A 
ENDBRANCH  19  22
ENDBRANCH  15  16
ENDBRANCH   1  15
TORSDOF 7
ENDMDL
MODEL 9
REMARK VINA RESULT:      -7.7      2.108      2.809
REMARK  7 active torsions:
REMARK  status: ('A' for Active; 'I' for Inactive)
REMARK    1  A    between atoms: C_2  and  C_3 
REMARK    2  A    between atoms: C_3  and  C_4 
REMARK    3  A    between atoms: C_8  and  C_9 
REMARK       I    between atoms: C_9  and  N_10 
REMARK    4  A    between atoms: N_10  and  C_11 
REMARK    5  A    between atoms: C_11  and  C_12 
REMARK    6  A    between atoms: C_12  and  N_13 
REMARK    7  A    between atoms: C_16  and  C_17 
ROOT
HETATM    1  C   UNL     1      23.301  44.332  49.182  1.00  0.00     0.150 C 
ENDROOT
BRANCH   1   2
HETATM    2  N   UNL     1      22.369  45.424  48.937  1.00  0.00    -0.354 N 
HETATM    3  C   UNL     1      22.772  46.738  48.776  1.00  0.00     0.272 C 
HETATM    4  O   UNL     1      23.856  47.135  49.190  1.00  0.00    -0.266 OA
HETATM    5  H   UNL     1      21.498  45.227  48.437  1.00  0.00     0.162 HD
BRANCH   3   6
HETATM    6  C   UNL     1      21.754  47.596  48.163  1.00  0.00     0.146 A 
HETATM    7  N   UNL     1      20.833  47.085  47.321  1.00  0.00    -0.169 NA
HETATM    8  N   UNL     1      20.077  48.150  46.984  1.00  0.00    -0.282 N 
HETATM    9  C   UNL     1      20.473  49.314  47.582  1.00  0.00     0.030 A 
HETATM   10  H   UNL     1      19.299  48.011  46.344  1.00  0.00     0.189 HD
HETATM   11  C   UNL     1      21.567  48.984  48.350  1.00  0.00     0.065 A 
BRANCH   9  12
HETATM   12  C   UNL     1      19.774  50.610  47.354  1.00  0.00     0.058 C 
BRANCH  12  13
HETATM   13  C   UNL     1      20.051  51.600  48.487  1.00  0.00     0.002 C 
HETATM   14  C   UNL     1      18.792  52.348  48.892  1.00  0.00     0.005 C 
ENDBRANCH  12  13
ENDBRANCH   9  12
ENDBRANCH   3   6
ENDBRANCH   1   2
BRANCH   1  15
HETATM   15  C   UNL     1      23.682  44.111  50.661  1.00  0.00     0.254 C 
BRANCH  15  16
HETATM   16  N   UNL     1      25.007  44.756  50.974  1.00  0.00    -0.069 N 
HETATM   17  H   UNL     1      24.772  45.747  51.139  1.00  0.00     0.280 HD
HETATM   18  C   UNL     1      25.723  44.262  52.204  1.00  0.00     0.244 C 
HETATM   19  C   UNL     1      27.148  44.761  51.973  1.00  0.00     0.046 C 
HETATM   20  C   UNL     1      27.354  44.479  50.486  1.00  0.00     0.039 C 
HETATM   21  C   UNL     1      26.003  44.757  49.839  1.00  0.00     0.235 C 
BRANCH  19  22
HETATM   22  C   UNL     1      28.213  44.152  52.860  1.00  0.00    -0.046 A 
HETATM   23  C   UNL     1      28.445  44.633  54.170  1.00  0.00    -0.055 A 
HETATM   24  C   UNL     1      27.656  45.768  54.771  1.00  0.00     0.049 C 
HETATM   25  C   UNL     1      29.442  44.036  54.961  1.00  0.00     0.007 A 
HETATM   26  C   UNL     1      30.219  42.992  54.468  1.00  0.00     0.001 A 
HETATM   27  C   UNL     1      30.015  42.530  53.175  1.00  0.00     0.001 A 
HETATM   28  C   UNL     1      29.026  43.106  52.378  1.00  0.00     0.008 A 
ENDBRANCH  19  22
ENDBRANCH  15  16
ENDBRANCH   1  15
TORSDOF 7
ENDMDL
MODEL 10
REMARK VINA RESULT:      -7.7      6.475      8.999
REMARK  7 active torsions:
REMARK  status: ('A' for Active; 'I' for Inactive)
REMARK    1  A    between atoms: C_2  and  C_3 
REMARK    2  A    between atoms: C_3  and  C_4 
REMARK    3  A    between atoms: C_8  and  C_9 
REMARK       I    between atoms: C_9  and  N_10 
REMARK    4  A    between atoms: N_10  and  C_11 
REMARK    5  A    between atoms: C_11  and  C_12 
REMARK    6  A    between atoms: C_12  and  N_13 
REMARK    7  A    between atoms: C_16  and  C_17 
ROOT
HETATM    1  C   UNL     1      28.339  40.306  50.803  1.00  0.00     0.150 C 
ENDROOT
BRANCH   1   2
HETATM    2  N   UNL     1      28.633  39.937  49.425  1.00  0.00    -0.354 N 
HETATM    3  C   UNL     1      28.199  38.754  48.852  1.00  0.00     0.272 C 
HETATM    4  O   UNL     1      27.876  37.787  49.534  1.00  0.00    -0.266 OA
HETATM    5  H   UNL     1      28.752  40.678  48.729  1.00  0.00     0.162 HD
BRANCH   3   6
HETATM    6  C   UNL     1      28.260  38.752  47.387  1.00  0.00     0.146 A 
HETATM    7  N   UNL     1      28.667  37.659  46.711  1.00  0.00    -0.169 NA
HETATM    8  N   UNL     1      28.574  38.025  45.417  1.00  0.00    -0.282 N 
HETATM    9  C   UNL     1      28.118  39.301  45.241  1.00  0.00     0.030 A 
HETATM   10  H   UNL     1      28.833  37.351  44.701  1.00  0.00     0.189 HD
HETATM   11  C   UNL     1      27.911  39.801  46.506  1.00  0.00     0.065 A 
BRANCH   9  12
HETATM   12  C   UNL     1      27.934  39.907  43.892  1.00  0.00     0.058 C 
BRANCH  12  13
HETATM   13  C   UNL     1      29.127  40.784  43.506  1.00  0.00     0.002 C 
HETATM   14  C   UNL     1      30.167  39.997  42.725  1.00  0.00     0.005 C 
ENDBRANCH  12  13
ENDBRANCH   9  12
ENDBRANCH   3   6
ENDBRANCH   1   2
BRANCH   1  15
HETATM   15  C   UNL     1      26.886  40.753  51.068  1.00  0.00     0.254 C 
BRANCH  15  16
HETATM   16  N   UNL     1      26.857  42.017  51.888  1.00  0.00    -0.069 N 
HETATM   17  H   UNL     1      25.870  42.107  52.176  1.00  0.00     0.280 HD
HETATM   18  C   UNL     1      27.686  42.025  53.146  1.00  0.00     0.244 C 
HETATM   19  C   UNL     1      27.790  43.516  53.457  1.00  0.00     0.046 C 
HETATM   20  C   UNL     1      28.023  44.122  52.075  1.00  0.00     0.039 C 
HETATM   21  C   UNL     1      27.176  43.282  51.126  1.00  0.00     0.235 C 
BRANCH  19  22
HETATM   22  C   UNL     1      28.840  43.907  54.475  1.00  0.00    -0.046 A 
HETATM   23  C   UNL     1      28.804  45.162  55.127  1.00  0.00    -0.055 A 
HETATM   24  C   UNL     1      27.730  46.185  54.862  1.00  0.00     0.049 C 
HETATM   25  C   UNL     1      29.797  45.482  56.069  1.00  0.00     0.007 A 
HETATM   26  C   UNL     1      30.828  44.592  56.356  1.00  0.00     0.001 A 
HETATM   27  C   UNL     1      30.885  43.368  55.703  1.00  0.00     0.001 A 
HETATM   28  C   UNL     1      29.904  43.031  54.770  1.00  0.00     0.008 A 
ENDBRANCH  19  22
ENDBRANCH  15  16
ENDBRANCH   1  15
TORSDOF 7
ENDMDL
