MODEL 1
REMARK VINA RESULT:     -10.2      0.000      0.000
REMARK  3 active torsions:
REMARK  status: ('A' for Active; 'I' for Inactive)
REMARK    1  A    between atoms: C_2  and  O_3 
REMARK    2  A    between atoms: O_3  and  C_4 
REMARK    3  A    between atoms: C_10  and  N_11 
REMARK       I    between atoms: N_11  and  C_12 
REMARK       I    between atoms: C_12  and  N_13 
ROOT
HETATM    1  N   UNL     1      25.801  45.832  51.232  1.00  0.00    -0.306 N 
HETATM    2  C   UNL     1      26.512  44.656  51.284  1.00  0.00     0.323 C 
HETATM    3  N   UNL     1      27.303  44.477  52.423  1.00  0.00    -0.328 N 
HETATM    4  C   UNL     1      27.212  45.329  53.622  1.00  0.00     0.185 C 
HETATM    5  C   UNL     1      28.310  45.009  54.575  1.00  0.00     0.035 A 
HETATM    6  C   UNL     1      29.263  44.023  54.443  1.00  0.00    -0.020 A 
HETATM    7  C   UNL     1      29.284  43.141  53.251  1.00  0.00     0.061 C 
HETATM    8  C   UNL     1      27.890  43.126  52.601  1.00  0.00     0.132 C 
HETATM    9  N   UNL     1      28.537  45.656  55.760  1.00  0.00    -0.357 N 
HETATM   10  H   UNL     1      27.994  46.423  56.130  1.00  0.00     0.166 HD
HETATM   11  C   UNL     1      29.629  45.101  56.395  1.00  0.00     0.043 A 
HETATM   12  C   UNL     1      30.106  44.069  55.583  1.00  0.00    -0.001 A 
HETATM   13  C   UNL     1      30.226  45.434  57.618  1.00  0.00     0.030 A 
HETATM   14  C   UNL     1      31.340  44.689  58.019  1.00  0.00     0.002 A 
HETATM   15  C   UNL     1      31.837  43.655  57.229  1.00  0.00     0.001 A 
HETATM   16  C   UNL     1      31.229  43.334  56.010  1.00  0.00     0.014 A 
HETATM   17  O   UNL     1      26.466  43.794  50.406  1.00  0.00    -0.247 OA
HETATM   18  H   UNL     1      25.995  46.550  51.911  1.00  0.00     0.171 HD
ENDROOT
BRANCH   1  19
HETATM   19  C   UNL     1      24.827  46.224  50.280  1.00  0.00     0.071 A 
HETATM   20  C   UNL     1      24.917  47.536  49.771  1.00  0.00     0.117 A 
HETATM   21  C   UNL     1      23.933  48.021  48.894  1.00  0.00     0.069 A 
HETATM   22 CL   UNL     1      23.899  49.658  48.345  1.00  0.00    -0.081 Cl
HETATM   23  C   UNL     1      22.903  47.180  48.469  1.00  0.00     0.027 A 
HETATM   24  C   UNL     1      22.836  45.869  48.935  1.00  0.00     0.004 A 
HETATM   25  C   UNL     1      23.787  45.398  49.845  1.00  0.00     0.032 A 
BRANCH  20  26
HETATM   26  O   UNL     1      25.962  48.308  50.235  1.00  0.00    -0.347 OA
BRANCH  26  27
HETATM   27  C   UNL     1      27.106  48.253  49.370  1.00  0.00     0.171 C 
HETATM   28  C   UNL     1      27.390  49.658  48.872  1.00  0.00     0.034 C 
ENDBRANCH  26  27
ENDBRANCH  20  26
ENDBRANCH   1  19
TORSDOF 3
ENDMDL
MODEL 2
REMARK VINA RESULT:      -9.3      1.912      3.066
REMARK  3 active torsions:
REMARK  status: ('A' for Active; 'I' for Inactive)
REMARK    1  A    between atoms: C_2  and  O_3 
REMARK    2  A    between atoms: O_3  and  C_4 
REMARK    3  A    between atoms: C_10  and  N_11 
REMARK       I    between atoms: N_11  and  C_12 
REMARK       I    between atoms: C_12  and  N_13 
ROOT
HETATM    1  N   UNL     1      23.662  46.723  49.680  1.00  0.00    -0.306 N 
HETATM    2  C   UNL     1      24.281  45.551  49.315  1.00  0.00     0.323 C 
HETATM    3  N   UNL     1      25.221  45.055  50.225  1.00  0.00    -0.328 N 
HETATM    4  C   UNL     1      25.378  45.569  51.597  1.00  0.00     0.185 C 
HETATM    5  C   UNL     1      26.581  44.975  52.242  1.00  0.00     0.035 A 
HETATM    6  C   UNL     1      27.426  44.026  51.710  1.00  0.00    -0.020 A 
HETATM    7  C   UNL     1      27.198  43.484  50.349  1.00  0.00     0.061 C 
HETATM    8  C   UNL     1      25.724  43.685  49.958  1.00  0.00     0.132 C 
HETATM    9  N   UNL     1      27.034  45.284  53.497  1.00  0.00    -0.357 N 
HETATM   10  H   UNL     1      26.615  45.947  54.133  1.00  0.00     0.166 HD
HETATM   11  C   UNL     1      28.165  44.547  53.781  1.00  0.00     0.043 A 
HETATM   12  C   UNL     1      28.433  43.745  52.669  1.00  0.00    -0.001 A 
HETATM   13  C   UNL     1      28.966  44.530  54.931  1.00  0.00     0.030 A 
HETATM   14  C   UNL     1      30.068  43.669  54.941  1.00  0.00     0.002 A 
HETATM   15  C   UNL     1      30.359  42.859  53.846  1.00  0.00     0.001 A 
HETATM   16  C   UNL     1      29.550  42.887  52.704  1.00  0.00     0.014 A 
HETATM   17  O   UNL     1      24.037  44.949  48.270  1.00  0.00    -0.247 OA
HETATM   18  H   UNL     1      24.011  47.233  50.475  1.00  0.00     0.171 HD
ENDROOT
BRANCH   1  19
HETATM   19  C   UNL     1      22.586  47.382  49.032  1.00  0.00     0.071 A 
HETATM   20  C   UNL     1      22.658  48.788  48.937  1.00  0.00     0.117 A 
HETATM   21  C   UNL     1      21.586  49.512  48.390  1.00  0.00     0.069 A 
HETATM   22 CL   UNL     1      21.541  51.238  48.372  1.00  0.00    -0.081 Cl
HETATM   23  C   UNL     1      20.479  48.836  47.875  1.00  0.00     0.027 A 
HETATM   24  C   UNL     1      20.426  47.445  47.927  1.00  0.00     0.004 A 
HETATM   25  C   UNL     1      21.469  46.723  48.513  1.00  0.00     0.032 A 
BRANCH  20  26
HETATM   26  O   UNL     1      23.783  49.386  49.466  1.00  0.00    -0.347 OA
BRANCH  26  27
HETATM   27  C   UNL     1      24.704  49.808  48.451  1.00  0.00     0.171 C 
HETATM   28  C   UNL     1      26.082  49.287  48.818  1.00  0.00     0.034 C 
ENDBRANCH  26  27
ENDBRANCH  20  26
ENDBRANCH   1  19
TORSDOF 3
ENDMDL
MODEL 3
REMARK VINA RESULT:      -9.2      2.194      3.515
REMARK  3 active torsions:
REMARK  status: ('A' for Active; 'I' for Inactive)
REMARK    1  A    between atoms: C_2  and  O_3 
REMARK    2  A    between atoms: O_3  and  C_4 
REMARK    3  A    between atoms: C_10  and  N_11 
REMARK       I    between atoms: N_11  and  C_12 
REMARK       I    between atoms: C_12  and  N_13 
ROOT
HETATM    1  N   UNL     1      25.423  45.589  51.795  1.00  0.00    -0.306 N 
HETATM    2  C   UNL     1      25.765  46.570  52.696  1.00  0.00     0.323 C 
HETATM    3  N   UNL     1      26.838  46.269  53.540  1.00  0.00    -0.328 N 
HETATM    4  C   UNL     1      27.733  45.114  53.343  1.00  0.00     0.185 C 
HETATM    5  C   UNL     1      28.646  44.957  54.508  1.00  0.00     0.035 A 
HETATM    6  C   UNL     1      28.736  45.779  55.610  1.00  0.00    -0.020 A 
HETATM    7  C   UNL     1      27.863  46.970  55.743  1.00  0.00     0.061 C 
HETATM    8  C   UNL     1      27.362  47.394  54.352  1.00  0.00     0.132 C 
HETATM    9  N   UNL     1      29.563  43.951  54.659  1.00  0.00    -0.357 N 
HETATM   10  H   UNL     1      29.730  43.198  54.006  1.00  0.00     0.166 HD
HETATM   11  C   UNL     1      30.244  44.112  55.848  1.00  0.00     0.043 A 
HETATM   12  C   UNL     1      29.740  45.259  56.467  1.00  0.00    -0.001 A 
HETATM   13  C   UNL     1      31.259  43.333  56.418  1.00  0.00     0.030 A 
HETATM   14  C   UNL     1      31.773  43.742  57.653  1.00  0.00     0.002 A 
HETATM   15  C   UNL     1      31.289  44.881  58.293  1.00  0.00     0.001 A 
HETATM   16  C   UNL     1      30.274  45.648  57.711  1.00  0.00     0.014 A 
HETATM   17  O   UNL     1      25.190  47.655  52.769  1.00  0.00    -0.247 OA
HETATM   18  H   UNL     1      25.840  44.676  51.886  1.00  0.00     0.171 HD
ENDROOT
BRANCH   1  19
HETATM   19  C   UNL     1      24.479  45.660  50.740  1.00  0.00     0.071 A 
HETATM   20  C   UNL     1      23.859  44.454  50.350  1.00  0.00     0.117 A 
HETATM   21  C   UNL     1      22.983  44.436  49.252  1.00  0.00     0.069 A 
HETATM   22 CL   UNL     1      22.301  42.977  48.630  1.00  0.00    -0.081 Cl
HETATM   23  C   UNL     1      22.669  45.624  48.591  1.00  0.00     0.027 A 
HETATM   24  C   UNL     1      23.245  46.824  49.003  1.00  0.00     0.004 A 
HETATM   25  C   UNL     1      24.155  46.839  50.065  1.00  0.00     0.032 A 
BRANCH  20  26
HETATM   26  O   UNL     1      24.217  43.321  51.050  1.00  0.00    -0.347 OA
BRANCH  26  27
HETATM   27  C   UNL     1      25.132  42.493  50.317  1.00  0.00     0.171 C 
HETATM   28  C   UNL     1      26.283  42.131  51.237  1.00  0.00     0.034 C 
ENDBRANCH  26  27
ENDBRANCH  20  26
ENDBRANCH   1  19
TORSDOF 3
ENDMDL
MODEL 4
REMARK VINA RESULT:      -8.8      3.063      8.506
REMARK  3 active torsions:
REMARK  status: ('A' for Active; 'I' for Inactive)
REMARK    1  A    between atoms: C_2  and  O_3 
REMARK    2  A    between atoms: O_3  and  C_4 
REMARK    3  A    between atoms: C_10  and  N_11 
REMARK       I    between atoms: N_11  and  C_12 
REMARK       I    between atoms: C_12  and  N_13 
ROOT
HETATM    1  N   UNL     1      27.597  44.795  52.334  1.00  0.00    -0.306 N 
HETATM    2  C   UNL     1      26.533  44.232  51.670  1.00  0.00     0.323 C 
HETATM    3  N   UNL     1      25.784  45.106  50.875  1.00  0.00    -0.328 N 
HETATM    4  C   UNL     1      26.218  46.474  50.536  1.00  0.00     0.185 C 
HETATM    5  C   UNL     1      25.124  47.212  49.846  1.00  0.00     0.035 A 
HETATM    6  C   UNL     1      23.888  46.721  49.488  1.00  0.00    -0.020 A 
HETATM    7  C   UNL     1      23.511  45.318  49.790  1.00  0.00     0.061 C 
HETATM    8  C   UNL     1      24.784  44.477  49.980  1.00  0.00     0.132 C 
HETATM    9  N   UNL     1      25.188  48.520  49.446  1.00  0.00    -0.357 N 
HETATM   10  H   UNL     1      25.976  49.140  49.569  1.00  0.00     0.166 HD
HETATM   11  C   UNL     1      24.005  48.881  48.835  1.00  0.00     0.043 A 
HETATM   12  C   UNL     1      23.167  47.763  48.850  1.00  0.00    -0.001 A 
HETATM   13  C   UNL     1      23.616  50.105  48.276  1.00  0.00     0.030 A 
HETATM   14  C   UNL     1      22.337  50.185  47.716  1.00  0.00     0.002 A 
HETATM   15  C   UNL     1      21.481  49.086  47.717  1.00  0.00     0.001 A 
HETATM   16  C   UNL     1      21.884  47.870  48.280  1.00  0.00     0.014 A 
HETATM   17  O   UNL     1      26.241  43.039  51.741  1.00  0.00    -0.247 OA
HETATM   18  H   UNL     1      27.692  45.797  52.344  1.00  0.00     0.171 HD
ENDROOT
BRANCH   1  19
HETATM   19  C   UNL     1      28.599  44.141  53.094  1.00  0.00     0.071 A 
HETATM   20  C   UNL     1      28.768  44.559  54.431  1.00  0.00     0.117 A 
HETATM   21  C   UNL     1      29.801  44.019  55.213  1.00  0.00     0.069 A 
HETATM   22 CL   UNL     1      30.158  44.584  56.805  1.00  0.00    -0.081 Cl
HETATM   23  C   UNL     1      30.617  43.014  54.691  1.00  0.00     0.027 A 
HETATM   24  C   UNL     1      30.424  42.566  53.386  1.00  0.00     0.004 A 
HETATM   25  C   UNL     1      29.427  43.136  52.588  1.00  0.00     0.032 A 
BRANCH  20  26
HETATM   26  O   UNL     1      27.923  45.555  54.877  1.00  0.00    -0.347 OA
BRANCH  26  27
HETATM   27  C   UNL     1      28.602  46.806  55.056  1.00  0.00     0.171 C 
HETATM   28  C   UNL     1      27.611  47.924  54.792  1.00  0.00     0.034 C 
ENDBRANCH  26  27
ENDBRANCH  20  26
ENDBRANCH   1  19
TORSDOF 3
ENDMDL
MODEL 5
REMARK VINA RESULT:      -8.8      3.552      8.692
REMARK  3 active torsions:
REMARK  status: ('A' for Active; 'I' for Inactive)
REMARK    1  A    between atoms: C_2  and  O_3 
REMARK    2  A    between atoms: O_3  and  C_4 
REMARK    3  A    between atoms: C_10  and  N_11 
REMARK       I    between atoms: N_11  and  C_12 
REMARK       I    between atoms: C_12  and  N_13 
ROOT
HETATM    1  N   UNL     1      26.190  43.986  49.833  1.00  0.00    -0.306 N 
HETATM    2  C   UNL     1      26.733  45.248  49.772  1.00  0.00     0.323 C 
HETATM    3  N   UNL     1      25.814  46.297  49.665  1.00  0.00    -0.328 N 
HETATM    4  C   UNL     1      24.363  46.134  49.864  1.00  0.00     0.185 C 
HETATM    5  C   UNL     1      23.642  47.383  49.492  1.00  0.00     0.035 A 
HETATM    6  C   UNL     1      24.200  48.573  49.080  1.00  0.00    -0.020 A 
HETATM    7  C   UNL     1      25.670  48.719  48.953  1.00  0.00     0.061 C 
HETATM    8  C   UNL     1      26.366  47.664  49.829  1.00  0.00     0.132 C 
HETATM    9  N   UNL     1      22.282  47.542  49.513  1.00  0.00    -0.357 N 
HETATM   10  H   UNL     1      21.607  46.840  49.780  1.00  0.00     0.166 HD
HETATM   11  C   UNL     1      21.954  48.822  49.117  1.00  0.00     0.043 A 
HETATM   12  C   UNL     1      23.147  49.493  48.837  1.00  0.00    -0.001 A 
HETATM   13  C   UNL     1      20.699  49.431  48.985  1.00  0.00     0.030 A 
HETATM   14  C   UNL     1      20.667  50.763  48.556  1.00  0.00     0.002 A 
HETATM   15  C   UNL     1      21.842  51.455  48.270  1.00  0.00     0.001 A 
HETATM   16  C   UNL     1      23.088  50.832  48.406  1.00  0.00     0.014 A 
HETATM   17  O   UNL     1      27.942  45.471  49.818  1.00  0.00    -0.247 OA
HETATM   18  H   UNL     1      25.207  43.868  49.647  1.00  0.00     0.171 HD
ENDROOT
BRANCH   1  19
HETATM   19  C   UNL     1      26.856  42.758  50.075  1.00  0.00     0.071 A 
HETATM   20  C   UNL     1      27.137  42.433  51.419  1.00  0.00     0.117 A 
HETATM   21  C   UNL     1      27.874  41.278  51.724  1.00  0.00     0.069 A 
HETATM   22 CL   UNL     1      28.378  40.892  53.330  1.00  0.00    -0.081 Cl
HETATM   23  C   UNL     1      28.267  40.411  50.703  1.00  0.00     0.027 A 
HETATM   24  C   UNL     1      27.952  40.707  49.378  1.00  0.00     0.004 A 
HETATM   25  C   UNL     1      27.260  41.880  49.066  1.00  0.00     0.032 A 
BRANCH  20  26
HETATM   26  O   UNL     1      26.716  43.336  52.373  1.00  0.00    -0.347 OA
BRANCH  26  27
HETATM   27  C   UNL     1      27.811  44.037  52.980  1.00  0.00     0.171 C 
HETATM   28  C   UNL     1      27.466  44.279  54.439  1.00  0.00     0.034 C 
ENDBRANCH  26  27
ENDBRANCH  20  26
ENDBRANCH   1  19
TORSDOF 3
ENDMDL
MODEL 6
REMARK VINA RESULT:      -8.6      3.275      4.426
REMARK  3 active torsions:
REMARK  status: ('A' for Active; 'I' for Inactive)
REMARK    1  A    between atoms: C_2  and  O_3 
REMARK    2  A    between atoms: O_3  and  C_4 
REMARK    3  A    between atoms: C_10  and  N_11 
REMARK       I    between atoms: N_11  and  C_12 
REMARK       I    between atoms: C_12  and  N_13 
ROOT
HETATM    1  N   UNL     1      25.929  42.941  51.280  1.00  0.00    -0.306 N 
HETATM    2  C   UNL     1      25.856  44.170  51.890  1.00  0.00     0.323 C 
HETATM    3  N   UNL     1      26.830  44.422  52.862  1.00  0.00    -0.328 N 
HETATM    4  C   UNL     1      28.019  43.574  53.064  1.00  0.00     0.185 C 
HETATM    5  C   UNL     1      28.753  43.990  54.290  1.00  0.00     0.035 A 
HETATM    6  C   UNL     1      28.454  45.048  55.120  1.00  0.00    -0.020 A 
HETATM    7  C   UNL     1      27.285  45.920  54.848  1.00  0.00     0.061 C 
HETATM    8  C   UNL     1      26.906  45.817  53.361  1.00  0.00     0.132 C 
HETATM    9  N   UNL     1      29.872  43.373  54.785  1.00  0.00    -0.357 N 
HETATM   10  H   UNL     1      30.330  42.567  54.384  1.00  0.00     0.166 HD
HETATM   11  C   UNL     1      30.297  44.019  55.927  1.00  0.00     0.043 A 
HETATM   12  C   UNL     1      29.418  45.080  56.160  1.00  0.00    -0.001 A 
HETATM   13  C   UNL     1      31.385  43.745  56.766  1.00  0.00     0.030 A 
HETATM   14  C   UNL     1      31.578  44.581  57.871  1.00  0.00     0.002 A 
HETATM   15  C   UNL     1      30.717  45.646  58.128  1.00  0.00     0.001 A 
HETATM   16  C   UNL     1      29.634  45.906  57.280  1.00  0.00     0.014 A 
HETATM   17  O   UNL     1      25.009  45.018  51.613  1.00  0.00    -0.247 OA
HETATM   18  H   UNL     1      26.555  42.246  51.654  1.00  0.00     0.171 HD
ENDROOT
BRANCH   1  19
HETATM   19  C   UNL     1      25.171  42.463  50.181  1.00  0.00     0.071 A 
HETATM   20  C   UNL     1      25.886  41.893  49.106  1.00  0.00     0.117 A 
HETATM   21  C   UNL     1      25.208  41.484  47.947  1.00  0.00     0.069 A 
HETATM   22 CL   UNL     1      26.029  40.912  46.540  1.00  0.00    -0.081 Cl
HETATM   23  C   UNL     1      23.816  41.574  47.886  1.00  0.00     0.027 A 
HETATM   24  C   UNL     1      23.103  42.095  48.963  1.00  0.00     0.004 A 
HETATM   25  C   UNL     1      23.779  42.548  50.100  1.00  0.00     0.032 A 
BRANCH  20  26
HETATM   26  O   UNL     1      27.258  41.836  49.240  1.00  0.00    -0.347 OA
BRANCH  26  27
HETATM   27  C   UNL     1      27.712  40.537  49.648  1.00  0.00     0.171 C 
HETATM   28  C   UNL     1      28.782  40.082  48.673  1.00  0.00     0.034 C 
ENDBRANCH  26  27
ENDBRANCH  20  26
ENDBRANCH   1  19
TORSDOF 3
ENDMDL
MODEL 7
REMARK VINA RESULT:      -8.6      3.197      8.397
REMARK  3 active torsions:
REMARK  status: ('A' for Active; 'I' for Inactive)
REMARK    1  A    between atoms: C_2  and  O_3 
REMARK    2  A    between atoms: O_3  and  C_4 
REMARK    3  A    between atoms: C_10  and  N_11 
REMARK       I    between atoms: N_11  and  C_12 
REMARK       I    between atoms: C_12  and  N_13 
ROOT
HETATM    1  N   UNL     1      27.821  44.424  53.509  1.00  0.00    -0.306 N 
HETATM    2  C   UNL     1      27.131  43.435  52.849  1.00  0.00     0.323 C 
HETATM    3  N   UNL     1      26.219  43.874  51.884  1.00  0.00    -0.328 N 
HETATM    4  C   UNL     1      26.159  45.262  51.390  1.00  0.00     0.185 C 
HETATM    5  C   UNL     1      24.967  45.455  50.520  1.00  0.00     0.035 A 
HETATM    6  C   UNL     1      24.052  44.497  50.139  1.00  0.00    -0.020 A 
HETATM    7  C   UNL     1      24.182  43.095  50.605  1.00  0.00     0.061 C 
HETATM    8  C   UNL     1      25.641  42.824  51.010  1.00  0.00     0.132 C 
HETATM    9  N   UNL     1      24.596  46.641  49.946  1.00  0.00    -0.357 N 
HETATM   10  H   UNL     1      25.079  47.523  50.041  1.00  0.00     0.166 HD
HETATM   11  C   UNL     1      23.449  46.462  49.199  1.00  0.00     0.043 A 
HETATM   12  C   UNL     1      23.086  45.117  49.306  1.00  0.00    -0.001 A 
HETATM   13  C   UNL     1      22.712  47.383  48.445  1.00  0.00     0.030 A 
HETATM   14  C   UNL     1      21.573  46.914  47.781  1.00  0.00     0.002 A 
HETATM   15  C   UNL     1      21.188  45.578  47.870  1.00  0.00     0.001 A 
HETATM   16  C   UNL     1      21.935  44.670  48.628  1.00  0.00     0.014 A 
HETATM   17  O   UNL     1      27.291  42.234  53.065  1.00  0.00    -0.247 OA
HETATM   18  H   UNL     1      27.539  45.382  53.385  1.00  0.00     0.171 HD
ENDROOT
BRANCH   1  19
HETATM   19  C   UNL     1      28.890  44.280  54.430  1.00  0.00     0.071 A 
HETATM   20  C   UNL     1      28.868  45.106  55.574  1.00  0.00     0.117 A 
HETATM   21  C   UNL     1      29.940  45.081  56.480  1.00  0.00     0.069 A 
HETATM   22 CL   UNL     1      30.051  46.163  57.822  1.00  0.00    -0.081 Cl
HETATM   23  C   UNL     1      30.994  44.186  56.289  1.00  0.00     0.027 A 
HETATM   24  C   UNL     1      30.996  43.337  55.184  1.00  0.00     0.004 A 
HETATM   25  C   UNL     1      29.954  43.393  54.254  1.00  0.00     0.032 A 
BRANCH  20  26
HETATM   26  O   UNL     1      27.794  45.962  55.696  1.00  0.00    -0.347 OA
BRANCH  26  27
HETATM   27  C   UNL     1      28.043  47.239  55.090  1.00  0.00     0.171 C 
HETATM   28  C   UNL     1      26.705  47.901  54.815  1.00  0.00     0.034 C 
ENDBRANCH  26  27
ENDBRANCH  20  26
ENDBRANCH   1  19
TORSDOF 3
ENDMDL
MODEL 8
REMARK VINA RESULT:      -8.4      6.040     12.011
REMARK  3 active torsions:
REMARK  status: ('A' for Active; 'I' for Inactive)
REMARK    1  A    between atoms: C_2  and  O_3 
REMARK    2  A    between atoms: O_3  and  C_4 
REMARK    3  A    between atoms: C_10  and  N_11 
REMARK       I    between atoms: N_11  and  C_12 
REMARK       I    between atoms: C_12  and  N_13 
ROOT
HETATM    1  N   UNL     1      23.319  49.780  48.306  1.00  0.00    -0.306 N 
HETATM    2  C   UNL     1      22.477  50.576  49.046  1.00  0.00     0.323 C 
HETATM    3  N   UNL     1      21.168  50.683  48.565  1.00  0.00    -0.328 N 
HETATM    4  C   UNL     1      20.616  49.822  47.503  1.00  0.00     0.185 C 
HETATM    5  C   UNL     1      19.274  50.308  47.082  1.00  0.00     0.035 A 
HETATM    6  C   UNL     1      18.568  51.364  47.616  1.00  0.00    -0.020 A 
HETATM    7  C   UNL     1      19.129  52.169  48.728  1.00  0.00     0.061 C 
HETATM    8  C   UNL     1      20.195  51.344  49.468  1.00  0.00     0.132 C 
HETATM    9  N   UNL     1      18.517  49.760  46.082  1.00  0.00    -0.357 N 
HETATM   10  H   UNL     1      18.772  48.966  45.511  1.00  0.00     0.166 HD
HETATM   11  C   UNL     1      17.329  50.451  45.961  1.00  0.00     0.043 A 
HETATM   12  C   UNL     1      17.337  51.469  46.917  1.00  0.00    -0.001 A 
HETATM   13  C   UNL     1      16.256  50.254  45.081  1.00  0.00     0.030 A 
HETATM   14  C   UNL     1      15.164  51.121  45.186  1.00  0.00     0.002 A 
HETATM   15  C   UNL     1      15.146  52.145  46.131  1.00  0.00     0.001 A 
HETATM   16  C   UNL     1      16.225  52.330  47.002  1.00  0.00     0.014 A 
HETATM   17  O   UNL     1      22.820  51.158  50.074  1.00  0.00    -0.247 OA
HETATM   18  H   UNL     1      23.014  49.451  47.405  1.00  0.00     0.171 HD
ENDROOT
BRANCH   1  19
HETATM   19  C   UNL     1      24.644  49.382  48.617  1.00  0.00     0.071 A 
HETATM   20  C   UNL     1      24.798  48.223  49.408  1.00  0.00     0.117 A 
HETATM   21  C   UNL     1      26.077  47.823  49.830  1.00  0.00     0.069 A 
HETATM   22 CL   UNL     1      26.329  46.503  50.914  1.00  0.00    -0.081 Cl
HETATM   23  C   UNL     1      27.203  48.531  49.407  1.00  0.00     0.027 A 
HETATM   24  C   UNL     1      27.057  49.650  48.589  1.00  0.00     0.004 A 
HETATM   25  C   UNL     1      25.783  50.078  48.206  1.00  0.00     0.032 A 
BRANCH  20  26
HETATM   26  O   UNL     1      23.640  47.575  49.786  1.00  0.00    -0.347 OA
BRANCH  26  27
HETATM   27  C   UNL     1      23.443  46.349  49.068  1.00  0.00     0.171 C 
HETATM   28  C   UNL     1      22.115  46.437  48.338  1.00  0.00     0.034 C 
ENDBRANCH  26  27
ENDBRANCH  20  26
ENDBRANCH   1  19
TORSDOF 3
ENDMDL
MODEL 9
REMARK VINA RESULT:      -8.4      4.457      7.746
REMARK  3 active torsions:
REMARK  status: ('A' for Active; 'I' for Inactive)
REMARK    1  A    between atoms: C_2  and  O_3 
REMARK    2  A    between atoms: O_3  and  C_4 
REMARK    3  A    between atoms: C_10  and  N_11 
REMARK       I    between atoms: N_11  and  C_12 
REMARK       I    between atoms: C_12  and  N_13 
ROOT
HETATM    1  N   UNL     1      27.474  44.434  52.916  1.00  0.00    -0.306 N 
HETATM    2  C   UNL     1      26.406  43.954  52.196  1.00  0.00     0.323 C 
HETATM    3  N   UNL     1      26.656  42.807  51.436  1.00  0.00    -0.328 N 
HETATM    4  C   UNL     1      27.876  41.990  51.569  1.00  0.00     0.185 C 
HETATM    5  C   UNL     1      27.934  40.961  50.495  1.00  0.00     0.035 A 
HETATM    6  C   UNL     1      26.984  40.713  49.529  1.00  0.00    -0.020 A 
HETATM    7  C   UNL     1      25.738  41.515  49.466  1.00  0.00     0.061 C 
HETATM    8  C   UNL     1      25.468  42.149  50.841  1.00  0.00     0.132 C 
HETATM    9  N   UNL     1      28.963  40.076  50.308  1.00  0.00    -0.357 N 
HETATM   10  H   UNL     1      29.801  40.015  50.868  1.00  0.00     0.166 HD
HETATM   11  C   UNL     1      28.689  39.261  49.229  1.00  0.00     0.043 A 
HETATM   12  C   UNL     1      27.446  39.644  48.719  1.00  0.00    -0.001 A 
HETATM   13  C   UNL     1      29.445  38.222  48.669  1.00  0.00     0.030 A 
HETATM   14  C   UNL     1      28.911  37.558  47.560  1.00  0.00     0.002 A 
HETATM   15  C   UNL     1      27.674  37.919  47.031  1.00  0.00     0.001 A 
HETATM   16  C   UNL     1      26.931  38.959  47.601  1.00  0.00     0.014 A 
HETATM   17  O   UNL     1      25.289  44.470  52.209  1.00  0.00    -0.247 OA
HETATM   18  H   UNL     1      28.389  44.050  52.749  1.00  0.00     0.171 HD
ENDROOT
BRANCH   1  19
HETATM   19  C   UNL     1      27.485  45.486  53.868  1.00  0.00     0.071 A 
HETATM   20  C   UNL     1      28.225  45.275  55.050  1.00  0.00     0.117 A 
HETATM   21  C   UNL     1      28.206  46.236  56.074  1.00  0.00     0.069 A 
HETATM   22 CL   UNL     1      28.968  45.983  57.603  1.00  0.00    -0.081 Cl
HETATM   23  C   UNL     1      27.513  47.434  55.892  1.00  0.00     0.027 A 
HETATM   24  C   UNL     1      26.818  47.664  54.707  1.00  0.00     0.004 A 
HETATM   25  C   UNL     1      26.796  46.690  53.705  1.00  0.00     0.032 A 
BRANCH  20  26
HETATM   26  O   UNL     1      28.886  44.068  55.158  1.00  0.00    -0.347 OA
BRANCH  26  27
HETATM   27  C   UNL     1      30.306  44.210  55.015  1.00  0.00     0.171 C 
HETATM   28  C   UNL     1      30.977  43.330  56.053  1.00  0.00     0.034 C 
ENDBRANCH  26  27
ENDBRANCH  20  26
ENDBRANCH   1  19
TORSDOF 3
ENDMDL
MODEL 10
REMARK VINA RESULT:      -8.1      4.250      6.518
REMARK  3 active torsions:
REMARK  status: ('A' for Active; 'I' for Inactive)
REMARK    1  A    between atoms: C_2  and  O_3 
REMARK    2  A    between atoms: O_3  and  C_4 
REMARK    3  A    between atoms: C_10  and  N_11 
REMARK       I    between atoms: N_11  and  C_12 
REMARK       I    between atoms: C_12  and  N_13 
ROOT
HETATM    1  N   UNL     1      21.932  48.716  49.426  1.00  0.00    -0.306 N 
HETATM    2  C   UNL     1      23.289  48.898  49.547  1.00  0.00     0.323 C 
HETATM    3  N   UNL     1      24.042  47.733  49.729  1.00  0.00    -0.328 N 
HETATM    4  C   UNL     1      23.499  46.374  49.547  1.00  0.00     0.185 C 
HETATM    5  C   UNL     1      24.483  45.354  50.000  1.00  0.00     0.035 A 
HETATM    6  C   UNL     1      25.759  45.580  50.469  1.00  0.00    -0.020 A 
HETATM    7  C   UNL     1      26.294  46.959  50.578  1.00  0.00     0.061 C 
HETATM    8  C   UNL     1      25.514  47.887  49.632  1.00  0.00     0.132 C 
HETATM    9  N   UNL     1      24.265  44.002  50.011  1.00  0.00    -0.357 N 
HETATM   10  H   UNL     1      23.419  43.535  49.718  1.00  0.00     0.166 HD
HETATM   11  C   UNL     1      25.386  43.351  50.485  1.00  0.00     0.043 A 
HETATM   12  C   UNL     1      26.343  44.326  50.781  1.00  0.00    -0.001 A 
HETATM   13  C   UNL     1      25.623  41.983  50.673  1.00  0.00     0.030 A 
HETATM   14  C   UNL     1      26.872  41.604  51.175  1.00  0.00     0.002 A 
HETATM   15  C   UNL     1      27.844  42.555  51.480  1.00  0.00     0.001 A 
HETATM   16  C   UNL     1      27.593  43.918  51.287  1.00  0.00     0.014 A 
HETATM   17  O   UNL     1      23.836  49.999  49.493  1.00  0.00    -0.247 OA
HETATM   18  H   UNL     1      21.541  47.810  49.621  1.00  0.00     0.171 HD
ENDROOT
BRANCH   1  19
HETATM   19  C   UNL     1      20.946  49.683  49.104  1.00  0.00     0.071 A 
HETATM   20  C   UNL     1      20.313  49.562  47.849  1.00  0.00     0.117 A 
HETATM   21  C   UNL     1      19.393  50.536  47.427  1.00  0.00     0.069 A 
HETATM   22 CL   UNL     1      18.689  50.531  45.850  1.00  0.00    -0.081 Cl
HETATM   23  C   UNL     1      19.050  51.586  48.281  1.00  0.00     0.027 A 
HETATM   24  C   UNL     1      19.640  51.683  49.539  1.00  0.00     0.004 A 
HETATM   25  C   UNL     1      20.592  50.742  49.943  1.00  0.00     0.032 A 
BRANCH  20  26
HETATM   26  O   UNL     1      20.702  48.498  47.061  1.00  0.00    -0.347 OA
BRANCH  26  27
HETATM   27  C   UNL     1      19.763  47.414  47.108  1.00  0.00     0.171 C 
HETATM   28  C   UNL     1      19.508  46.948  45.686  1.00  0.00     0.034 C 
ENDBRANCH  26  27
ENDBRANCH  20  26
ENDBRANCH   1  19
TORSDOF 3
ENDMDL
