MODEL 1
REMARK VINA RESULT:      -8.4      0.000      0.000
REMARK  4 active torsions:
REMARK  status: ('A' for Active; 'I' for Inactive)
REMARK    1  A    between atoms: C_2  and  O_3 
REMARK    2  A    between atoms: O_3  and  C_4 
REMARK    3  A    between atoms: C_9  and  C_10 
REMARK       I    between atoms: C_10  and  N_11 
REMARK    4  A    between atoms: N_11  and  C_12 
ROOT
HETATM    1  C   UNL     1      26.967  46.760  49.505  1.00  0.00     0.276 C 
HETATM    2  N   UNL     1      26.756  45.758  50.445  1.00  0.00    -0.350 N 
HETATM    3  O   UNL     1      28.025  46.874  48.897  1.00  0.00    -0.265 OA
HETATM    4  H   UNL     1      25.775  45.733  50.724  1.00  0.00     0.163 HD
ENDROOT
BRANCH   1   5
HETATM    5  C   UNL     1      25.834  47.646  49.329  1.00  0.00     0.150 A 
HETATM    6  O   UNL     1      24.574  47.123  49.473  1.00  0.00    -0.304 OA
HETATM    7  C   UNL     1      23.691  48.113  49.182  1.00  0.00     0.087 A 
HETATM    8  C   UNL     1      24.363  49.288  48.877  1.00  0.00     0.009 A 
HETATM    9  C   UNL     1      22.306  47.980  49.176  1.00  0.00     0.041 A 
HETATM   10  C   UNL     1      23.603  50.428  48.535  1.00  0.00     0.051 A 
HETATM   11  C   UNL     1      25.756  48.990  48.993  1.00  0.00    -0.009 A 
HETATM   12  C   UNL     1      22.205  50.330  48.501  1.00  0.00     0.069 A 
HETATM   13  C   UNL     1      21.576  49.121  48.824  1.00  0.00     0.039 A 
HETATM   14  C   UNL     1      26.894  49.919  48.766  1.00  0.00     0.052 C 
BRANCH  12  15
HETATM   15  O   UNL     1      21.345  51.340  48.167  1.00  0.00    -0.351 OA
BRANCH  15  16
HETATM   16  C   UNL     1      19.947  51.073  48.278  1.00  0.00     0.171 C 
HETATM   17  C   UNL     1      19.227  52.397  48.452  1.00  0.00     0.034 C 
ENDBRANCH  15  16
ENDBRANCH  12  15
ENDBRANCH   1   5
BRANCH   2  18
HETATM   18  C   UNL     1      27.464  44.485  50.468  1.00  0.00     0.089 C 
HETATM   19  C   UNL     1      26.651  43.395  49.756  1.00  0.00     0.063 C 
HETATM   20  C   UNL     1      25.506  42.787  50.586  1.00  0.00     0.121 C 
HETATM   21  C   UNL     1      24.269  43.685  50.681  1.00  0.00     0.046 C 
HETATM   22  C   UNL     1      25.064  41.458  49.936  1.00  0.00     0.046 C 
HETATM   23  N   UNL     1      25.998  42.425  51.971  1.00  0.00    -0.059 N 
HETATM   24  H   UNL     1      26.524  41.543  51.888  1.00  0.00     0.279 HD
HETATM   25  H   UNL     1      25.187  42.178  52.559  1.00  0.00     0.279 HD
HETATM   26  C   UNL     1      26.875  43.389  52.747  1.00  0.00     0.121 C 
HETATM   27  C   UNL     1      27.551  42.550  53.854  1.00  0.00     0.046 C 
HETATM   28  C   UNL     1      26.010  44.445  53.439  1.00  0.00     0.046 C 
HETATM   29  C   UNL     1      27.958  43.943  51.816  1.00  0.00     0.063 C 
ENDBRANCH   2  18
TORSDOF 4
ENDMDL
MODEL 2
REMARK VINA RESULT:      -8.0      3.399      8.287
REMARK  4 active torsions:
REMARK  status: ('A' for Active; 'I' for Inactive)
REMARK    1  A    between atoms: C_2  and  O_3 
REMARK    2  A    between atoms: O_3  and  C_4 
REMARK    3  A    between atoms: C_9  and  C_10 
REMARK       I    between atoms: C_10  and  N_11 
REMARK    4  A    between atoms: N_11  and  C_12 
ROOT
HETATM    1  C   UNL     1      21.895  47.103  47.613  1.00  0.00     0.276 C 
HETATM    2  N   UNL     1      20.798  47.843  48.039  1.00  0.00    -0.350 N 
HETATM    3  O   UNL     1      21.997  46.687  46.464  1.00  0.00    -0.265 OA
HETATM    4  H   UNL     1      20.967  48.225  48.969  1.00  0.00     0.163 HD
ENDROOT
BRANCH   1   5
HETATM    5  C   UNL     1      22.880  46.867  48.648  1.00  0.00     0.150 A 
HETATM    6  O   UNL     1      22.999  45.597  49.151  1.00  0.00    -0.304 OA
HETATM    7  C   UNL     1      23.916  45.643  50.153  1.00  0.00     0.087 A 
HETATM    8  C   UNL     1      24.417  46.930  50.291  1.00  0.00     0.009 A 
HETATM    9  C   UNL     1      24.298  44.566  50.945  1.00  0.00     0.041 A 
HETATM   10  C   UNL     1      25.377  47.173  51.298  1.00  0.00     0.051 A 
HETATM   11  C   UNL     1      23.759  47.722  49.299  1.00  0.00    -0.009 A 
HETATM   12  C   UNL     1      25.776  46.116  52.128  1.00  0.00     0.069 A 
HETATM   13  C   UNL     1      25.243  44.834  51.942  1.00  0.00     0.039 A 
HETATM   14  C   UNL     1      23.950  49.172  49.037  1.00  0.00     0.052 C 
BRANCH  12  15
HETATM   15  O   UNL     1      26.676  46.207  53.155  1.00  0.00    -0.351 OA
BRANCH  15  16
HETATM   16  C   UNL     1      26.415  47.175  54.170  1.00  0.00     0.171 C 
HETATM   17  C   UNL     1      27.743  47.590  54.778  1.00  0.00     0.034 C 
ENDBRANCH  15  16
ENDBRANCH  12  15
ENDBRANCH   1   5
BRANCH   2  18
HETATM   18  C   UNL     1      19.946  48.635  47.162  1.00  0.00     0.089 C 
HETATM   19  C   UNL     1      20.186  50.136  47.378  1.00  0.00     0.063 C 
HETATM   20  C   UNL     1      19.495  50.738  48.615  1.00  0.00     0.121 C 
HETATM   21  C   UNL     1      20.198  50.408  49.936  1.00  0.00     0.046 C 
HETATM   22  C   UNL     1      19.467  52.275  48.477  1.00  0.00     0.046 C 
HETATM   23  N   UNL     1      18.047  50.302  48.669  1.00  0.00    -0.059 N 
HETATM   24  H   UNL     1      17.528  50.877  47.990  1.00  0.00     0.279 HD
HETATM   25  H   UNL     1      17.651  50.573  49.582  1.00  0.00     0.279 HD
HETATM   26  C   UNL     1      17.673  48.857  48.397  1.00  0.00     0.121 C 
HETATM   27  C   UNL     1      16.162  48.864  48.079  1.00  0.00     0.046 C 
HETATM   28  C   UNL     1      17.869  48.017  49.662  1.00  0.00     0.046 C 
HETATM   29  C   UNL     1      18.436  48.364  47.164  1.00  0.00     0.063 C 
ENDBRANCH   2  18
TORSDOF 4
ENDMDL
MODEL 3
REMARK VINA RESULT:      -7.9      1.452      2.136
REMARK  4 active torsions:
REMARK  status: ('A' for Active; 'I' for Inactive)
REMARK    1  A    between atoms: C_2  and  O_3 
REMARK    2  A    between atoms: O_3  and  C_4 
REMARK    3  A    between atoms: C_9  and  C_10 
REMARK       I    between atoms: C_10  and  N_11 
REMARK    4  A    between atoms: N_11  and  C_12 
ROOT
HETATM    1  C   UNL     1      26.229  46.673  49.697  1.00  0.00     0.276 C 
HETATM    2  N   UNL     1      26.216  45.569  50.540  1.00  0.00    -0.350 N 
HETATM    3  O   UNL     1      27.265  47.120  49.219  1.00  0.00    -0.265 OA
HETATM    4  H   UNL     1      25.259  45.260  50.707  1.00  0.00     0.163 HD
ENDROOT
BRANCH   1   5
HETATM    5  C   UNL     1      24.918  47.241  49.457  1.00  0.00     0.150 A 
HETATM    6  O   UNL     1      24.749  48.588  49.655  1.00  0.00    -0.304 OA
HETATM    7  C   UNL     1      23.435  48.865  49.449  1.00  0.00     0.087 A 
HETATM    8  C   UNL     1      22.748  47.714  49.090  1.00  0.00     0.009 A 
HETATM    9  C   UNL     1      22.845  50.117  49.586  1.00  0.00     0.041 A 
HETATM   10  C   UNL     1      21.360  47.807  48.848  1.00  0.00     0.051 A 
HETATM   11  C   UNL     1      23.715  46.662  49.075  1.00  0.00    -0.009 A 
HETATM   12  C   UNL     1      20.725  49.049  48.993  1.00  0.00     0.069 A 
HETATM   13  C   UNL     1      21.467  50.182  49.350  1.00  0.00     0.039 A 
HETATM   14  C   UNL     1      23.480  45.231  48.750  1.00  0.00     0.052 C 
BRANCH  12  15
HETATM   15  O   UNL     1      19.389  49.285  48.813  1.00  0.00    -0.351 OA
BRANCH  15  16
HETATM   16  C   UNL     1      18.475  48.413  49.478  1.00  0.00     0.171 C 
HETATM   17  C   UNL     1      18.556  48.694  50.967  1.00  0.00     0.034 C 
ENDBRANCH  15  16
ENDBRANCH  12  15
ENDBRANCH   1   5
BRANCH   2  18
HETATM   18  C   UNL     1      27.240  44.532  50.557  1.00  0.00     0.089 C 
HETATM   19  C   UNL     1      26.726  43.246  49.895  1.00  0.00     0.063 C 
HETATM   20  C   UNL     1      25.812  42.376  50.777  1.00  0.00     0.121 C 
HETATM   21  C   UNL     1      24.383  42.914  50.904  1.00  0.00     0.046 C 
HETATM   22  C   UNL     1      25.720  40.962  50.166  1.00  0.00     0.046 C 
HETATM   23  N   UNL     1      26.427  42.195  52.148  1.00  0.00    -0.059 N 
HETATM   24  H   UNL     1      27.167  41.483  52.060  1.00  0.00     0.279 HD
HETATM   25  H   UNL     1      25.731  41.756  52.770  1.00  0.00     0.279 HD
HETATM   26  C   UNL     1      27.039  43.378  52.875  1.00  0.00     0.121 C 
HETATM   27  C   UNL     1      27.949  42.778  53.968  1.00  0.00     0.046 C 
HETATM   28  C   UNL     1      25.946  44.182  53.582  1.00  0.00     0.046 C 
HETATM   29  C   UNL     1      27.903  44.176  51.894  1.00  0.00     0.063 C 
ENDBRANCH   2  18
TORSDOF 4
ENDMDL
MODEL 4
REMARK VINA RESULT:      -7.8      5.640      8.532
REMARK  4 active torsions:
REMARK  status: ('A' for Active; 'I' for Inactive)
REMARK    1  A    between atoms: C_2  and  O_3 
REMARK    2  A    between atoms: O_3  and  C_4 
REMARK    3  A    between atoms: C_9  and  C_10 
REMARK       I    between atoms: C_10  and  N_11 
REMARK    4  A    between atoms: N_11  and  C_12 
ROOT
HETATM    1  C   UNL     1      26.029  42.429  50.934  1.00  0.00     0.276 C 
HETATM    2  N   UNL     1      26.573  41.507  50.048  1.00  0.00    -0.350 N 
HETATM    3  O   UNL     1      24.859  42.790  50.866  1.00  0.00    -0.265 OA
HETATM    4  H   UNL     1      27.501  41.221  50.359  1.00  0.00     0.163 HD
ENDROOT
BRANCH   1   5
HETATM    5  C   UNL     1      26.970  42.919  51.920  1.00  0.00     0.150 A 
HETATM    6  O   UNL     1      28.226  42.369  51.947  1.00  0.00    -0.304 OA
HETATM    7  C   UNL     1      28.888  42.924  52.995  1.00  0.00     0.087 A 
HETATM    8  C   UNL     1      28.084  43.854  53.638  1.00  0.00     0.009 A 
HETATM    9  C   UNL     1      30.184  42.606  53.388  1.00  0.00     0.041 A 
HETATM   10  C   UNL     1      28.603  44.527  54.765  1.00  0.00     0.051 A 
HETATM   11  C   UNL     1      26.844  43.867  52.927  1.00  0.00    -0.009 A 
HETATM   12  C   UNL     1      29.899  44.222  55.203  1.00  0.00     0.069 A 
HETATM   13  C   UNL     1      30.672  43.279  54.514  1.00  0.00     0.039 A 
HETATM   14  C   UNL     1      25.648  44.699  53.222  1.00  0.00     0.052 C 
BRANCH  12  15
HETATM   15  O   UNL     1      30.523  44.776  56.288  1.00  0.00    -0.351 OA
BRANCH  15  16
HETATM   16  C   UNL     1      29.866  45.864  56.937  1.00  0.00     0.171 C 
HETATM   17  C   UNL     1      30.055  45.703  58.434  1.00  0.00     0.034 C 
ENDBRANCH  15  16
ENDBRANCH  12  15
ENDBRANCH   1   5
BRANCH   2  18
HETATM   18  C   UNL     1      25.802  40.509  49.319  1.00  0.00     0.089 C 
HETATM   19  C   UNL     1      26.105  39.097  49.840  1.00  0.00     0.063 C 
HETATM   20  C   UNL     1      27.417  38.477  49.326  1.00  0.00     0.121 C 
HETATM   21  C   UNL     1      28.670  39.029  50.013  1.00  0.00     0.046 C 
HETATM   22  C   UNL     1      27.386  36.954  49.575  1.00  0.00     0.046 C 
HETATM   23  N   UNL     1      27.524  38.648  47.826  1.00  0.00    -0.059 N 
HETATM   24  H   UNL     1      26.917  37.938  47.393  1.00  0.00     0.279 HD
HETATM   25  H   UNL     1      28.474  38.381  47.527  1.00  0.00     0.279 HD
HETATM   26  C   UNL     1      27.177  39.977  47.181  1.00  0.00     0.121 C 
HETATM   27  C   UNL     1      26.946  39.673  45.685  1.00  0.00     0.046 C 
HETATM   28  C   UNL     1      28.368  40.933  47.274  1.00  0.00     0.046 C 
HETATM   29  C   UNL     1      25.872  40.503  47.786  1.00  0.00     0.063 C 
ENDBRANCH   2  18
TORSDOF 4
ENDMDL
MODEL 5
REMARK VINA RESULT:      -7.7      3.077      8.605
REMARK  4 active torsions:
REMARK  status: ('A' for Active; 'I' for Inactive)
REMARK    1  A    between atoms: C_2  and  O_3 
REMARK    2  A    between atoms: O_3  and  C_4 
REMARK    3  A    between atoms: C_9  and  C_10 
REMARK       I    between atoms: C_10  and  N_11 
REMARK    4  A    between atoms: N_11  and  C_12 
ROOT
HETATM    1  C   UNL     1      23.294  48.574  48.853  1.00  0.00     0.276 C 
HETATM    2  N   UNL     1      22.032  49.001  49.246  1.00  0.00    -0.350 N 
HETATM    3  O   UNL     1      23.840  48.991  47.838  1.00  0.00    -0.265 OA
HETATM    4  H   UNL     1      21.818  48.663  50.184  1.00  0.00     0.163 HD
ENDROOT
BRANCH   1   5
HETATM    5  C   UNL     1      23.883  47.593  49.742  1.00  0.00     0.150 A 
HETATM    6  O   UNL     1      24.655  48.042  50.783  1.00  0.00    -0.304 OA
HETATM    7  C   UNL     1      25.157  46.950  51.415  1.00  0.00     0.087 A 
HETATM    8  C   UNL     1      24.697  45.788  50.812  1.00  0.00     0.009 A 
HETATM    9  C   UNL     1      26.020  46.977  52.506  1.00  0.00     0.041 A 
HETATM   10  C   UNL     1      25.127  44.546  51.330  1.00  0.00     0.051 A 
HETATM   11  C   UNL     1      23.852  46.205  49.737  1.00  0.00    -0.009 A 
HETATM   12  C   UNL     1      26.011  44.531  52.417  1.00  0.00     0.069 A 
HETATM   13  C   UNL     1      26.440  45.734  52.993  1.00  0.00     0.039 A 
HETATM   14  C   UNL     1      23.116  45.334  48.785  1.00  0.00     0.052 C 
BRANCH  12  15
HETATM   15  O   UNL     1      26.528  43.410  53.007  1.00  0.00    -0.351 OA
BRANCH  15  16
HETATM   16  C   UNL     1      27.935  43.382  53.241  1.00  0.00     0.171 C 
HETATM   17  C   UNL     1      28.318  41.971  53.648  1.00  0.00     0.034 C 
ENDBRANCH  15  16
ENDBRANCH  12  15
ENDBRANCH   1   5
BRANCH   2  18
HETATM   18  C   UNL     1      21.440  50.279  48.872  1.00  0.00     0.089 C 
HETATM   19  C   UNL     1      20.320  50.669  49.848  1.00  0.00     0.063 C 
HETATM   20  C   UNL     1      18.973  49.962  49.614  1.00  0.00     0.121 C 
HETATM   21  C   UNL     1      18.942  48.514  50.114  1.00  0.00     0.046 C 
HETATM   22  C   UNL     1      17.864  50.733  50.360  1.00  0.00     0.046 C 
HETATM   23  N   UNL     1      18.600  50.017  48.148  1.00  0.00    -0.059 N 
HETATM   24  H   UNL     1      18.236  50.963  47.961  1.00  0.00     0.279 HD
HETATM   25  H   UNL     1      17.789  49.401  47.987  1.00  0.00     0.279 HD
HETATM   26  C   UNL     1      19.640  49.727  47.083  1.00  0.00     0.121 C 
HETATM   27  C   UNL     1      19.075  50.311  45.769  1.00  0.00     0.046 C 
HETATM   28  C   UNL     1      19.783  48.216  46.886  1.00  0.00     0.046 C 
HETATM   29  C   UNL     1      20.937  50.462  47.434  1.00  0.00     0.063 C 
ENDBRANCH   2  18
TORSDOF 4
ENDMDL
MODEL 6
REMARK VINA RESULT:      -7.6     10.668     13.952
REMARK  4 active torsions:
REMARK  status: ('A' for Active; 'I' for Inactive)
REMARK    1  A    between atoms: C_2  and  O_3 
REMARK    2  A    between atoms: O_3  and  C_4 
REMARK    3  A    between atoms: C_9  and  C_10 
REMARK       I    between atoms: C_10  and  N_11 
REMARK    4  A    between atoms: N_11  and  C_12 
ROOT
HETATM    1  C   UNL     1      33.123  49.207  41.247  1.00  0.00     0.276 C 
HETATM    2  N   UNL     1      32.022  49.814  40.656  1.00  0.00    -0.350 N 
HETATM    3  O   UNL     1      33.286  47.992  41.232  1.00  0.00    -0.265 OA
HETATM    4  H   UNL     1      32.141  50.827  40.638  1.00  0.00     0.163 HD
ENDROOT
BRANCH   1   5
HETATM    5  C   UNL     1      34.035  50.137  41.881  1.00  0.00     0.150 A 
HETATM    6  O   UNL     1      35.347  50.129  41.484  1.00  0.00    -0.304 OA
HETATM    7  C   UNL     1      36.012  51.016  42.269  1.00  0.00     0.087 A 
HETATM    8  C   UNL     1      35.138  51.625  43.159  1.00  0.00     0.009 A 
HETATM    9  C   UNL     1      37.377  51.280  42.210  1.00  0.00     0.041 A 
HETATM   10  C   UNL     1      35.657  52.572  44.069  1.00  0.00     0.051 A 
HETATM   11  C   UNL     1      33.849  51.068  42.894  1.00  0.00    -0.009 A 
HETATM   12  C   UNL     1      37.030  52.852  44.052  1.00  0.00     0.069 A 
HETATM   13  C   UNL     1      37.868  52.215  43.128  1.00  0.00     0.039 A 
HETATM   14  C   UNL     1      32.572  51.393  43.581  1.00  0.00     0.052 C 
BRANCH  12  15
HETATM   15  O   UNL     1      37.674  53.727  44.885  1.00  0.00    -0.351 OA
BRANCH  15  16
HETATM   16  C   UNL     1      38.233  53.195  46.086  1.00  0.00     0.171 C 
HETATM   17  C   UNL     1      38.282  54.309  47.115  1.00  0.00     0.034 C 
ENDBRANCH  15  16
ENDBRANCH  12  15
ENDBRANCH   1   5
BRANCH   2  18
HETATM   18  C   UNL     1      31.247  49.238  39.565  1.00  0.00     0.089 C 
HETATM   19  C   UNL     1      30.451  50.323  38.827  1.00  0.00     0.063 C 
HETATM   20  C   UNL     1      29.155  50.773  39.526  1.00  0.00     0.121 C 
HETATM   21  C   UNL     1      29.389  51.713  40.713  1.00  0.00     0.046 C 
HETATM   22  C   UNL     1      28.269  51.524  38.509  1.00  0.00     0.046 C 
HETATM   23  N   UNL     1      28.351  49.568  39.963  1.00  0.00    -0.059 N 
HETATM   24  H   UNL     1      27.876  49.197  39.128  1.00  0.00     0.279 HD
HETATM   25  H   UNL     1      27.579  49.884  40.570  1.00  0.00     0.279 HD
HETATM   26  C   UNL     1      29.037  48.393  40.636  1.00  0.00     0.121 C 
HETATM   27  C   UNL     1      28.056  47.206  40.518  1.00  0.00     0.046 C 
HETATM   28  C   UNL     1      29.229  48.681  42.127  1.00  0.00     0.046 C 
HETATM   29  C   UNL     1      30.318  48.054  39.869  1.00  0.00     0.063 C 
ENDBRANCH   2  18
TORSDOF 4
ENDMDL
MODEL 7
REMARK VINA RESULT:      -7.5     10.430     11.880
REMARK  4 active torsions:
REMARK  status: ('A' for Active; 'I' for Inactive)
REMARK    1  A    between atoms: C_2  and  O_3 
REMARK    2  A    between atoms: O_3  and  C_4 
REMARK    3  A    between atoms: C_9  and  C_10 
REMARK       I    between atoms: C_10  and  N_11 
REMARK    4  A    between atoms: N_11  and  C_12 
ROOT
HETATM    1  C   UNL     1      30.368  48.620  40.136  1.00  0.00     0.276 C 
HETATM    2  N   UNL     1      30.984  49.570  40.941  1.00  0.00    -0.350 N 
HETATM    3  O   UNL     1      30.956  47.621  39.735  1.00  0.00    -0.265 OA
HETATM    4  H   UNL     1      30.297  50.236  41.293  1.00  0.00     0.163 HD
ENDROOT
BRANCH   1   5
HETATM    5  C   UNL     1      28.989  48.929  39.814  1.00  0.00     0.150 A 
HETATM    6  O   UNL     1      28.006  48.138  40.351  1.00  0.00    -0.304 OA
HETATM    7  C   UNL     1      26.821  48.567  39.845  1.00  0.00     0.087 A 
HETATM    8  C   UNL     1      27.019  49.652  39.002  1.00  0.00     0.009 A 
HETATM    9  C   UNL     1      25.578  48.003  40.115  1.00  0.00     0.041 A 
HETATM   10  C   UNL     1      25.894  50.227  38.371  1.00  0.00     0.051 A 
HETATM   11  C   UNL     1      28.427  49.900  38.998  1.00  0.00    -0.009 A 
HETATM   12  C   UNL     1      24.627  49.676  38.604  1.00  0.00     0.069 A 
HETATM   13  C   UNL     1      24.481  48.584  39.469  1.00  0.00     0.039 A 
HETATM   14  C   UNL     1      29.148  50.961  38.247  1.00  0.00     0.052 C 
BRANCH  12  15
HETATM   15  O   UNL     1      23.455  50.112  38.046  1.00  0.00    -0.351 OA
BRANCH  15  16
HETATM   16  C   UNL     1      22.250  49.846  38.764  1.00  0.00     0.171 C 
HETATM   17  C   UNL     1      21.925  51.065  39.607  1.00  0.00     0.034 C 
ENDBRANCH  15  16
ENDBRANCH  12  15
ENDBRANCH   1   5
BRANCH   2  18
HETATM   18  C   UNL     1      32.126  49.304  41.805  1.00  0.00     0.089 C 
HETATM   19  C   UNL     1      31.947  49.984  43.171  1.00  0.00     0.063 C 
HETATM   20  C   UNL     1      32.261  51.491  43.197  1.00  0.00     0.121 C 
HETATM   21  C   UNL     1      31.157  52.362  42.589  1.00  0.00     0.046 C 
HETATM   22  C   UNL     1      32.450  51.940  44.662  1.00  0.00     0.046 C 
HETATM   23  N   UNL     1      33.581  51.763  42.509  1.00  0.00    -0.059 N 
HETATM   24  H   UNL     1      34.329  51.505  43.169  1.00  0.00     0.279 HD
HETATM   25  H   UNL     1      33.692  52.781  42.390  1.00  0.00     0.279 HD
HETATM   26  C   UNL     1      33.909  51.089  41.190  1.00  0.00     0.121 C 
HETATM   27  C   UNL     1      35.440  51.207  41.023  1.00  0.00     0.046 C 
HETATM   28  C   UNL     1      33.263  51.857  40.034  1.00  0.00     0.046 C 
HETATM   29  C   UNL     1      33.534  49.607  41.276  1.00  0.00     0.063 C 
ENDBRANCH   2  18
TORSDOF 4
ENDMDL
MODEL 8
REMARK VINA RESULT:      -7.4     10.185     12.266
REMARK  4 active torsions:
REMARK  status: ('A' for Active; 'I' for Inactive)
REMARK    1  A    between atoms: C_2  and  O_3 
REMARK    2  A    between atoms: O_3  and  C_4 
REMARK    3  A    between atoms: C_9  and  C_10 
REMARK       I    between atoms: C_10  and  N_11 
REMARK    4  A    between atoms: N_11  and  C_12 
ROOT
HETATM    1  C   UNL     1      28.052  51.471  41.280  1.00  0.00     0.276 C 
HETATM    2  N   UNL     1      29.329  51.390  41.822  1.00  0.00    -0.350 N 
HETATM    3  O   UNL     1      27.373  52.489  41.354  1.00  0.00    -0.265 OA
HETATM    4  H   UNL     1      29.787  50.528  41.526  1.00  0.00     0.163 HD
ENDROOT
BRANCH   1   5
HETATM    5  C   UNL     1      27.608  50.248  40.642  1.00  0.00     0.150 A 
HETATM    6  O   UNL     1      27.531  49.111  41.404  1.00  0.00    -0.304 OA
HETATM    7  C   UNL     1      27.177  48.093  40.577  1.00  0.00     0.087 A 
HETATM    8  C   UNL     1      26.995  48.561  39.284  1.00  0.00     0.009 A 
HETATM    9  C   UNL     1      27.026  46.763  40.956  1.00  0.00     0.041 A 
HETATM   10  C   UNL     1      26.635  47.637  38.279  1.00  0.00     0.051 A 
HETATM   11  C   UNL     1      27.255  49.966  39.329  1.00  0.00    -0.009 A 
HETATM   12  C   UNL     1      26.490  46.285  38.617  1.00  0.00     0.069 A 
HETATM   13  C   UNL     1      26.679  45.865  39.940  1.00  0.00     0.039 A 
HETATM   14  C   UNL     1      27.194  50.927  38.197  1.00  0.00     0.052 C 
BRANCH  12  15
HETATM   15  O   UNL     1      26.168  45.277  37.748  1.00  0.00    -0.351 OA
BRANCH  15  16
HETATM   16  C   UNL     1      25.018  44.491  38.056  1.00  0.00     0.171 C 
HETATM   17  C   UNL     1      23.788  45.260  37.609  1.00  0.00     0.034 C 
ENDBRANCH  15  16
ENDBRANCH  12  15
ENDBRANCH   1   5
BRANCH   2  18
HETATM   18  C   UNL     1      30.200  52.534  42.055  1.00  0.00     0.089 C 
HETATM   19  C   UNL     1      30.979  52.897  40.783  1.00  0.00     0.063 C 
HETATM   20  C   UNL     1      32.202  52.009  40.489  1.00  0.00     0.121 C 
HETATM   21  C   UNL     1      31.843  50.636  39.912  1.00  0.00     0.046 C 
HETATM   22  C   UNL     1      33.106  52.721  39.461  1.00  0.00     0.046 C 
HETATM   23  N   UNL     1      33.044  51.848  41.737  1.00  0.00    -0.059 N 
HETATM   24  H   UNL     1      33.589  52.714  41.852  1.00  0.00     0.279 HD
HETATM   25  H   UNL     1      33.757  51.123  41.567  1.00  0.00     0.279 HD
HETATM   26  C   UNL     1      32.383  51.564  43.074  1.00  0.00     0.121 C 
HETATM   27  C   UNL     1      33.434  51.919  44.148  1.00  0.00     0.046 C 
HETATM   28  C   UNL     1      32.084  50.069  43.204  1.00  0.00     0.046 C 
HETATM   29  C   UNL     1      31.173  52.487  43.242  1.00  0.00     0.063 C 
ENDBRANCH   2  18
TORSDOF 4
ENDMDL
MODEL 9
REMARK VINA RESULT:      -7.2      4.616     10.368
REMARK  4 active torsions:
REMARK  status: ('A' for Active; 'I' for Inactive)
REMARK    1  A    between atoms: C_2  and  O_3 
REMARK    2  A    between atoms: O_3  and  C_4 
REMARK    3  A    between atoms: C_9  and  C_10 
REMARK       I    between atoms: C_10  and  N_11 
REMARK    4  A    between atoms: N_11  and  C_12 
ROOT
HETATM    1  C   UNL     1      18.092  51.320  49.269  1.00  0.00     0.276 C 
HETATM    2  N   UNL     1      17.566  51.552  48.004  1.00  0.00    -0.350 N 
HETATM    3  O   UNL     1      17.477  51.594  50.294  1.00  0.00    -0.265 OA
HETATM    4  H   UNL     1      18.153  51.119  47.291  1.00  0.00     0.163 HD
ENDROOT
BRANCH   1   5
HETATM    5  C   UNL     1      19.421  50.742  49.254  1.00  0.00     0.150 A 
HETATM    6  O   UNL     1      20.481  51.564  48.968  1.00  0.00    -0.304 OA
HETATM    7  C   UNL     1      21.595  50.788  48.932  1.00  0.00     0.087 A 
HETATM    8  C   UNL     1      21.276  49.469  49.219  1.00  0.00     0.009 A 
HETATM    9  C   UNL     1      22.879  51.236  48.637  1.00  0.00     0.041 A 
HETATM   10  C   UNL     1      22.313  48.510  49.215  1.00  0.00     0.051 A 
HETATM   11  C   UNL     1      19.865  49.442  49.449  1.00  0.00    -0.009 A 
HETATM   12  C   UNL     1      23.617  48.919  48.906  1.00  0.00     0.069 A 
HETATM   13  C   UNL     1      23.887  50.265  48.629  1.00  0.00     0.039 A 
HETATM   14  C   UNL     1      19.035  48.259  49.795  1.00  0.00     0.052 C 
BRANCH  12  15
HETATM   15  O   UNL     1      24.713  48.101  48.842  1.00  0.00    -0.351 OA
BRANCH  15  16
HETATM   16  C   UNL     1      25.969  48.660  49.225  1.00  0.00     0.171 C 
HETATM   17  C   UNL     1      26.521  47.835  50.373  1.00  0.00     0.034 C 
ENDBRANCH  15  16
ENDBRANCH  12  15
ENDBRANCH   1   5
BRANCH   2  18
HETATM   18  C   UNL     1      16.143  51.635  47.704  1.00  0.00     0.089 C 
HETATM   19  C   UNL     1      15.513  50.235  47.654  1.00  0.00     0.063 C 
HETATM   20  C   UNL     1      15.755  49.456  46.349  1.00  0.00     0.121 C 
HETATM   21  C   UNL     1      17.161  48.857  46.240  1.00  0.00     0.046 C 
HETATM   22  C   UNL     1      14.748  48.289  46.264  1.00  0.00     0.046 C 
HETATM   23  N   UNL     1      15.468  50.337  45.152  1.00  0.00    -0.059 N 
HETATM   24  H   UNL     1      14.445  50.378  45.041  1.00  0.00     0.279 HD
HETATM   25  H   UNL     1      15.793  49.857  44.299  1.00  0.00     0.279 HD
HETATM   26  C   UNL     1      15.972  51.767  45.117  1.00  0.00     0.121 C 
HETATM   27  C   UNL     1      15.137  52.483  44.032  1.00  0.00     0.046 C 
HETATM   28  C   UNL     1      17.433  51.799  44.662  1.00  0.00     0.046 C 
HETATM   29  C   UNL     1      15.697  52.430  46.470  1.00  0.00     0.063 C 
ENDBRANCH   2  18
TORSDOF 4
ENDMDL
MODEL 10
REMARK VINA RESULT:      -7.2      4.570      8.425
REMARK  4 active torsions:
REMARK  status: ('A' for Active; 'I' for Inactive)
REMARK    1  A    between atoms: C_2  and  O_3 
REMARK    2  A    between atoms: O_3  and  C_4 
REMARK    3  A    between atoms: C_9  and  C_10 
REMARK       I    between atoms: C_10  and  N_11 
REMARK    4  A    between atoms: N_11  and  C_12 
ROOT
HETATM    1  C   UNL     1      25.338  43.773  52.291  1.00  0.00     0.276 C 
HETATM    2  N   UNL     1      25.630  42.765  51.381  1.00  0.00    -0.350 N 
HETATM    3  O   UNL     1      24.264  44.364  52.292  1.00  0.00    -0.265 OA
HETATM    4  H   UNL     1      26.499  42.296  51.636  1.00  0.00     0.163 HD
ENDROOT
BRANCH   1   5
HETATM    5  C   UNL     1      26.418  44.058  53.215  1.00  0.00     0.150 A 
HETATM    6  O   UNL     1      26.474  45.307  53.780  1.00  0.00    -0.304 OA
HETATM    7  C   UNL     1      27.603  45.359  54.533  1.00  0.00     0.087 A 
HETATM    8  C   UNL     1      28.272  44.144  54.487  1.00  0.00     0.009 A 
HETATM    9  C   UNL     1      28.046  46.469  55.245  1.00  0.00     0.041 A 
HETATM   10  C   UNL     1      29.482  44.015  55.204  1.00  0.00     0.051 A 
HETATM   11  C   UNL     1      27.491  43.291  53.647  1.00  0.00    -0.009 A 
HETATM   12  C   UNL     1      29.970  45.117  55.920  1.00  0.00     0.069 A 
HETATM   13  C   UNL     1      29.252  46.319  55.939  1.00  0.00     0.039 A 
HETATM   14  C   UNL     1      27.783  41.881  53.280  1.00  0.00     0.052 C 
BRANCH  12  15
HETATM   15  O   UNL     1      31.134  45.146  56.640  1.00  0.00    -0.351 OA
BRANCH  15  16
HETATM   16  C   UNL     1      31.264  44.212  57.711  1.00  0.00     0.171 C 
HETATM   17  C   UNL     1      32.118  43.055  57.226  1.00  0.00     0.034 C 
ENDBRANCH  15  16
ENDBRANCH  12  15
ENDBRANCH   1   5
BRANCH   2  18
HETATM   18  C   UNL     1      24.630  41.947  50.707  1.00  0.00     0.089 C 
HETATM   19  C   UNL     1      25.299  40.887  49.821  1.00  0.00     0.063 C 
HETATM   20  C   UNL     1      25.814  41.398  48.464  1.00  0.00     0.121 C 
HETATM   21  C   UNL     1      27.125  42.185  48.558  1.00  0.00     0.046 C 
HETATM   22  C   UNL     1      26.065  40.192  47.533  1.00  0.00     0.046 C 
HETATM   23  N   UNL     1      24.751  42.232  47.781  1.00  0.00    -0.059 N 
HETATM   24  H   UNL     1      24.065  41.580  47.374  1.00  0.00     0.279 HD
HETATM   25  H   UNL     1      25.168  42.699  46.962  1.00  0.00     0.279 HD
HETATM   26  C   UNL     1      23.965  43.263  48.569  1.00  0.00     0.121 C 
HETATM   27  C   UNL     1      22.708  43.572  47.726  1.00  0.00     0.046 C 
HETATM   28  C   UNL     1      24.767  44.561  48.683  1.00  0.00     0.046 C 
HETATM   29  C   UNL     1      23.528  42.649  49.902  1.00  0.00     0.063 C 
ENDBRANCH   2  18
TORSDOF 4
ENDMDL
