MODEL 1
REMARK VINA RESULT:     -10.2      0.000      0.000
REMARK  7 active torsions:
REMARK  status: ('A' for Active; 'I' for Inactive)
REMARK    1  A    between atoms: C_4  and  C_5 
REMARK    2  A    between atoms: C_5  and  C_6 
REMARK    3  A    between atoms: C_6  and  C_7 
REMARK    4  A    between atoms: C_7  and  N_8 
REMARK    5  A    between atoms: C_12  and  O_13 
REMARK    6  A    between atoms: C_12  and  C_14 
REMARK    7  A    between atoms: C_19  and  C_20 
REMARK       I    between atoms: C_20  and  N_21 
ROOT
HETATM    1  C   UNL     1      24.841  46.547  49.447  1.00  0.00    -0.023 A 
HETATM    2  C   UNL     1      24.066  47.722  49.305  1.00  0.00     0.024 A 
HETATM    3  C   UNL     1      22.742  47.654  48.820  1.00  0.00     0.001 A 
HETATM    4  C   UNL     1      22.212  46.414  48.505  1.00  0.00     0.086 A 
HETATM    5  O   UNL     1      20.931  46.541  48.063  1.00  0.00    -0.304 OA
HETATM    6  C   UNL     1      20.618  47.873  48.080  1.00  0.00     0.144 A 
HETATM    7  C   UNL     1      21.705  48.586  48.564  1.00  0.00     0.057 A 
HETATM    8  C   UNL     1      22.907  45.222  48.655  1.00  0.00     0.039 A 
HETATM    9  C   UNL     1      24.222  45.315  49.144  1.00  0.00     0.013 A 
ENDROOT
BRANCH   1  10
HETATM   10  C   UNL     1      26.270  46.600  50.013  1.00  0.00     0.088 C 
HETATM   11  C   UNL     1      27.014  45.251  50.048  1.00  0.00     0.071 C 
HETATM   12  C   UNL     1      26.424  44.293  51.070  1.00  0.00     0.238 C 
HETATM   13  N   UNL     1      26.461  44.913  52.450  1.00  0.00    -0.071 N 
HETATM   14  H   UNL     1      27.449  45.054  52.709  1.00  0.00     0.279 HD
HETATM   15  C   UNL     1      25.790  46.272  52.484  1.00  0.00     0.238 C 
HETATM   16  C   UNL     1      26.395  47.186  51.435  1.00  0.00     0.071 C 
BRANCH  13  17
HETATM   17  C   UNL     1      25.844  44.014  53.518  1.00  0.00     0.235 C 
BRANCH  17  18
HETATM   18  C   UNL     1      26.881  43.576  54.554  1.00  0.00     0.038 C 
BRANCH  18  19
HETATM   19  C   UNL     1      28.318  43.674  54.001  1.00  0.00     0.040 C 
HETATM   20  C   UNL     1      28.812  42.298  53.548  1.00  0.00     0.017 C 
BRANCH  19  21
HETATM   21  C   UNL     1      29.233  44.280  55.016  1.00  0.00     0.057 A 
HETATM   22  O   UNL     1      30.186  43.442  55.518  1.00  0.00    -0.319 OA
HETATM   23  C   UNL     1      30.916  44.156  56.420  1.00  0.00     0.049 A 
HETATM   24  C   UNL     1      31.985  43.424  57.128  1.00  0.00     0.076 C 
HETATM   25  C   UNL     1      30.462  45.455  56.472  1.00  0.00     0.035 A 
HETATM   26  C   UNL     1      29.378  45.537  55.565  1.00  0.00     0.035 A 
ENDBRANCH  19  21
ENDBRANCH  18  19
ENDBRANCH  17  18
ENDBRANCH  13  17
BRANCH  10  27
HETATM   27  O   UNL     1      27.036  47.457  49.161  1.00  0.00    -0.385 OA
HETATM   28  H   UNL     1      27.701  46.936  48.673  1.00  0.00     0.211 HD
ENDBRANCH  10  27
ENDBRANCH   1  10
BRANCH   6  29
HETATM   29  C   UNL     1      19.300  48.363  47.710  1.00  0.00     0.277 C 
HETATM   30  N   UNL     1      18.286  48.533  48.668  1.00  0.00    -0.345 N 
HETATM   31  C   UNL     1      16.982  49.006  48.189  1.00  0.00     0.154 C 
HETATM   32  C   UNL     1      18.431  48.433  50.113  1.00  0.00     0.128 C 
HETATM   33  C   UNL     1      16.850  50.533  48.208  1.00  0.00     0.254 C 
HETATM   34  N   UNL     1      17.075  51.101  49.614  1.00  0.00    -0.073 N 
HETATM   35  H   UNL     1      16.506  50.557  50.275  1.00  0.00     0.279 HD
HETATM   36  C   UNL     1      16.545  52.514  49.694  1.00  0.00     0.269 C 
HETATM   37  C   UNL     1      18.524  51.036  50.047  1.00  0.00     0.236 C 
HETATM   38  C   UNL     1      18.874  49.738  50.769  1.00  0.00     0.048 C 
HETATM   39  O   UNL     1      19.048  48.639  46.534  1.00  0.00    -0.265 OA
ENDBRANCH   6  29
TORSDOF 7
ENDMDL
MODEL 2
REMARK VINA RESULT:     -10.0      1.289      1.905
REMARK  7 active torsions:
REMARK  status: ('A' for Active; 'I' for Inactive)
REMARK    1  A    between atoms: C_4  and  C_5 
REMARK    2  A    between atoms: C_5  and  C_6 
REMARK    3  A    between atoms: C_6  and  C_7 
REMARK    4  A    between atoms: C_7  and  N_8 
REMARK    5  A    between atoms: C_12  and  O_13 
REMARK    6  A    between atoms: C_12  and  C_14 
REMARK    7  A    between atoms: C_19  and  C_20 
REMARK       I    between atoms: C_20  and  N_21 
ROOT
HETATM    1  C   UNL     1      24.344  45.128  49.354  1.00  0.00    -0.023 A 
HETATM    2  C   UNL     1      23.062  44.959  48.778  1.00  0.00     0.024 A 
HETATM    3  C   UNL     1      22.218  46.070  48.566  1.00  0.00     0.001 A 
HETATM    4  C   UNL     1      22.677  47.329  48.914  1.00  0.00     0.086 A 
HETATM    5  O   UNL     1      21.738  48.274  48.633  1.00  0.00    -0.304 OA
HETATM    6  C   UNL     1      20.652  47.632  48.103  1.00  0.00     0.144 A 
HETATM    7  C   UNL     1      20.924  46.274  48.026  1.00  0.00     0.057 A 
HETATM    8  C   UNL     1      23.935  47.567  49.449  1.00  0.00     0.039 A 
HETATM    9  C   UNL     1      24.759  46.445  49.647  1.00  0.00     0.013 A 
ENDROOT
BRANCH   1  10
HETATM   10  C   UNL     1      25.291  43.933  49.553  1.00  0.00     0.088 C 
HETATM   11  C   UNL     1      24.982  43.046  50.775  1.00  0.00     0.071 C 
HETATM   12  C   UNL     1      25.267  43.754  52.089  1.00  0.00     0.238 C 
HETATM   13  N   UNL     1      26.715  44.186  52.147  1.00  0.00    -0.071 N 
HETATM   14  H   UNL     1      27.301  43.339  52.133  1.00  0.00     0.279 HD
HETATM   15  C   UNL     1      27.110  45.026  50.947  1.00  0.00     0.238 C 
HETATM   16  C   UNL     1      26.788  44.290  49.660  1.00  0.00     0.071 C 
BRANCH  13  17
HETATM   17  C   UNL     1      27.055  44.942  53.430  1.00  0.00     0.235 C 
BRANCH  17  18
HETATM   18  C   UNL     1      27.754  44.038  54.447  1.00  0.00     0.038 C 
BRANCH  18  19
HETATM   19  C   UNL     1      29.253  43.867  54.125  1.00  0.00     0.040 C 
HETATM   20  C   UNL     1      29.499  42.535  53.412  1.00  0.00     0.017 C 
BRANCH  19  21
HETATM   21  C   UNL     1      30.075  43.987  55.367  1.00  0.00     0.057 A 
HETATM   22  O   UNL     1      29.769  45.047  56.171  1.00  0.00    -0.319 OA
HETATM   23  C   UNL     1      30.611  44.998  57.240  1.00  0.00     0.049 A 
HETATM   24  C   UNL     1      30.487  46.091  58.226  1.00  0.00     0.076 C 
HETATM   25  C   UNL     1      31.430  43.894  57.147  1.00  0.00     0.035 A 
HETATM   26  C   UNL     1      31.082  43.239  55.941  1.00  0.00     0.035 A 
ENDBRANCH  19  21
ENDBRANCH  18  19
ENDBRANCH  17  18
ENDBRANCH  13  17
BRANCH  10  27
HETATM   27  O   UNL     1      25.163  43.090  48.404  1.00  0.00    -0.385 OA
HETATM   28  H   UNL     1      24.628  43.534  47.721  1.00  0.00     0.211 HD
ENDBRANCH  10  27
ENDBRANCH   1  10
BRANCH   6  29
HETATM   29  C   UNL     1      19.474  48.352  47.646  1.00  0.00     0.277 C 
HETATM   30  N   UNL     1      18.372  48.566  48.492  1.00  0.00    -0.345 N 
HETATM   31  C   UNL     1      17.221  49.280  47.928  1.00  0.00     0.154 C 
HETATM   32  C   UNL     1      18.306  48.286  49.919  1.00  0.00     0.128 C 
HETATM   33  C   UNL     1      17.295  50.798  48.127  1.00  0.00     0.254 C 
HETATM   34  N   UNL     1      17.403  51.167  49.611  1.00  0.00    -0.073 N 
HETATM   35  H   UNL     1      16.681  50.645  50.125  1.00  0.00     0.279 HD
HETATM   36  C   UNL     1      17.062  52.626  49.809  1.00  0.00     0.269 C 
HETATM   37  C   UNL     1      18.759  50.837  50.199  1.00  0.00     0.236 C 
HETATM   38  C   UNL     1      18.829  49.430  50.785  1.00  0.00     0.048 C 
HETATM   39  O   UNL     1      19.423  48.791  46.494  1.00  0.00    -0.265 OA
ENDBRANCH   6  29
TORSDOF 7
ENDMDL
MODEL 3
REMARK VINA RESULT:      -9.9      1.957      3.071
REMARK  7 active torsions:
REMARK  status: ('A' for Active; 'I' for Inactive)
REMARK    1  A    between atoms: C_4  and  C_5 
REMARK    2  A    between atoms: C_5  and  C_6 
REMARK    3  A    between atoms: C_6  and  C_7 
REMARK    4  A    between atoms: C_7  and  N_8 
REMARK    5  A    between atoms: C_12  and  O_13 
REMARK    6  A    between atoms: C_12  and  C_14 
REMARK    7  A    between atoms: C_19  and  C_20 
REMARK       I    between atoms: C_20  and  N_21 
ROOT
HETATM    1  C   UNL     1      25.934  45.269  49.895  1.00  0.00    -0.023 A 
HETATM    2  C   UNL     1      24.593  45.717  49.848  1.00  0.00     0.024 A 
HETATM    3  C   UNL     1      24.299  47.084  49.655  1.00  0.00     0.001 A 
HETATM    4  C   UNL     1      25.348  47.973  49.494  1.00  0.00     0.086 A 
HETATM    5  O   UNL     1      24.879  49.238  49.313  1.00  0.00    -0.304 OA
HETATM    6  C   UNL     1      23.513  49.182  49.363  1.00  0.00     0.144 A 
HETATM    7  C   UNL     1      23.121  47.865  49.549  1.00  0.00     0.057 A 
HETATM    8  C   UNL     1      26.683  47.593  49.494  1.00  0.00     0.039 A 
HETATM    9  C   UNL     1      26.950  46.225  49.684  1.00  0.00     0.013 A 
ENDROOT
BRANCH   1  10
HETATM   10  C   UNL     1      26.269  43.777  50.063  1.00  0.00     0.088 C 
HETATM   11  C   UNL     1      25.313  42.987  50.978  1.00  0.00     0.071 C 
HETATM   12  C   UNL     1      25.444  43.392  52.437  1.00  0.00     0.238 C 
HETATM   13  N   UNL     1      26.864  43.183  52.912  1.00  0.00    -0.071 N 
HETATM   14  H   UNL     1      27.072  42.175  52.863  1.00  0.00     0.279 HD
HETATM   15  C   UNL     1      27.872  43.892  52.028  1.00  0.00     0.238 C 
HETATM   16  C   UNL     1      27.691  43.475  50.581  1.00  0.00     0.071 C 
BRANCH  13  17
HETATM   17  C   UNL     1      27.071  43.611  54.363  1.00  0.00     0.235 C 
BRANCH  17  18
HETATM   18  C   UNL     1      28.360  44.417  54.535  1.00  0.00     0.038 C 
BRANCH  18  19
HETATM   19  C   UNL     1      28.228  45.474  55.651  1.00  0.00     0.040 C 
HETATM   20  C   UNL     1      28.212  46.884  55.056  1.00  0.00     0.017 C 
BRANCH  19  21
HETATM   21  C   UNL     1      29.322  45.315  56.658  1.00  0.00     0.057 A 
HETATM   22  O   UNL     1      30.232  44.335  56.382  1.00  0.00    -0.319 OA
HETATM   23  C   UNL     1      31.140  44.332  57.397  1.00  0.00     0.049 A 
HETATM   24  C   UNL     1      32.201  43.307  57.327  1.00  0.00     0.076 C 
HETATM   25  C   UNL     1      30.842  45.327  58.301  1.00  0.00     0.035 A 
HETATM   26  C   UNL     1      29.671  45.964  57.823  1.00  0.00     0.035 A 
ENDBRANCH  19  21
ENDBRANCH  18  19
ENDBRANCH  17  18
ENDBRANCH  13  17
BRANCH  10  27
HETATM   27  O   UNL     1      26.178  43.171  48.771  1.00  0.00    -0.385 OA
HETATM   28  H   UNL     1      25.432  42.543  48.747  1.00  0.00     0.211 HD
ENDBRANCH  10  27
ENDBRANCH   1  10
BRANCH   6  29
HETATM   29  C   UNL     1      22.683  50.359  49.160  1.00  0.00     0.277 C 
HETATM   30  N   UNL     1      21.556  50.325  48.320  1.00  0.00    -0.345 N 
HETATM   31  C   UNL     1      20.800  51.572  48.159  1.00  0.00     0.154 C 
HETATM   32  C   UNL     1      20.968  49.144  47.704  1.00  0.00     0.128 C 
HETATM   33  C   UNL     1      19.667  51.726  49.180  1.00  0.00     0.254 C 
HETATM   34  N   UNL     1      18.678  50.557  49.107  1.00  0.00    -0.073 N 
HETATM   35  H   UNL     1      18.426  50.412  48.121  1.00  0.00     0.279 HD
HETATM   36  C   UNL     1      17.388  50.924  49.803  1.00  0.00     0.269 C 
HETATM   37  C   UNL     1      19.252  49.270  49.660  1.00  0.00     0.236 C 
HETATM   38  C   UNL     1      19.962  48.430  48.603  1.00  0.00     0.048 C 
HETATM   39  O   UNL     1      22.958  51.418  49.729  1.00  0.00    -0.265 OA
ENDBRANCH   6  29
TORSDOF 7
ENDMDL
MODEL 4
REMARK VINA RESULT:      -9.8      2.818      9.571
REMARK  7 active torsions:
REMARK  status: ('A' for Active; 'I' for Inactive)
REMARK    1  A    between atoms: C_4  and  C_5 
REMARK    2  A    between atoms: C_5  and  C_6 
REMARK    3  A    between atoms: C_6  and  C_7 
REMARK    4  A    between atoms: C_7  and  N_8 
REMARK    5  A    between atoms: C_12  and  O_13 
REMARK    6  A    between atoms: C_12  and  C_14 
REMARK    7  A    between atoms: C_19  and  C_20 
REMARK       I    between atoms: C_20  and  N_21 
ROOT
HETATM    1  C   UNL     1      19.206  45.722  47.168  1.00  0.00    -0.023 A 
HETATM    2  C   UNL     1      19.857  45.177  48.299  1.00  0.00     0.024 A 
HETATM    3  C   UNL     1      21.242  44.905  48.269  1.00  0.00     0.001 A 
HETATM    4  C   UNL     1      21.952  45.200  47.118  1.00  0.00     0.086 A 
HETATM    5  O   UNL     1      23.266  44.881  47.272  1.00  0.00    -0.304 OA
HETATM    6  C   UNL     1      23.421  44.365  48.530  1.00  0.00     0.144 A 
HETATM    7  C   UNL     1      22.196  44.388  49.180  1.00  0.00     0.057 A 
HETATM    8  C   UNL     1      21.380  45.768  45.987  1.00  0.00     0.039 A 
HETATM    9  C   UNL     1      20.001  46.034  46.043  1.00  0.00     0.013 A 
ENDROOT
BRANCH   1  10
HETATM   10  C   UNL     1      17.707  46.063  47.199  1.00  0.00     0.088 C 
HETATM   11  C   UNL     1      17.270  47.198  46.253  1.00  0.00     0.071 C 
HETATM   12  C   UNL     1      17.797  48.553  46.696  1.00  0.00     0.238 C 
HETATM   13  N   UNL     1      17.320  48.868  48.096  1.00  0.00    -0.071 N 
HETATM   14  H   UNL     1      16.293  48.941  48.074  1.00  0.00     0.279 HD
HETATM   15  C   UNL     1      17.670  47.768  49.080  1.00  0.00     0.238 C 
HETATM   16  C   UNL     1      17.144  46.433  48.587  1.00  0.00     0.071 C 
BRANCH  13  17
HETATM   17  C   UNL     1      17.851  50.202  48.616  1.00  0.00     0.235 C 
BRANCH  17  18
HETATM   18  C   UNL     1      18.852  50.005  49.756  1.00  0.00     0.038 C 
BRANCH  18  19
HETATM   19  C   UNL     1      20.140  50.825  49.534  1.00  0.00     0.040 C 
HETATM   20  C   UNL     1      19.876  51.989  48.576  1.00  0.00     0.017 C 
BRANCH  19  21
HETATM   21  C   UNL     1      21.244  49.947  49.042  1.00  0.00     0.057 A 
HETATM   22  O   UNL     1      22.446  50.568  48.854  1.00  0.00    -0.319 OA
HETATM   23  C   UNL     1      23.321  49.625  48.405  1.00  0.00     0.049 A 
HETATM   24  C   UNL     1      24.685  50.093  48.088  1.00  0.00     0.076 C 
HETATM   25  C   UNL     1      22.700  48.397  48.340  1.00  0.00     0.035 A 
HETATM   26  C   UNL     1      21.362  48.603  48.753  1.00  0.00     0.035 A 
ENDBRANCH  19  21
ENDBRANCH  18  19
ENDBRANCH  17  18
ENDBRANCH  13  17
BRANCH  10  27
HETATM   27  O   UNL     1      16.994  44.896  46.779  1.00  0.00    -0.385 OA
HETATM   28  H   UNL     1      16.334  45.133  46.101  1.00  0.00     0.211 HD
ENDBRANCH  10  27
ENDBRANCH   1  10
BRANCH   6  29
HETATM   29  C   UNL     1      24.718  43.960  49.046  1.00  0.00     0.277 C 
HETATM   30  N   UNL     1      25.662  44.907  49.480  1.00  0.00    -0.345 N 
HETATM   31  C   UNL     1      26.953  44.398  49.958  1.00  0.00     0.154 C 
HETATM   32  C   UNL     1      25.445  46.337  49.646  1.00  0.00     0.128 C 
HETATM   33  C   UNL     1      26.973  44.124  51.465  1.00  0.00     0.254 C 
HETATM   34  N   UNL     1      26.629  45.382  52.272  1.00  0.00    -0.073 N 
HETATM   35  H   UNL     1      27.199  46.158  51.912  1.00  0.00     0.279 HD
HETATM   36  C   UNL     1      27.050  45.205  53.713  1.00  0.00     0.269 C 
HETATM   37  C   UNL     1      25.166  45.759  52.172  1.00  0.00     0.236 C 
HETATM   38  C   UNL     1      24.872  46.706  51.013  1.00  0.00     0.048 C 
HETATM   39  O   UNL     1      25.014  42.764  49.112  1.00  0.00    -0.265 OA
ENDBRANCH   6  29
TORSDOF 7
ENDMDL
MODEL 5
REMARK VINA RESULT:      -9.5     12.758     16.630
REMARK  7 active torsions:
REMARK  status: ('A' for Active; 'I' for Inactive)
REMARK    1  A    between atoms: C_4  and  C_5 
REMARK    2  A    between atoms: C_5  and  C_6 
REMARK    3  A    between atoms: C_6  and  C_7 
REMARK    4  A    between atoms: C_7  and  N_8 
REMARK    5  A    between atoms: C_12  and  O_13 
REMARK    6  A    between atoms: C_12  and  C_14 
REMARK    7  A    between atoms: C_19  and  C_20 
REMARK       I    between atoms: C_20  and  N_21 
ROOT
HETATM    1  C   UNL     1      30.619  52.382  39.859  1.00  0.00    -0.023 A 
HETATM    2  C   UNL     1      31.451  52.419  41.004  1.00  0.00     0.024 A 
HETATM    3  C   UNL     1      32.761  51.897  40.957  1.00  0.00     0.001 A 
HETATM    4  C   UNL     1      33.222  51.366  39.764  1.00  0.00     0.086 A 
HETATM    5  O   UNL     1      34.501  50.920  39.903  1.00  0.00    -0.304 OA
HETATM    6  C   UNL     1      34.881  51.152  41.197  1.00  0.00     0.144 A 
HETATM    7  C   UNL     1      33.839  51.775  41.868  1.00  0.00     0.057 A 
HETATM    8  C   UNL     1      32.471  51.332  38.597  1.00  0.00     0.039 A 
HETATM    9  C   UNL     1      31.171  51.862  38.668  1.00  0.00     0.013 A 
ENDROOT
BRANCH   1  10
HETATM   10  C   UNL     1      29.205  52.984  39.883  1.00  0.00     0.088 C 
HETATM   11  C   UNL     1      28.370  52.653  41.135  1.00  0.00     0.071 C 
HETATM   12  C   UNL     1      27.970  51.188  41.192  1.00  0.00     0.238 C 
HETATM   13  N   UNL     1      27.178  50.815  39.958  1.00  0.00    -0.071 N 
HETATM   14  H   UNL     1      26.304  51.362  39.963  1.00  0.00     0.279 HD
HETATM   15  C   UNL     1      27.916  51.158  38.679  1.00  0.00     0.238 C 
HETATM   16  C   UNL     1      28.314  52.622  38.677  1.00  0.00     0.071 C 
BRANCH  13  17
HETATM   17  C   UNL     1      26.779  49.341  39.936  1.00  0.00     0.235 C 
BRANCH  17  18
HETATM   18  C   UNL     1      27.659  48.534  38.979  1.00  0.00     0.038 C 
BRANCH  18  19
HETATM   19  C   UNL     1      28.345  47.352  39.693  1.00  0.00     0.040 C 
HETATM   20  C   UNL     1      27.489  46.861  40.863  1.00  0.00     0.017 C 
BRANCH  19  21
HETATM   21  C   UNL     1      29.720  47.732  40.140  1.00  0.00     0.057 A 
HETATM   22  O   UNL     1      29.804  48.247  41.401  1.00  0.00    -0.319 OA
HETATM   23  C   UNL     1      31.114  48.536  41.633  1.00  0.00     0.049 A 
HETATM   24  C   UNL     1      31.431  49.155  42.936  1.00  0.00     0.076 C 
HETATM   25  C   UNL     1      31.877  48.176  40.544  1.00  0.00     0.035 A 
HETATM   26  C   UNL     1      30.979  47.655  39.581  1.00  0.00     0.035 A 
ENDBRANCH  19  21
ENDBRANCH  18  19
ENDBRANCH  17  18
ENDBRANCH  13  17
BRANCH  10  27
HETATM   27  O   UNL     1      29.345  54.408  39.861  1.00  0.00    -0.385 OA
HETATM   28  H   UNL     1      30.199  54.666  40.255  1.00  0.00     0.211 HD
ENDBRANCH  10  27
ENDBRANCH   1  10
BRANCH   6  29
HETATM   29  C   UNL     1      36.215  50.836  41.680  1.00  0.00     0.277 C 
HETATM   30  N   UNL     1      37.341  51.560  41.250  1.00  0.00    -0.345 N 
HETATM   31  C   UNL     1      38.647  51.145  41.775  1.00  0.00     0.154 C 
HETATM   32  C   UNL     1      37.336  52.778  40.452  1.00  0.00     0.128 C 
HETATM   33  C   UNL     1      39.038  51.874  43.065  1.00  0.00     0.254 C 
HETATM   34  N   UNL     1      39.065  53.394  42.869  1.00  0.00    -0.073 N 
HETATM   35  H   UNL     1      39.601  53.598  42.015  1.00  0.00     0.279 HD
HETATM   36  C   UNL     1      39.833  54.049  43.994  1.00  0.00     0.269 C 
HETATM   37  C   UNL     1      37.680  53.991  42.732  1.00  0.00     0.236 C 
HETATM   38  C   UNL     1      37.195  54.048  41.286  1.00  0.00     0.048 C 
HETATM   39  O   UNL     1      36.383  49.915  42.484  1.00  0.00    -0.265 OA
ENDBRANCH   6  29
TORSDOF 7
ENDMDL
MODEL 6
REMARK VINA RESULT:      -9.4      1.358      2.022
REMARK  7 active torsions:
REMARK  status: ('A' for Active; 'I' for Inactive)
REMARK    1  A    between atoms: C_4  and  C_5 
REMARK    2  A    between atoms: C_5  and  C_6 
REMARK    3  A    between atoms: C_6  and  C_7 
REMARK    4  A    between atoms: C_7  and  N_8 
REMARK    5  A    between atoms: C_12  and  O_13 
REMARK    6  A    between atoms: C_12  and  C_14 
REMARK    7  A    between atoms: C_19  and  C_20 
REMARK       I    between atoms: C_20  and  N_21 
ROOT
HETATM    1  C   UNL     1      24.034  44.748  49.159  1.00  0.00    -0.023 A 
HETATM    2  C   UNL     1      23.700  46.079  48.815  1.00  0.00     0.024 A 
HETATM    3  C   UNL     1      22.377  46.419  48.459  1.00  0.00     0.001 A 
HETATM    4  C   UNL     1      21.410  45.428  48.474  1.00  0.00     0.086 A 
HETATM    5  O   UNL     1      20.200  45.937  48.114  1.00  0.00    -0.304 OA
HETATM    6  C   UNL     1      20.373  47.269  47.854  1.00  0.00     0.144 A 
HETATM    7  C   UNL     1      21.700  47.605  48.080  1.00  0.00     0.057 A 
HETATM    8  C   UNL     1      21.664  44.113  48.836  1.00  0.00     0.039 A 
HETATM    9  C   UNL     1      22.988  43.800  49.190  1.00  0.00     0.013 A 
ENDROOT
BRANCH   1  10
HETATM   10  C   UNL     1      25.461  44.371  49.588  1.00  0.00     0.088 C 
HETATM   11  C   UNL     1      25.578  43.713  50.976  1.00  0.00     0.071 C 
HETATM   12  C   UNL     1      25.276  44.685  52.104  1.00  0.00     0.238 C 
HETATM   13  N   UNL     1      26.215  45.869  52.039  1.00  0.00    -0.071 N 
HETATM   14  H   UNL     1      27.174  45.524  52.193  1.00  0.00     0.279 HD
HETATM   15  C   UNL     1      26.194  46.542  50.680  1.00  0.00     0.238 C 
HETATM   16  C   UNL     1      26.478  45.531  49.586  1.00  0.00     0.071 C 
BRANCH  13  17
HETATM   17  C   UNL     1      25.935  46.906  53.124  1.00  0.00     0.235 C 
BRANCH  17  18
HETATM   18  C   UNL     1      26.001  46.289  54.523  1.00  0.00     0.038 C 
BRANCH  18  19
HETATM   19  C   UNL     1      27.367  46.539  55.194  1.00  0.00     0.040 C 
HETATM   20  C   UNL     1      28.015  47.808  54.637  1.00  0.00     0.017 C 
BRANCH  19  21
HETATM   21  C   UNL     1      28.258  45.350  55.033  1.00  0.00     0.057 A 
HETATM   22  O   UNL     1      29.354  45.325  55.846  1.00  0.00    -0.319 OA
HETATM   23  C   UNL     1      30.043  44.186  55.561  1.00  0.00     0.049 A 
HETATM   24  C   UNL     1      31.304  43.977  56.300  1.00  0.00     0.076 C 
HETATM   25  C   UNL     1      29.378  43.460  54.597  1.00  0.00     0.035 A 
HETATM   26  C   UNL     1      28.225  44.209  54.258  1.00  0.00     0.035 A 
ENDBRANCH  19  21
ENDBRANCH  18  19
ENDBRANCH  17  18
ENDBRANCH  13  17
BRANCH  10  27
HETATM   27  O   UNL     1      25.951  43.410  48.647  1.00  0.00    -0.385 OA
HETATM   28  H   UNL     1      25.676  42.513  48.912  1.00  0.00     0.211 HD
ENDBRANCH  10  27
ENDBRANCH   1  10
BRANCH   6  29
HETATM   29  C   UNL     1      19.265  48.136  47.483  1.00  0.00     0.277 C 
HETATM   30  N   UNL     1      18.249  48.457  48.400  1.00  0.00    -0.345 N 
HETATM   31  C   UNL     1      17.160  49.317  47.921  1.00  0.00     0.154 C 
HETATM   32  C   UNL     1      18.234  48.150  49.823  1.00  0.00     0.128 C 
HETATM   33  C   UNL     1      17.427  50.809  48.144  1.00  0.00     0.254 C 
HETATM   34  N   UNL     1      17.666  51.125  49.625  1.00  0.00    -0.073 N 
HETATM   35  H   UNL     1      16.919  50.679  50.172  1.00  0.00     0.279 HD
HETATM   36  C   UNL     1      17.516  52.609  49.870  1.00  0.00     0.269 C 
HETATM   37  C   UNL     1      19.005  50.622  50.122  1.00  0.00     0.236 C 
HETATM   38  C   UNL     1      18.940  49.202  50.676  1.00  0.00     0.048 C 
HETATM   39  O   UNL     1      19.199  48.607  46.345  1.00  0.00    -0.265 OA
ENDBRANCH   6  29
TORSDOF 7
ENDMDL
MODEL 7
REMARK VINA RESULT:      -9.1     11.659     14.576
REMARK  7 active torsions:
REMARK  status: ('A' for Active; 'I' for Inactive)
REMARK    1  A    between atoms: C_4  and  C_5 
REMARK    2  A    between atoms: C_5  and  C_6 
REMARK    3  A    between atoms: C_6  and  C_7 
REMARK    4  A    between atoms: C_7  and  N_8 
REMARK    5  A    between atoms: C_12  and  O_13 
REMARK    6  A    between atoms: C_12  and  C_14 
REMARK    7  A    between atoms: C_19  and  C_20 
REMARK       I    between atoms: C_20  and  N_21 
ROOT
HETATM    1  C   UNL     1      26.036  49.898  38.810  1.00  0.00    -0.023 A 
HETATM    2  C   UNL     1      26.379  50.174  40.154  1.00  0.00     0.024 A 
HETATM    3  C   UNL     1      27.690  50.575  40.493  1.00  0.00     0.001 A 
HETATM    4  C   UNL     1      28.625  50.712  39.481  1.00  0.00     0.086 A 
HETATM    5  O   UNL     1      29.823  51.111  39.989  1.00  0.00    -0.304 OA
HETATM    6  C   UNL     1      29.677  51.231  41.345  1.00  0.00     0.144 A 
HETATM    7  C   UNL     1      28.367  50.930  41.686  1.00  0.00     0.057 A 
HETATM    8  C   UNL     1      28.343  50.492  38.140  1.00  0.00     0.039 A 
HETATM    9  C   UNL     1      27.030  50.097  37.827  1.00  0.00     0.013 A 
ENDROOT
BRANCH   1  10
HETATM   10  C   UNL     1      24.603  49.500  38.420  1.00  0.00     0.088 C 
HETATM   11  C   UNL     1      23.750  48.911  39.561  1.00  0.00     0.071 C 
HETATM   12  C   UNL     1      24.234  47.537  39.994  1.00  0.00     0.238 C 
HETATM   13  N   UNL     1      24.213  46.583  38.820  1.00  0.00    -0.071 N 
HETATM   14  H   UNL     1      23.235  46.471  38.517  1.00  0.00     0.279 HD
HETATM   15  C   UNL     1      24.993  47.117  37.635  1.00  0.00     0.238 C 
HETATM   16  C   UNL     1      24.491  48.497  37.253  1.00  0.00     0.071 C 
BRANCH  13  17
HETATM   17  C   UNL     1      24.728  45.191  39.181  1.00  0.00     0.235 C 
BRANCH  17  18
HETATM   18  C   UNL     1      25.962  44.816  38.359  1.00  0.00     0.038 C 
BRANCH  18  19
HETATM   19  C   UNL     1      27.133  44.365  39.257  1.00  0.00     0.040 C 
HETATM   20  C   UNL     1      26.620  43.505  40.415  1.00  0.00     0.017 C 
BRANCH  19  21
HETATM   21  C   UNL     1      27.904  45.546  39.749  1.00  0.00     0.057 A 
HETATM   22  O   UNL     1      28.890  45.990  38.914  1.00  0.00    -0.319 OA
HETATM   23  C   UNL     1      29.481  47.056  39.520  1.00  0.00     0.049 A 
HETATM   24  C   UNL     1      30.619  47.670  38.807  1.00  0.00     0.076 C 
HETATM   25  C   UNL     1      28.858  47.324  40.719  1.00  0.00     0.035 A 
HETATM   26  C   UNL     1      27.839  46.352  40.866  1.00  0.00     0.035 A 
ENDBRANCH  19  21
ENDBRANCH  18  19
ENDBRANCH  17  18
ENDBRANCH  13  17
BRANCH  10  27
HETATM   27  O   UNL     1      23.931  50.687  37.991  1.00  0.00    -0.385 OA
HETATM   28  H   UNL     1      24.525  51.456  38.072  1.00  0.00     0.211 HD
ENDBRANCH  10  27
ENDBRANCH   1  10
BRANCH   6  29
HETATM   29  C   UNL     1      30.760  51.687  42.202  1.00  0.00     0.277 C 
HETATM   30  N   UNL     1      31.573  50.777  42.900  1.00  0.00    -0.345 N 
HETATM   31  C   UNL     1      32.621  51.338  43.761  1.00  0.00     0.154 C 
HETATM   32  C   UNL     1      31.587  49.330  42.747  1.00  0.00     0.128 C 
HETATM   33  C   UNL     1      33.959  51.527  43.038  1.00  0.00     0.254 C 
HETATM   34  N   UNL     1      34.478  50.207  42.456  1.00  0.00    -0.073 N 
HETATM   35  H   UNL     1      34.420  49.489  43.189  1.00  0.00     0.279 HD
HETATM   36  C   UNL     1      35.947  50.328  42.124  1.00  0.00     0.269 C 
HETATM   37  C   UNL     1      33.682  49.745  41.254  1.00  0.00     0.236 C 
HETATM   38  C   UNL     1      32.505  48.848  41.625  1.00  0.00     0.048 C 
HETATM   39  O   UNL     1      30.983  52.893  42.332  1.00  0.00    -0.265 OA
ENDBRANCH   6  29
TORSDOF 7
ENDMDL
MODEL 8
REMARK VINA RESULT:      -9.0     19.604     24.081
REMARK  7 active torsions:
REMARK  status: ('A' for Active; 'I' for Inactive)
REMARK    1  A    between atoms: C_4  and  C_5 
REMARK    2  A    between atoms: C_5  and  C_6 
REMARK    3  A    between atoms: C_6  and  C_7 
REMARK    4  A    between atoms: C_7  and  N_8 
REMARK    5  A    between atoms: C_12  and  O_13 
REMARK    6  A    between atoms: C_12  and  C_14 
REMARK    7  A    between atoms: C_19  and  C_20 
REMARK       I    between atoms: C_20  and  N_21 
ROOT
HETATM    1  C   UNL     1      38.673  41.592  63.958  1.00  0.00    -0.023 A 
HETATM    2  C   UNL     1      39.174  40.938  65.108  1.00  0.00     0.024 A 
HETATM    3  C   UNL     1      39.864  39.713  64.995  1.00  0.00     0.001 A 
HETATM    4  C   UNL     1      40.058  39.174  63.735  1.00  0.00     0.086 A 
HETATM    5  O   UNL     1      40.745  38.001  63.818  1.00  0.00    -0.304 OA
HETATM    6  C   UNL     1      40.998  37.764  65.141  1.00  0.00     0.144 A 
HETATM    7  C   UNL     1      40.489  38.812  65.893  1.00  0.00     0.057 A 
HETATM    8  C   UNL     1      39.624  39.781  62.565  1.00  0.00     0.039 A 
HETATM    9  C   UNL     1      38.943  41.003  62.703  1.00  0.00     0.013 A 
ENDROOT
BRANCH   1  10
HETATM   10  C   UNL     1      37.955  42.948  64.061  1.00  0.00     0.088 C 
HETATM   11  C   UNL     1      38.438  44.024  63.070  1.00  0.00     0.071 C 
HETATM   12  C   UNL     1      39.843  44.512  63.385  1.00  0.00     0.238 C 
HETATM   13  N   UNL     1      39.898  45.073  64.788  1.00  0.00    -0.071 N 
HETATM   14  H   UNL     1      39.282  45.898  64.826  1.00  0.00     0.279 HD
HETATM   15  C   UNL     1      39.389  44.085  65.820  1.00  0.00     0.238 C 
HETATM   16  C   UNL     1      37.996  43.610  65.453  1.00  0.00     0.071 C 
BRANCH  13  17
HETATM   17  C   UNL     1      41.296  45.543  65.182  1.00  0.00     0.235 C 
BRANCH  17  18
HETATM   18  C   UNL     1      41.546  46.990  64.751  1.00  0.00     0.038 C 
BRANCH  18  19
HETATM   19  C   UNL     1      41.235  47.986  65.887  1.00  0.00     0.040 C 
HETATM   20  C   UNL     1      41.258  47.278  67.243  1.00  0.00     0.017 C 
BRANCH  19  21
HETATM   21  C   UNL     1      39.927  48.668  65.645  1.00  0.00     0.057 A 
HETATM   22  O   UNL     1      38.962  47.894  65.068  1.00  0.00    -0.319 OA
HETATM   23  C   UNL     1      37.855  48.674  64.922  1.00  0.00     0.049 A 
HETATM   24  C   UNL     1      36.690  48.045  64.267  1.00  0.00     0.076 C 
HETATM   25  C   UNL     1      38.090  49.930  65.435  1.00  0.00     0.035 A 
HETATM   26  C   UNL     1      39.426  49.926  65.905  1.00  0.00     0.035 A 
ENDBRANCH  19  21
ENDBRANCH  18  19
ENDBRANCH  17  18
ENDBRANCH  13  17
BRANCH  10  27
HETATM   27  O   UNL     1      36.574  42.724  63.766  1.00  0.00    -0.385 OA
HETATM   28  H   UNL     1      36.474  42.402  62.851  1.00  0.00     0.211 HD
ENDBRANCH  10  27
ENDBRANCH   1  10
BRANCH   6  29
HETATM   29  C   UNL     1      41.760  36.609  65.588  1.00  0.00     0.277 C 
HETATM   30  N   UNL     1      41.366  35.861  66.711  1.00  0.00    -0.345 N 
HETATM   31  C   UNL     1      42.217  34.730  67.098  1.00  0.00     0.154 C 
HETATM   32  C   UNL     1      40.118  35.996  67.449  1.00  0.00     0.128 C 
HETATM   33  C   UNL     1      41.802  33.410  66.440  1.00  0.00     0.254 C 
HETATM   34  N   UNL     1      40.349  33.047  66.771  1.00  0.00    -0.073 N 
HETATM   35  H   UNL     1      40.217  33.146  67.786  1.00  0.00     0.279 HD
HETATM   36  C   UNL     1      40.098  31.587  66.472  1.00  0.00     0.269 C 
HETATM   37  C   UNL     1      39.348  33.931  66.058  1.00  0.00     0.236 C 
HETATM   38  C   UNL     1      38.974  35.175  66.859  1.00  0.00     0.048 C 
HETATM   39  O   UNL     1      42.778  36.263  64.982  1.00  0.00    -0.265 OA
ENDBRANCH   6  29
TORSDOF 7
ENDMDL
MODEL 9
REMARK VINA RESULT:      -8.9      1.862      2.830
REMARK  7 active torsions:
REMARK  status: ('A' for Active; 'I' for Inactive)
REMARK    1  A    between atoms: C_4  and  C_5 
REMARK    2  A    between atoms: C_5  and  C_6 
REMARK    3  A    between atoms: C_6  and  C_7 
REMARK    4  A    between atoms: C_7  and  N_8 
REMARK    5  A    between atoms: C_12  and  O_13 
REMARK    6  A    between atoms: C_12  and  C_14 
REMARK    7  A    between atoms: C_19  and  C_20 
REMARK       I    between atoms: C_20  and  N_21 
ROOT
HETATM    1  C   UNL     1      23.612  46.225  49.201  1.00  0.00    -0.023 A 
HETATM    2  C   UNL     1      22.242  46.000  48.933  1.00  0.00     0.024 A 
HETATM    3  C   UNL     1      21.348  47.084  48.802  1.00  0.00     0.001 A 
HETATM    4  C   UNL     1      21.843  48.372  48.921  1.00  0.00     0.086 A 
HETATM    5  O   UNL     1      20.845  49.284  48.759  1.00  0.00    -0.304 OA
HETATM    6  C   UNL     1      19.685  48.592  48.540  1.00  0.00     0.144 A 
HETATM    7  C   UNL     1      19.964  47.233  48.536  1.00  0.00     0.057 A 
HETATM    8  C   UNL     1      23.181  48.662  49.148  1.00  0.00     0.039 A 
HETATM    9  C   UNL     1      24.053  47.565  49.271  1.00  0.00     0.013 A 
ENDROOT
BRANCH   1  10
HETATM   10  C   UNL     1      24.606  45.056  49.306  1.00  0.00     0.088 C 
HETATM   11  C   UNL     1      24.290  44.021  50.403  1.00  0.00     0.071 C 
HETATM   12  C   UNL     1      24.487  44.582  51.801  1.00  0.00     0.238 C 
HETATM   13  N   UNL     1      25.910  45.066  51.974  1.00  0.00    -0.071 N 
HETATM   14  H   UNL     1      26.535  44.251  51.890  1.00  0.00     0.279 HD
HETATM   15  C   UNL     1      26.313  46.055  50.898  1.00  0.00     0.238 C 
HETATM   16  C   UNL     1      26.079  45.460  49.521  1.00  0.00     0.071 C 
BRANCH  13  17
HETATM   17  C   UNL     1      26.161  45.680  53.349  1.00  0.00     0.235 C 
BRANCH  17  18
HETATM   18  C   UNL     1      26.685  44.642  54.343  1.00  0.00     0.038 C 
BRANCH  18  19
HETATM   19  C   UNL     1      28.120  44.192  53.996  1.00  0.00     0.040 C 
HETATM   20  C   UNL     1      28.180  42.672  53.830  1.00  0.00     0.017 C 
BRANCH  19  21
HETATM   21  C   UNL     1      29.086  44.670  55.032  1.00  0.00     0.057 A 
HETATM   22  O   UNL     1      29.980  43.737  55.472  1.00  0.00    -0.319 OA
HETATM   23  C   UNL     1      30.768  44.343  56.403  1.00  0.00     0.049 A 
HETATM   24  C   UNL     1      31.787  43.494  57.054  1.00  0.00     0.076 C 
HETATM   25  C   UNL     1      30.412  45.666  56.536  1.00  0.00     0.035 A 
HETATM   26  C   UNL     1      29.328  45.879  55.649  1.00  0.00     0.035 A 
ENDBRANCH  19  21
ENDBRANCH  18  19
ENDBRANCH  17  18
ENDBRANCH  13  17
BRANCH  10  27
HETATM   27  O   UNL     1      24.565  44.348  48.064  1.00  0.00    -0.385 OA
HETATM   28  H   UNL     1      23.842  44.691  47.506  1.00  0.00     0.211 HD
ENDBRANCH  10  27
ENDBRANCH   1  10
BRANCH   6  29
HETATM   29  C   UNL     1      18.422  49.263  48.279  1.00  0.00     0.277 C 
HETATM   30  N   UNL     1      18.006  49.559  46.969  1.00  0.00    -0.345 N 
HETATM   31  C   UNL     1      16.728  50.263  46.813  1.00  0.00     0.154 C 
HETATM   32  C   UNL     1      18.636  49.109  45.736  1.00  0.00     0.128 C 
HETATM   33  C   UNL     1      15.532  49.316  46.665  1.00  0.00     0.254 C 
HETATM   34  N   UNL     1      15.704  48.373  45.469  1.00  0.00    -0.073 N 
HETATM   35  H   UNL     1      15.982  48.935  44.654  1.00  0.00     0.279 HD
HETATM   36  C   UNL     1      14.375  47.755  45.099  1.00  0.00     0.269 C 
HETATM   37  C   UNL     1      16.753  47.308  45.710  1.00  0.00     0.236 C 
HETATM   38  C   UNL     1      18.151  47.737  45.274  1.00  0.00     0.048 C 
HETATM   39  O   UNL     1      17.687  49.589  49.215  1.00  0.00    -0.265 OA
ENDBRANCH   6  29
TORSDOF 7
ENDMDL
MODEL 10
REMARK VINA RESULT:      -8.9      2.229     10.440
REMARK  7 active torsions:
REMARK  status: ('A' for Active; 'I' for Inactive)
REMARK    1  A    between atoms: C_4  and  C_5 
REMARK    2  A    between atoms: C_5  and  C_6 
REMARK    3  A    between atoms: C_6  and  C_7 
REMARK    4  A    between atoms: C_7  and  N_8 
REMARK    5  A    between atoms: C_12  and  O_13 
REMARK    6  A    between atoms: C_12  and  C_14 
REMARK    7  A    between atoms: C_19  and  C_20 
REMARK       I    between atoms: C_20  and  N_21 
ROOT
HETATM    1  C   UNL     1      23.583  45.668  48.958  1.00  0.00    -0.023 A 
HETATM    2  C   UNL     1      24.319  44.984  49.954  1.00  0.00     0.024 A 
HETATM    3  C   UNL     1      24.985  45.699  50.973  1.00  0.00     0.001 A 
HETATM    4  C   UNL     1      24.886  47.080  50.988  1.00  0.00     0.086 A 
HETATM    5  O   UNL     1      25.581  47.596  52.039  1.00  0.00    -0.304 OA
HETATM    6  C   UNL     1      26.145  46.549  52.715  1.00  0.00     0.144 A 
HETATM    7  C   UNL     1      25.778  45.363  52.098  1.00  0.00     0.057 A 
HETATM    8  C   UNL     1      24.152  47.808  50.062  1.00  0.00     0.039 A 
HETATM    9  C   UNL     1      23.494  47.074  49.060  1.00  0.00     0.013 A 
ENDROOT
BRANCH   1  10
HETATM   10  C   UNL     1      22.818  44.901  47.866  1.00  0.00     0.088 C 
HETATM   11  C   UNL     1      22.275  45.767  46.713  1.00  0.00     0.071 C 
HETATM   12  C   UNL     1      21.141  46.676  47.157  1.00  0.00     0.238 C 
HETATM   13  N   UNL     1      20.008  45.855  47.733  1.00  0.00    -0.071 N 
HETATM   14  H   UNL     1      19.633  45.257  46.982  1.00  0.00     0.279 HD
HETATM   15  C   UNL     1      20.476  44.936  48.845  1.00  0.00     0.238 C 
HETATM   16  C   UNL     1      21.621  44.065  48.364  1.00  0.00     0.071 C 
BRANCH  13  17
HETATM   17  C   UNL     1      18.852  46.715  48.237  1.00  0.00     0.235 C 
BRANCH  17  18
HETATM   18  C   UNL     1      19.273  47.588  49.420  1.00  0.00     0.038 C 
BRANCH  18  19
HETATM   19  C   UNL     1      18.417  48.868  49.519  1.00  0.00     0.040 C 
HETATM   20  C   UNL     1      17.157  48.739  48.661  1.00  0.00     0.017 C 
BRANCH  19  21
HETATM   21  C   UNL     1      19.221  50.069  49.138  1.00  0.00     0.057 A 
HETATM   22  O   UNL     1      20.564  49.858  49.012  1.00  0.00    -0.319 OA
HETATM   23  C   UNL     1      21.128  51.049  48.669  1.00  0.00     0.049 A 
HETATM   24  C   UNL     1      22.598  51.062  48.525  1.00  0.00     0.076 C 
HETATM   25  C   UNL     1      20.154  52.013  48.536  1.00  0.00     0.035 A 
HETATM   26  C   UNL     1      18.923  51.381  48.836  1.00  0.00     0.035 A 
ENDBRANCH  19  21
ENDBRANCH  18  19
ENDBRANCH  17  18
ENDBRANCH  13  17
BRANCH  10  27
HETATM   27  O   UNL     1      23.733  43.975  47.274  1.00  0.00    -0.385 OA
HETATM   28  H   UNL     1      23.359  43.074  47.297  1.00  0.00     0.211 HD
ENDBRANCH  10  27
ENDBRANCH   1  10
BRANCH   6  29
HETATM   29  C   UNL     1      26.925  46.741  53.928  1.00  0.00     0.277 C 
HETATM   30  N   UNL     1      27.104  45.700  54.855  1.00  0.00    -0.345 N 
HETATM   31  C   UNL     1      27.884  46.002  56.061  1.00  0.00     0.154 C 
HETATM   32  C   UNL     1      26.725  44.305  54.679  1.00  0.00     0.128 C 
HETATM   33  C   UNL     1      29.382  45.719  55.898  1.00  0.00     0.254 C 
HETATM   34  N   UNL     1      29.641  44.257  55.517  1.00  0.00    -0.073 N 
HETATM   35  H   UNL     1      29.101  43.658  56.156  1.00  0.00     0.279 HD
HETATM   36  C   UNL     1      31.091  43.906  55.764  1.00  0.00     0.269 C 
HETATM   37  C   UNL     1      29.238  43.942  54.092  1.00  0.00     0.236 C 
HETATM   38  C   UNL     1      27.791  43.472  53.971  1.00  0.00     0.048 C 
HETATM   39  O   UNL     1      27.446  47.834  54.165  1.00  0.00    -0.265 OA
ENDBRANCH   6  29
TORSDOF 7
ENDMDL
