MODEL 1
REMARK VINA RESULT:      -9.6      0.000      0.000
REMARK  5 active torsions:
REMARK  status: ('A' for Active; 'I' for Inactive)
REMARK    1  A    between atoms: C_7  and  C_8 
REMARK    2  A    between atoms: C_16  and  C_17 
REMARK    3  A    between atoms: C_20  and  O_21 
REMARK    4  A    between atoms: C_24  and  C_25 
REMARK       I    between atoms: C_25  and  N_26 
REMARK    5  A    between atoms: N_26  and  C_27 
ROOT
HETATM    1  C   UNL     1      26.394  40.660  49.176  1.00  0.00     0.070 C 
HETATM    2  C   UNL     1      26.474  41.825  50.137  1.00  0.00     0.037 A 
HETATM    3  N   UNL     1      27.608  41.843  50.945  1.00  0.00    -0.192 N 
HETATM    4  C   UNL     1      27.802  42.727  51.935  1.00  0.00     0.726 A 
HETATM    5  N   UNL     1      26.892  43.724  52.121  1.00  0.00    -0.083 N 
HETATM    6  N   UNL     1      27.159  44.438  53.232  1.00  0.00    -0.135 NA
HETATM    7  C   UNL     1      28.323  43.888  53.625  1.00  0.00     0.199 A 
HETATM    8  N   UNL     1      28.734  42.817  52.847  1.00  0.00    -0.041 NA
HETATM    9  C   UNL     1      25.691  43.904  51.298  1.00  0.00     0.202 A 
HETATM   10  C   UNL     1      25.519  42.789  50.267  1.00  0.00     0.062 A 
HETATM   11  H   UNL     1      28.276  41.084  50.834  1.00  0.00     0.184 HD
ENDROOT
BRANCH  10  12
HETATM   12  C   UNL     1      24.311  42.799  49.368  1.00  0.00     0.256 C 
HETATM   13  N   UNL     1      24.472  43.448  48.159  1.00  0.00    -0.323 N 
HETATM   14  H   UNL     1      25.390  43.758  47.882  1.00  0.00     0.169 HD
HETATM   15  O   UNL     1      23.288  42.218  49.717  1.00  0.00    -0.267 OA
BRANCH  13  16
HETATM   16  C   UNL     1      23.475  43.687  47.184  1.00  0.00     0.035 A 
HETATM   17  C   UNL     1      23.196  42.827  46.121  1.00  0.00     0.029 A 
HETATM   18  C   UNL     1      22.169  43.124  45.218  1.00  0.00     0.002 A 
HETATM   19  C   UNL     1      21.416  44.286  45.368  1.00  0.00     0.000 A 
HETATM   20  C   UNL     1      21.687  45.152  46.424  1.00  0.00     0.002 A 
HETATM   21  C   UNL     1      22.706  44.850  47.330  1.00  0.00     0.029 A 
ENDBRANCH  13  16
ENDBRANCH  10  12
BRANCH   9  22
HETATM   22  C   UNL     1      25.694  45.311  50.705  1.00  0.00    -0.028 A 
HETATM   23  C   UNL     1      26.811  45.827  50.023  1.00  0.00     0.012 A 
HETATM   24  C   UNL     1      26.796  47.128  49.512  1.00  0.00     0.037 A 
HETATM   25  C   UNL     1      25.668  47.922  49.690  1.00  0.00     0.065 A 
HETATM   26  C   UNL     1      24.560  47.439  50.372  1.00  0.00     0.037 A 
HETATM   27  C   UNL     1      24.571  46.140  50.880  1.00  0.00     0.012 A 
BRANCH  25  28
HETATM   28  O   UNL     1      25.615  49.199  49.216  1.00  0.00    -0.361 OA
HETATM   29  H   UNL     1      24.964  49.696  49.739  1.00  0.00     0.217 HD
ENDBRANCH  25  28
ENDBRANCH   9  22
BRANCH   7  30
HETATM   30  C   UNL     1      29.089  44.350  54.777  1.00  0.00     0.016 A 
HETATM   31  C   UNL     1      30.141  43.581  55.295  1.00  0.00     0.039 A 
HETATM   32  C   UNL     1      30.862  44.033  56.400  1.00  0.00     0.035 A 
HETATM   33 CL   UNL     1      32.150  43.079  57.028  1.00  0.00    -0.084 Cl
HETATM   34  C   UNL     1      30.549  45.250  57.002  1.00  0.00     0.024 A 
HETATM   35  C   UNL     1      29.506  46.023  56.496  1.00  0.00     0.003 A 
HETATM   36  C   UNL     1      28.779  45.574  55.390  1.00  0.00     0.015 A 
ENDBRANCH   7  30
TORSDOF 5
ENDMDL
MODEL 2
REMARK VINA RESULT:      -9.6      2.061      2.718
REMARK  5 active torsions:
REMARK  status: ('A' for Active; 'I' for Inactive)
REMARK    1  A    between atoms: C_7  and  C_8 
REMARK    2  A    between atoms: C_16  and  C_17 
REMARK    3  A    between atoms: C_20  and  O_21 
REMARK    4  A    between atoms: C_24  and  C_25 
REMARK       I    between atoms: C_25  and  N_26 
REMARK    5  A    between atoms: N_26  and  C_27 
ROOT
HETATM    1  C   UNL     1      24.014  42.462  48.731  1.00  0.00     0.070 C 
HETATM    2  C   UNL     1      24.564  43.564  49.609  1.00  0.00     0.037 A 
HETATM    3  N   UNL     1      25.581  43.172  50.475  1.00  0.00    -0.192 N 
HETATM    4  C   UNL     1      26.114  43.977  51.408  1.00  0.00     0.726 A 
HETATM    5  N   UNL     1      25.711  45.276  51.471  1.00  0.00    -0.083 N 
HETATM    6  N   UNL     1      26.235  45.906  52.540  1.00  0.00    -0.135 NA
HETATM    7  C   UNL     1      27.047  44.953  53.035  1.00  0.00     0.199 A 
HETATM    8  N   UNL     1      26.978  43.745  52.361  1.00  0.00    -0.041 NA
HETATM    9  C   UNL     1      24.717  45.873  50.572  1.00  0.00     0.202 A 
HETATM   10  C   UNL     1      24.107  44.848  49.616  1.00  0.00     0.062 A 
HETATM   11  H   UNL     1      25.865  42.196  50.456  1.00  0.00     0.184 HD
ENDROOT
BRANCH  10  12
HETATM   12  C   UNL     1      23.037  45.288  48.653  1.00  0.00     0.256 C 
HETATM   13  N   UNL     1      21.873  45.760  49.227  1.00  0.00    -0.323 N 
HETATM   14  H   UNL     1      21.838  45.910  50.223  1.00  0.00     0.169 HD
HETATM   15  O   UNL     1      23.253  45.248  47.444  1.00  0.00    -0.267 OA
BRANCH  13  16
HETATM   16  C   UNL     1      20.686  46.138  48.554  1.00  0.00     0.035 A 
HETATM   17  C   UNL     1      19.632  45.267  48.276  1.00  0.00     0.029 A 
HETATM   18  C   UNL     1      18.478  45.731  47.635  1.00  0.00     0.002 A 
HETATM   19  C   UNL     1      18.373  47.068  47.260  1.00  0.00     0.000 A 
HETATM   20  C   UNL     1      19.419  47.945  47.531  1.00  0.00     0.002 A 
HETATM   21  C   UNL     1      20.567  47.483  48.180  1.00  0.00     0.029 A 
ENDBRANCH  13  16
ENDBRANCH  10  12
BRANCH   9  22
HETATM   22  C   UNL     1      25.331  47.088  49.880  1.00  0.00    -0.028 A 
HETATM   23  C   UNL     1      26.717  47.201  49.668  1.00  0.00     0.012 A 
HETATM   24  C   UNL     1      27.254  48.336  49.054  1.00  0.00     0.037 A 
HETATM   25  C   UNL     1      26.410  49.367  48.660  1.00  0.00     0.065 A 
HETATM   26  C   UNL     1      25.040  49.285  48.871  1.00  0.00     0.037 A 
HETATM   27  C   UNL     1      24.501  48.152  49.480  1.00  0.00     0.012 A 
BRANCH  25  28
HETATM   28  O   UNL     1      26.893  50.495  48.066  1.00  0.00    -0.361 OA
HETATM   29  H   UNL     1      26.278  51.227  48.245  1.00  0.00     0.217 HD
ENDBRANCH  25  28
ENDBRANCH   9  22
BRANCH   7  30
HETATM   30  C   UNL     1      27.914  45.149  54.192  1.00  0.00     0.016 A 
HETATM   31  C   UNL     1      28.971  44.265  54.455  1.00  0.00     0.039 A 
HETATM   32  C   UNL     1      29.790  44.462  55.566  1.00  0.00     0.035 A 
HETATM   33 CL   UNL     1      31.082  43.368  55.879  1.00  0.00    -0.084 Cl
HETATM   34  C   UNL     1      29.571  45.535  56.428  1.00  0.00     0.024 A 
HETATM   35  C   UNL     1      28.524  46.420  56.177  1.00  0.00     0.003 A 
HETATM   36  C   UNL     1      27.700  46.226  55.065  1.00  0.00     0.015 A 
ENDBRANCH   7  30
TORSDOF 5
ENDMDL
MODEL 3
REMARK VINA RESULT:      -9.4      5.251      9.717
REMARK  5 active torsions:
REMARK  status: ('A' for Active; 'I' for Inactive)
REMARK    1  A    between atoms: C_7  and  C_8 
REMARK    2  A    between atoms: C_16  and  C_17 
REMARK    3  A    between atoms: C_20  and  O_21 
REMARK    4  A    between atoms: C_24  and  C_25 
REMARK       I    between atoms: C_25  and  N_26 
REMARK    5  A    between atoms: N_26  and  C_27 
ROOT
HETATM    1  C   UNL     1      27.523  48.872  49.190  1.00  0.00     0.070 C 
HETATM    2  C   UNL     1      26.028  48.639  49.181  1.00  0.00     0.037 A 
HETATM    3  N   UNL     1      25.288  49.601  48.501  1.00  0.00    -0.192 N 
HETATM    4  C   UNL     1      23.946  49.630  48.481  1.00  0.00     0.726 A 
HETATM    5  N   UNL     1      23.253  48.623  49.080  1.00  0.00    -0.083 N 
HETATM    6  N   UNL     1      21.928  48.869  49.090  1.00  0.00    -0.135 NA
HETATM    7  C   UNL     1      21.868  50.008  48.374  1.00  0.00     0.199 A 
HETATM    8  N   UNL     1      23.105  50.506  47.999  1.00  0.00    -0.041 NA
HETATM    9  C   UNL     1      23.881  47.484  49.760  1.00  0.00     0.202 A 
HETATM   10  C   UNL     1      25.403  47.602  49.808  1.00  0.00     0.062 A 
HETATM   11  H   UNL     1      25.796  50.373  48.078  1.00  0.00     0.184 HD
ENDROOT
BRANCH  10  12
HETATM   12  C   UNL     1      26.202  46.534  50.509  1.00  0.00     0.256 C 
HETATM   13  N   UNL     1      26.006  46.441  51.873  1.00  0.00    -0.323 N 
HETATM   14  H   UNL     1      25.270  46.977  52.305  1.00  0.00     0.169 HD
HETATM   15  O   UNL     1      26.933  45.795  49.856  1.00  0.00    -0.267 OA
BRANCH  13  16
HETATM   16  C   UNL     1      26.700  45.599  52.774  1.00  0.00     0.035 A 
HETATM   17  C   UNL     1      26.925  44.239  52.561  1.00  0.00     0.029 A 
HETATM   18  C   UNL     1      27.651  43.485  53.490  1.00  0.00     0.002 A 
HETATM   19  C   UNL     1      28.150  44.083  54.643  1.00  0.00     0.000 A 
HETATM   20  C   UNL     1      27.929  45.439  54.868  1.00  0.00     0.002 A 
HETATM   21  C   UNL     1      27.213  46.194  53.935  1.00  0.00     0.029 A 
ENDBRANCH  13  16
ENDBRANCH  10  12
BRANCH   9  22
HETATM   22  C   UNL     1      23.371  46.185  49.139  1.00  0.00    -0.028 A 
HETATM   23  C   UNL     1      22.795  46.151  47.856  1.00  0.00     0.012 A 
HETATM   24  C   UNL     1      22.315  44.952  47.322  1.00  0.00     0.037 A 
HETATM   25  C   UNL     1      22.398  43.784  48.072  1.00  0.00     0.065 A 
HETATM   26  C   UNL     1      22.950  43.796  49.346  1.00  0.00     0.037 A 
HETATM   27  C   UNL     1      23.434  44.991  49.880  1.00  0.00     0.012 A 
BRANCH  25  28
HETATM   28  O   UNL     1      21.934  42.596  47.593  1.00  0.00    -0.361 OA
HETATM   29  H   UNL     1      21.023  42.724  47.278  1.00  0.00     0.217 HD
ENDBRANCH  25  28
ENDBRANCH   9  22
BRANCH   7  30
HETATM   30  C   UNL     1      20.621  50.684  48.031  1.00  0.00     0.016 A 
HETATM   31  C   UNL     1      19.860  50.269  46.929  1.00  0.00     0.039 A 
HETATM   32  C   UNL     1      18.672  50.925  46.610  1.00  0.00     0.035 A 
HETATM   33 CL   UNL     1      17.748  50.408  45.253  1.00  0.00    -0.084 Cl
HETATM   34  C   UNL     1      18.226  51.999  47.378  1.00  0.00     0.024 A 
HETATM   35  C   UNL     1      18.974  52.420  48.476  1.00  0.00     0.003 A 
HETATM   36  C   UNL     1      20.166  51.766  48.800  1.00  0.00     0.015 A 
ENDBRANCH   7  30
TORSDOF 5
ENDMDL
MODEL 4
REMARK VINA RESULT:      -8.8      3.833      9.266
REMARK  5 active torsions:
REMARK  status: ('A' for Active; 'I' for Inactive)
REMARK    1  A    between atoms: C_7  and  C_8 
REMARK    2  A    between atoms: C_16  and  C_17 
REMARK    3  A    between atoms: C_20  and  O_21 
REMARK    4  A    between atoms: C_24  and  C_25 
REMARK       I    between atoms: C_25  and  N_26 
REMARK    5  A    between atoms: N_26  and  C_27 
ROOT
HETATM    1  C   UNL     1      25.957  47.135  52.884  1.00  0.00     0.070 C 
HETATM    2  C   UNL     1      25.494  45.930  52.096  1.00  0.00     0.037 A 
HETATM    3  N   UNL     1      24.734  46.223  50.968  1.00  0.00    -0.192 N 
HETATM    4  C   UNL     1      24.138  45.290  50.209  1.00  0.00     0.726 A 
HETATM    5  N   UNL     1      24.348  43.974  50.492  1.00  0.00    -0.083 N 
HETATM    6  N   UNL     1      23.577  43.174  49.730  1.00  0.00    -0.135 NA
HETATM    7  C   UNL     1      22.991  44.073  48.915  1.00  0.00     0.199 A 
HETATM    8  N   UNL     1      23.311  45.389  49.203  1.00  0.00    -0.041 NA
HETATM    9  C   UNL     1      25.198  43.494  51.587  1.00  0.00     0.202 A 
HETATM   10  C   UNL     1      25.745  44.636  52.443  1.00  0.00     0.062 A 
HETATM   11  H   UNL     1      24.546  47.202  50.769  1.00  0.00     0.184 HD
ENDROOT
BRANCH  10  12
HETATM   12  C   UNL     1      26.603  44.313  53.638  1.00  0.00     0.256 C 
HETATM   13  N   UNL     1      27.936  44.652  53.524  1.00  0.00    -0.323 N 
HETATM   14  H   UNL     1      28.243  45.199  52.736  1.00  0.00     0.169 HD
HETATM   15  O   UNL     1      26.091  43.819  54.638  1.00  0.00    -0.267 OA
BRANCH  13  16
HETATM   16  C   UNL     1      28.967  44.369  54.453  1.00  0.00     0.035 A 
HETATM   17  C   UNL     1      29.722  43.196  54.453  1.00  0.00     0.029 A 
HETATM   18  C   UNL     1      30.746  43.010  55.388  1.00  0.00     0.002 A 
HETATM   19  C   UNL     1      31.018  43.993  56.336  1.00  0.00     0.000 A 
HETATM   20  C   UNL     1      30.270  45.167  56.347  1.00  0.00     0.002 A 
HETATM   21  C   UNL     1      29.254  45.356  55.407  1.00  0.00     0.029 A 
ENDBRANCH  13  16
ENDBRANCH  10  12
BRANCH   9  22
HETATM   22  C   UNL     1      26.270  42.564  51.022  1.00  0.00    -0.028 A 
HETATM   23  C   UNL     1      26.617  42.573  49.659  1.00  0.00     0.012 A 
HETATM   24  C   UNL     1      27.584  41.694  49.165  1.00  0.00     0.037 A 
HETATM   25  C   UNL     1      28.200  40.795  50.028  1.00  0.00     0.065 A 
HETATM   26  C   UNL     1      27.864  40.759  51.374  1.00  0.00     0.037 A 
HETATM   27  C   UNL     1      26.901  41.637  51.871  1.00  0.00     0.012 A 
BRANCH  25  28
HETATM   28  O   UNL     1      29.142  39.914  49.585  1.00  0.00    -0.361 OA
HETATM   29  H   UNL     1      29.551  39.486  50.355  1.00  0.00     0.217 HD
ENDBRANCH  25  28
ENDBRANCH   9  22
BRANCH   7  30
HETATM   30  C   UNL     1      22.080  43.711  47.834  1.00  0.00     0.016 A 
HETATM   31  C   UNL     1      20.966  44.510  47.538  1.00  0.00     0.039 A 
HETATM   32  C   UNL     1      20.101  44.151  46.505  1.00  0.00     0.035 A 
HETATM   33 CL   UNL     1      18.735  45.138  46.153  1.00  0.00    -0.084 Cl
HETATM   34  C   UNL     1      20.330  42.999  45.755  1.00  0.00     0.024 A 
HETATM   35  C   UNL     1      21.434  42.198  46.041  1.00  0.00     0.003 A 
HETATM   36  C   UNL     1      22.303  42.552  47.076  1.00  0.00     0.015 A 
ENDBRANCH   7  30
TORSDOF 5
ENDMDL
MODEL 5
REMARK VINA RESULT:      -8.8      3.757      8.561
REMARK  5 active torsions:
REMARK  status: ('A' for Active; 'I' for Inactive)
REMARK    1  A    between atoms: C_7  and  C_8 
REMARK    2  A    between atoms: C_16  and  C_17 
REMARK    3  A    between atoms: C_20  and  O_21 
REMARK    4  A    between atoms: C_24  and  C_25 
REMARK       I    between atoms: C_25  and  N_26 
REMARK    5  A    between atoms: N_26  and  C_27 
ROOT
HETATM    1  C   UNL     1      28.585  40.400  53.405  1.00  0.00     0.070 C 
HETATM    2  C   UNL     1      28.170  40.918  52.046  1.00  0.00     0.037 A 
HETATM    3  N   UNL     1      28.253  39.988  51.013  1.00  0.00    -0.192 N 
HETATM    4  C   UNL     1      28.039  40.289  49.723  1.00  0.00     0.726 A 
HETATM    5  N   UNL     1      27.634  41.547  49.394  1.00  0.00    -0.083 N 
HETATM    6  N   UNL     1      27.596  41.724  48.059  1.00  0.00    -0.135 NA
HETATM    7  C   UNL     1      27.890  40.484  47.622  1.00  0.00     0.199 A 
HETATM    8  N   UNL     1      28.183  39.583  48.633  1.00  0.00    -0.041 NA
HETATM    9  C   UNL     1      27.407  42.619  50.370  1.00  0.00     0.202 A 
HETATM   10  C   UNL     1      27.774  42.197  51.793  1.00  0.00     0.062 A 
HETATM   11  H   UNL     1      28.586  39.056  51.245  1.00  0.00     0.184 HD
ENDROOT
BRANCH  10  12
HETATM   12  C   UNL     1      27.640  43.195  52.913  1.00  0.00     0.256 C 
HETATM   13  N   UNL     1      28.827  43.697  53.410  1.00  0.00    -0.323 N 
HETATM   14  H   UNL     1      29.691  43.486  52.937  1.00  0.00     0.169 HD
HETATM   15  O   UNL     1      26.524  43.538  53.292  1.00  0.00    -0.267 OA
BRANCH  13  16
HETATM   16  C   UNL     1      28.985  44.563  54.518  1.00  0.00     0.035 A 
HETATM   17  C   UNL     1      28.143  45.641  54.797  1.00  0.00     0.029 A 
HETATM   18  C   UNL     1      28.351  46.429  55.934  1.00  0.00     0.002 A 
HETATM   19  C   UNL     1      29.407  46.150  56.798  1.00  0.00     0.000 A 
HETATM   20  C   UNL     1      30.254  45.079  56.529  1.00  0.00     0.002 A 
HETATM   21  C   UNL     1      30.040  44.287  55.398  1.00  0.00     0.029 A 
ENDBRANCH  13  16
ENDBRANCH  10  12
BRANCH   9  22
HETATM   22  C   UNL     1      25.981  43.144  50.219  1.00  0.00    -0.028 A 
HETATM   23  C   UNL     1      24.860  42.333  50.473  1.00  0.00     0.012 A 
HETATM   24  C   UNL     1      23.567  42.833  50.302  1.00  0.00     0.037 A 
HETATM   25  C   UNL     1      23.388  44.141  49.866  1.00  0.00     0.065 A 
HETATM   26  C   UNL     1      24.479  44.955  49.596  1.00  0.00     0.037 A 
HETATM   27  C   UNL     1      25.771  44.460  49.769  1.00  0.00     0.012 A 
BRANCH  25  28
HETATM   28  O   UNL     1      22.143  44.664  49.678  1.00  0.00    -0.361 OA
HETATM   29  H   UNL     1      22.000  44.788  48.724  1.00  0.00     0.217 HD
ENDBRANCH  25  28
ENDBRANCH   9  22
BRANCH   7  30
HETATM   30  C   UNL     1      27.923  40.110  46.212  1.00  0.00     0.016 A 
HETATM   31  C   UNL     1      27.814  41.084  45.209  1.00  0.00     0.039 A 
HETATM   32  C   UNL     1      27.842  40.712  43.866  1.00  0.00     0.035 A 
HETATM   33 CL   UNL     1      27.706  41.917  42.643  1.00  0.00    -0.084 Cl
HETATM   34  C   UNL     1      27.978  39.374  43.501  1.00  0.00     0.024 A 
HETATM   35  C   UNL     1      28.087  38.398  44.490  1.00  0.00     0.003 A 
HETATM   36  C   UNL     1      28.058  38.764  45.838  1.00  0.00     0.015 A 
ENDBRANCH   7  30
TORSDOF 5
ENDMDL
MODEL 6
REMARK VINA RESULT:      -8.7      6.493      9.642
REMARK  5 active torsions:
REMARK  status: ('A' for Active; 'I' for Inactive)
REMARK    1  A    between atoms: C_7  and  C_8 
REMARK    2  A    between atoms: C_16  and  C_17 
REMARK    3  A    between atoms: C_20  and  O_21 
REMARK    4  A    between atoms: C_24  and  C_25 
REMARK       I    between atoms: C_25  and  N_26 
REMARK    5  A    between atoms: N_26  and  C_27 
ROOT
HETATM    1  C   UNL     1      18.400  52.315  49.516  1.00  0.00     0.070 C 
HETATM    2  C   UNL     1      19.387  51.308  48.969  1.00  0.00     0.037 A 
HETATM    3  N   UNL     1      20.597  51.240  49.655  1.00  0.00    -0.192 N 
HETATM    4  C   UNL     1      21.638  50.494  49.253  1.00  0.00     0.726 A 
HETATM    5  N   UNL     1      21.494  49.686  48.167  1.00  0.00    -0.083 N 
HETATM    6  N   UNL     1      22.662  49.113  47.816  1.00  0.00    -0.135 NA
HETATM    7  C   UNL     1      23.469  49.534  48.809  1.00  0.00     0.199 A 
HETATM    8  N   UNL     1      22.862  50.402  49.701  1.00  0.00    -0.041 NA
HETATM    9  C   UNL     1      20.256  49.568  47.389  1.00  0.00     0.202 A 
HETATM   10  C   UNL     1      19.171  50.530  47.872  1.00  0.00     0.062 A 
HETATM   11  H   UNL     1      20.724  51.864  50.447  1.00  0.00     0.184 HD
ENDROOT
BRANCH  10  12
HETATM   12  C   UNL     1      17.848  50.567  47.152  1.00  0.00     0.256 C 
HETATM   13  N   UNL     1      17.771  51.445  46.090  1.00  0.00    -0.323 N 
HETATM   14  H   UNL     1      18.606  51.908  45.768  1.00  0.00     0.169 HD
HETATM   15  O   UNL     1      16.944  49.813  47.503  1.00  0.00    -0.267 OA
BRANCH  13  16
HETATM   16  C   UNL     1      16.623  51.744  45.317  1.00  0.00     0.035 A 
HETATM   17  C   UNL     1      16.298  51.108  44.119  1.00  0.00     0.029 A 
HETATM   18  C   UNL     1      15.125  51.442  43.433  1.00  0.00     0.002 A 
HETATM   19  C   UNL     1      14.272  52.420  43.937  1.00  0.00     0.000 A 
HETATM   20  C   UNL     1      14.587  53.063  45.130  1.00  0.00     0.002 A 
HETATM   21  C   UNL     1      15.754  52.722  45.819  1.00  0.00     0.029 A 
ENDBRANCH  13  16
ENDBRANCH  10  12
BRANCH   9  22
HETATM   22  C   UNL     1      19.824  48.103  47.350  1.00  0.00    -0.028 A 
HETATM   23  C   UNL     1      19.548  47.442  46.140  1.00  0.00     0.012 A 
HETATM   24  C   UNL     1      19.131  46.108  46.137  1.00  0.00     0.037 A 
HETATM   25  C   UNL     1      18.976  45.433  47.343  1.00  0.00     0.065 A 
HETATM   26  C   UNL     1      19.230  46.070  48.550  1.00  0.00     0.037 A 
HETATM   27  C   UNL     1      19.650  47.400  48.556  1.00  0.00     0.012 A 
BRANCH  25  28
HETATM   28  O   UNL     1      18.563  44.135  47.385  1.00  0.00    -0.361 OA
HETATM   29  H   UNL     1      19.198  43.592  46.890  1.00  0.00     0.217 HD
ENDBRANCH  25  28
ENDBRANCH   9  22
BRANCH   7  30
HETATM   30  C   UNL     1      24.868  49.138  48.937  1.00  0.00     0.016 A 
HETATM   31  C   UNL     1      25.213  47.888  49.472  1.00  0.00     0.039 A 
HETATM   32  C   UNL     1      26.553  47.524  49.592  1.00  0.00     0.035 A 
HETATM   33 CL   UNL     1      26.965  45.988  50.252  1.00  0.00    -0.084 Cl
HETATM   34  C   UNL     1      27.565  48.392  49.186  1.00  0.00     0.024 A 
HETATM   35  C   UNL     1      27.233  49.637  48.654  1.00  0.00     0.003 A 
HETATM   36  C   UNL     1      25.891  50.008  48.531  1.00  0.00     0.015 A 
ENDBRANCH   7  30
TORSDOF 5
ENDMDL
MODEL 7
REMARK VINA RESULT:      -8.3     18.092     20.000
REMARK  5 active torsions:
REMARK  status: ('A' for Active; 'I' for Inactive)
REMARK    1  A    between atoms: C_7  and  C_8 
REMARK    2  A    between atoms: C_16  and  C_17 
REMARK    3  A    between atoms: C_20  and  O_21 
REMARK    4  A    between atoms: C_24  and  C_25 
REMARK       I    between atoms: C_25  and  N_26 
REMARK    5  A    between atoms: N_26  and  C_27 
ROOT
HETATM    1  C   UNL     1      35.095  43.423  66.018  1.00  0.00     0.070 C 
HETATM    2  C   UNL     1      36.048  44.588  65.868  1.00  0.00     0.037 A 
HETATM    3  N   UNL     1      35.766  45.684  66.679  1.00  0.00    -0.192 N 
HETATM    4  C   UNL     1      36.426  46.851  66.606  1.00  0.00     0.726 A 
HETATM    5  N   UNL     1      37.488  46.960  65.761  1.00  0.00    -0.083 N 
HETATM    6  N   UNL     1      37.950  48.225  65.707  1.00  0.00    -0.135 NA
HETATM    7  C   UNL     1      37.185  48.825  66.638  1.00  0.00     0.199 A 
HETATM    8  N   UNL     1      36.224  47.998  67.198  1.00  0.00    -0.041 NA
HETATM    9  C   UNL     1      37.974  45.871  64.907  1.00  0.00     0.202 A 
HETATM   10  C   UNL     1      37.095  44.625  64.996  1.00  0.00     0.062 A 
HETATM   11  H   UNL     1      34.956  45.622  67.289  1.00  0.00     0.184 HD
ENDROOT
BRANCH  10  12
HETATM   12  C   UNL     1      37.430  43.426  64.148  1.00  0.00     0.256 C 
HETATM   13  N   UNL     1      38.163  42.438  64.774  1.00  0.00    -0.323 N 
HETATM   14  H   UNL     1      38.322  42.494  65.768  1.00  0.00     0.169 HD
HETATM   15  O   UNL     1      37.018  43.364  62.993  1.00  0.00    -0.267 OA
BRANCH  13  16
HETATM   16  C   UNL     1      38.690  41.266  64.181  1.00  0.00     0.035 A 
HETATM   17  C   UNL     1      38.972  41.135  62.820  1.00  0.00     0.029 A 
HETATM   18  C   UNL     1      39.524  39.951  62.320  1.00  0.00     0.002 A 
HETATM   19  C   UNL     1      39.791  38.885  63.175  1.00  0.00     0.000 A 
HETATM   20  C   UNL     1      39.512  39.003  64.533  1.00  0.00     0.002 A 
HETATM   21  C   UNL     1      38.970  40.189  65.034  1.00  0.00     0.029 A 
ENDBRANCH  13  16
ENDBRANCH  10  12
BRANCH   9  22
HETATM   22  C   UNL     1      39.451  45.619  65.205  1.00  0.00    -0.028 A 
HETATM   23  C   UNL     1      40.437  45.709  64.206  1.00  0.00     0.012 A 
HETATM   24  C   UNL     1      41.777  45.449  64.503  1.00  0.00     0.037 A 
HETATM   25  C   UNL     1      42.137  45.087  65.796  1.00  0.00     0.065 A 
HETATM   26  C   UNL     1      41.179  44.979  66.796  1.00  0.00     0.037 A 
HETATM   27  C   UNL     1      39.841  45.241  66.503  1.00  0.00     0.012 A 
BRANCH  25  28
HETATM   28  O   UNL     1      43.431  44.816  66.126  1.00  0.00    -0.361 OA
HETATM   29  H   UNL     1      44.009  45.171  65.430  1.00  0.00     0.217 HD
ENDBRANCH  25  28
ENDBRANCH   9  22
BRANCH   7  30
HETATM   30  C   UNL     1      37.326  50.225  67.022  1.00  0.00     0.016 A 
HETATM   31  C   UNL     1      37.018  50.646  68.324  1.00  0.00     0.039 A 
HETATM   32  C   UNL     1      37.154  51.988  68.677  1.00  0.00     0.035 A 
HETATM   33 CL   UNL     1      36.771  52.494  70.277  1.00  0.00    -0.084 Cl
HETATM   34  C   UNL     1      37.595  52.927  67.745  1.00  0.00     0.024 A 
HETATM   35  C   UNL     1      37.903  52.519  66.449  1.00  0.00     0.003 A 
HETATM   36  C   UNL     1      37.768  51.175  66.090  1.00  0.00     0.015 A 
ENDBRANCH   7  30
TORSDOF 5
ENDMDL
MODEL 8
REMARK VINA RESULT:      -8.1      3.397      5.792
REMARK  5 active torsions:
REMARK  status: ('A' for Active; 'I' for Inactive)
REMARK    1  A    between atoms: C_7  and  C_8 
REMARK    2  A    between atoms: C_16  and  C_17 
REMARK    3  A    between atoms: C_20  and  O_21 
REMARK    4  A    between atoms: C_24  and  C_25 
REMARK       I    between atoms: C_25  and  N_26 
REMARK    5  A    between atoms: N_26  and  C_27 
ROOT
HETATM    1  C   UNL     1      24.036  42.761  47.931  1.00  0.00     0.070 C 
HETATM    2  C   UNL     1      25.263  42.416  48.745  1.00  0.00     0.037 A 
HETATM    3  N   UNL     1      25.346  43.052  49.981  1.00  0.00    -0.192 N 
HETATM    4  C   UNL     1      26.411  42.964  50.792  1.00  0.00     0.726 A 
HETATM    5  N   UNL     1      27.441  42.143  50.446  1.00  0.00    -0.083 N 
HETATM    6  N   UNL     1      28.483  42.272  51.291  1.00  0.00    -0.135 NA
HETATM    7  C   UNL     1      27.976  43.119  52.206  1.00  0.00     0.199 A 
HETATM    8  N   UNL     1      26.701  43.573  51.911  1.00  0.00    -0.041 NA
HETATM    9  C   UNL     1      27.471  41.330  49.225  1.00  0.00     0.202 A 
HETATM   10  C   UNL     1      26.258  41.581  48.330  1.00  0.00     0.062 A 
HETATM   11  H   UNL     1      24.596  43.691  50.231  1.00  0.00     0.184 HD
ENDROOT
BRANCH  10  12
HETATM   12  C   UNL     1      26.153  40.857  47.014  1.00  0.00     0.256 C 
HETATM   13  N   UNL     1      27.041  41.262  46.037  1.00  0.00    -0.323 N 
HETATM   14  H   UNL     1      27.779  41.905  46.274  1.00  0.00     0.169 HD
HETATM   15  O   UNL     1      25.341  39.944  46.885  1.00  0.00    -0.267 OA
BRANCH  13  16
HETATM   16  C   UNL     1      27.086  40.818  44.693  1.00  0.00     0.035 A 
HETATM   17  C   UNL     1      26.226  41.268  43.690  1.00  0.00     0.029 A 
HETATM   18  C   UNL     1      26.360  40.802  42.378  1.00  0.00     0.002 A 
HETATM   19  C   UNL     1      27.350  39.876  42.060  1.00  0.00     0.000 A 
HETATM   20  C   UNL     1      28.212  39.419  43.052  1.00  0.00     0.002 A 
HETATM   21  C   UNL     1      28.084  39.892  44.361  1.00  0.00     0.029 A 
ENDBRANCH  13  16
ENDBRANCH  10  12
BRANCH   9  22
HETATM   22  C   UNL     1      27.680  39.865  49.601  1.00  0.00    -0.028 A 
HETATM   23  C   UNL     1      28.955  39.272  49.594  1.00  0.00     0.012 A 
HETATM   24  C   UNL     1      29.115  37.922  49.919  1.00  0.00     0.037 A 
HETATM   25  C   UNL     1      27.999  37.157  50.241  1.00  0.00     0.065 A 
HETATM   26  C   UNL     1      26.730  37.718  50.241  1.00  0.00     0.037 A 
HETATM   27  C   UNL     1      26.568  39.065  49.921  1.00  0.00     0.012 A 
BRANCH  25  28
HETATM   28  O   UNL     1      28.109  35.835  50.555  1.00  0.00    -0.361 OA
HETATM   29  H   UNL     1      29.001  35.673  50.904  1.00  0.00     0.217 HD
ENDBRANCH  25  28
ENDBRANCH   9  22
BRANCH   7  30
HETATM   30  C   UNL     1      28.698  43.549  53.399  1.00  0.00     0.016 A 
HETATM   31  C   UNL     1      28.262  44.656  54.141  1.00  0.00     0.039 A 
HETATM   32  C   UNL     1      28.964  45.059  55.277  1.00  0.00     0.035 A 
HETATM   33 CL   UNL     1      28.420  46.421  56.179  1.00  0.00    -0.084 Cl
HETATM   34  C   UNL     1      30.104  44.371  55.689  1.00  0.00     0.024 A 
HETATM   35  C   UNL     1      30.546  43.269  54.958  1.00  0.00     0.003 A 
HETATM   36  C   UNL     1      29.847  42.862  53.819  1.00  0.00     0.015 A 
ENDBRANCH   7  30
TORSDOF 5
ENDMDL
MODEL 9
REMARK VINA RESULT:      -8.1     18.186     20.780
REMARK  5 active torsions:
REMARK  status: ('A' for Active; 'I' for Inactive)
REMARK    1  A    between atoms: C_7  and  C_8 
REMARK    2  A    between atoms: C_16  and  C_17 
REMARK    3  A    between atoms: C_20  and  O_21 
REMARK    4  A    between atoms: C_24  and  C_25 
REMARK       I    between atoms: C_25  and  N_26 
REMARK    5  A    between atoms: N_26  and  C_27 
ROOT
HETATM    1  C   UNL     1      35.938  44.021  65.159  1.00  0.00     0.070 C 
HETATM    2  C   UNL     1      37.310  43.411  65.344  1.00  0.00     0.037 A 
HETATM    3  N   UNL     1      37.433  42.096  64.904  1.00  0.00    -0.192 N 
HETATM    4  C   UNL     1      38.533  41.351  65.087  1.00  0.00     0.726 A 
HETATM    5  N   UNL     1      39.632  41.920  65.655  1.00  0.00    -0.083 N 
HETATM    6  N   UNL     1      40.596  41.009  65.891  1.00  0.00    -0.135 NA
HETATM    7  C   UNL     1      40.058  39.906  65.336  1.00  0.00     0.199 A 
HETATM    8  N   UNL     1      38.776  40.090  64.845  1.00  0.00    -0.041 NA
HETATM    9  C   UNL     1      39.701  43.320  66.090  1.00  0.00     0.202 A 
HETATM   10  C   UNL     1      38.367  44.046  65.925  1.00  0.00     0.062 A 
HETATM   11  H   UNL     1      36.607  41.655  64.508  1.00  0.00     0.184 HD
ENDROOT
BRANCH  10  12
HETATM   12  C   UNL     1      38.254  45.482  66.365  1.00  0.00     0.256 C 
HETATM   13  N   UNL     1      38.382  46.425  65.364  1.00  0.00    -0.323 N 
HETATM   14  H   UNL     1      38.411  46.126  64.402  1.00  0.00     0.169 HD
HETATM   15  O   UNL     1      38.020  45.741  67.542  1.00  0.00    -0.267 OA
BRANCH  13  16
HETATM   16  C   UNL     1      38.415  47.831  65.521  1.00  0.00     0.035 A 
HETATM   17  C   UNL     1      37.365  48.586  66.045  1.00  0.00     0.029 A 
HETATM   18  C   UNL     1      37.493  49.971  66.197  1.00  0.00     0.002 A 
HETATM   19  C   UNL     1      38.669  50.613  65.819  1.00  0.00     0.000 A 
HETATM   20  C   UNL     1      39.723  49.871  65.293  1.00  0.00     0.002 A 
HETATM   21  C   UNL     1      39.598  48.486  65.151  1.00  0.00     0.029 A 
ENDBRANCH  13  16
ENDBRANCH  10  12
BRANCH   9  22
HETATM   22  C   UNL     1      40.878  44.003  65.397  1.00  0.00    -0.028 A 
HETATM   23  C   UNL     1      41.975  44.507  66.119  1.00  0.00     0.012 A 
HETATM   24  C   UNL     1      43.027  45.150  65.461  1.00  0.00     0.037 A 
HETATM   25  C   UNL     1      42.981  45.303  64.080  1.00  0.00     0.065 A 
HETATM   26  C   UNL     1      41.902  44.827  63.347  1.00  0.00     0.037 A 
HETATM   27  C   UNL     1      40.852  44.182  64.001  1.00  0.00     0.012 A 
BRANCH  25  28
HETATM   28  O   UNL     1      43.980  45.933  63.399  1.00  0.00    -0.361 OA
HETATM   29  H   UNL     1      43.628  46.244  62.549  1.00  0.00     0.217 HD
ENDBRANCH  25  28
ENDBRANCH   9  22
BRANCH   7  30
HETATM   30  C   UNL     1      40.741  38.619  65.267  1.00  0.00     0.016 A 
HETATM   31  C   UNL     1      40.210  37.490  65.909  1.00  0.00     0.039 A 
HETATM   32  C   UNL     1      40.874  36.267  65.839  1.00  0.00     0.035 A 
HETATM   33 CL   UNL     1      40.214  34.889  66.632  1.00  0.00    -0.084 Cl
HETATM   34  C   UNL     1      42.071  36.148  65.134  1.00  0.00     0.024 A 
HETATM   35  C   UNL     1      42.608  37.263  64.493  1.00  0.00     0.003 A 
HETATM   36  C   UNL     1      41.946  38.492  64.561  1.00  0.00     0.015 A 
ENDBRANCH   7  30
TORSDOF 5
ENDMDL
MODEL 10
REMARK VINA RESULT:      -8.0      2.563      4.461
REMARK  5 active torsions:
REMARK  status: ('A' for Active; 'I' for Inactive)
REMARK    1  A    between atoms: C_7  and  C_8 
REMARK    2  A    between atoms: C_16  and  C_17 
REMARK    3  A    between atoms: C_20  and  O_21 
REMARK    4  A    between atoms: C_24  and  C_25 
REMARK       I    between atoms: C_25  and  N_26 
REMARK    5  A    between atoms: N_26  and  C_27 
ROOT
HETATM    1  C   UNL     1      22.514  43.437  49.932  1.00  0.00     0.070 C 
HETATM    2  C   UNL     1      23.981  43.171  50.187  1.00  0.00     0.037 A 
HETATM    3  N   UNL     1      24.405  43.422  51.490  1.00  0.00    -0.192 N 
HETATM    4  C   UNL     1      25.688  43.356  51.880  1.00  0.00     0.726 A 
HETATM    5  N   UNL     1      26.630  42.941  50.989  1.00  0.00    -0.083 N 
HETATM    6  N   UNL     1      27.875  43.061  51.491  1.00  0.00    -0.135 NA
HETATM    7  C   UNL     1      27.612  43.460  52.751  1.00  0.00     0.199 A 
HETATM    8  N   UNL     1      26.267  43.664  53.010  1.00  0.00    -0.041 NA
HETATM    9  C   UNL     1      26.338  42.549  49.605  1.00  0.00     0.202 A 
HETATM   10  C   UNL     1      24.869  42.754  49.241  1.00  0.00     0.062 A 
HETATM   11  H   UNL     1      23.713  43.763  52.152  1.00  0.00     0.184 HD
ENDROOT
BRANCH  10  12
HETATM   12  C   UNL     1      24.408  42.440  47.842  1.00  0.00     0.256 C 
HETATM   13  N   UNL     1      23.887  43.504  47.132  1.00  0.00    -0.323 N 
HETATM   14  H   UNL     1      23.955  44.435  47.512  1.00  0.00     0.169 HD
HETATM   15  O   UNL     1      24.549  41.305  47.395  1.00  0.00    -0.267 OA
BRANCH  13  16
HETATM   16  C   UNL     1      23.296  43.459  45.846  1.00  0.00     0.035 A 
HETATM   17  C   UNL     1      24.011  43.558  44.652  1.00  0.00     0.029 A 
HETATM   18  C   UNL     1      23.352  43.471  43.421  1.00  0.00     0.002 A 
HETATM   19  C   UNL     1      21.972  43.292  43.374  1.00  0.00     0.000 A 
HETATM   20  C   UNL     1      21.248  43.194  44.559  1.00  0.00     0.002 A 
HETATM   21  C   UNL     1      21.908  43.271  45.788  1.00  0.00     0.029 A 
ENDBRANCH  13  16
ENDBRANCH  10  12
BRANCH   9  22
HETATM   22  C   UNL     1      26.853  41.131  49.365  1.00  0.00    -0.028 A 
HETATM   23  C   UNL     1      26.323  40.023  50.049  1.00  0.00     0.012 A 
HETATM   24  C   UNL     1      26.830  38.740  49.828  1.00  0.00     0.037 A 
HETATM   25  C   UNL     1      27.876  38.561  48.930  1.00  0.00     0.065 A 
HETATM   26  C   UNL     1      28.424  39.641  48.253  1.00  0.00     0.037 A 
HETATM   27  C   UNL     1      27.918  40.923  48.470  1.00  0.00     0.012 A 
BRANCH  25  28
HETATM   28  O   UNL     1      28.406  37.328  48.691  1.00  0.00    -0.361 OA
HETATM   29  H   UNL     1      27.945  36.679  49.249  1.00  0.00     0.217 HD
ENDBRANCH  25  28
ENDBRANCH   9  22
BRANCH   7  30
HETATM   30  C   UNL     1      28.641  43.683  53.760  1.00  0.00     0.016 A 
HETATM   31  C   UNL     1      28.496  44.693  54.722  1.00  0.00     0.039 A 
HETATM   32  C   UNL     1      29.489  44.899  55.679  1.00  0.00     0.035 A 
HETATM   33 CL   UNL     1      29.299  46.143  56.854  1.00  0.00    -0.084 Cl
HETATM   34  C   UNL     1      30.636  44.107  55.693  1.00  0.00     0.024 A 
HETATM   35  C   UNL     1      30.791  43.101  54.742  1.00  0.00     0.003 A 
HETATM   36  C   UNL     1      29.799  42.891  53.780  1.00  0.00     0.015 A 
ENDBRANCH   7  30
TORSDOF 5
ENDMDL
