MODEL 1
REMARK VINA RESULT:      -9.1      0.000      0.000
REMARK  5 active torsions:
REMARK  status: ('A' for Active; 'I' for Inactive)
REMARK    1  A    between atoms: C_6  and  N_7 
REMARK       I    between atoms: N_7  and  C_8 
REMARK    2  A    between atoms: C_8  and  C_9 
REMARK    3  A    between atoms: C_9  and  N_10 
REMARK    4  A    between atoms: C_12  and  C_13 
REMARK    5  A    between atoms: C_14  and  O_15 
ROOT
HETATM    1  N   UNL     1      27.295  44.670  53.101  1.00  0.00    -0.325 N 
HETATM    2  C   UNL     1      25.943  44.605  53.369  1.00  0.00     0.239 C 
HETATM    3  O   UNL     1      25.396  44.571  54.467  1.00  0.00    -0.271 OA
HETATM    4  H   UNL     1      27.555  45.087  52.216  1.00  0.00     0.169 HD
ENDROOT
BRANCH   2   5
HETATM    5  C   UNL     1      25.090  44.617  52.111  1.00  0.00     0.222 C 
BRANCH   5   6
HETATM    6  N   UNL     1      25.571  45.730  51.267  1.00  0.00    -0.389 N 
HETATM    7  H   UNL     1      26.598  45.763  51.128  1.00  0.00     0.159 HD
HETATM    8  C   UNL     1      24.873  46.678  50.751  1.00  0.00     0.097 C 
BRANCH   8   9
HETATM    9  C   UNL     1      25.449  47.765  49.940  1.00  0.00     0.012 A 
HETATM   10  C   UNL     1      24.663  48.682  49.229  1.00  0.00     0.077 A 
HETATM   11  C   UNL     1      25.260  49.697  48.485  1.00  0.00     0.037 A 
HETATM   12  C   UNL     1      26.653  49.794  48.448  1.00  0.00     0.003 A 
HETATM   13  C   UNL     1      27.442  48.883  49.152  1.00  0.00     0.001 A 
HETATM   14  C   UNL     1      26.844  47.868  49.901  1.00  0.00     0.016 A 
BRANCH  10  15
HETATM   15  O   UNL     1      23.297  48.576  49.271  1.00  0.00    -0.360 OA
HETATM   16  H   UNL     1      22.915  49.350  48.806  1.00  0.00     0.217 HD
ENDBRANCH  10  15
ENDBRANCH   8   9
ENDBRANCH   5   6
ENDBRANCH   2   5
BRANCH   1  17
HETATM   17  C   UNL     1      28.375  44.522  54.013  1.00  0.00     0.046 A 
HETATM   18  C   UNL     1      28.773  45.509  54.940  1.00  0.00    -0.034 A 
HETATM   19  C   UNL     1      29.855  45.242  55.807  1.00  0.00     0.015 A 
HETATM   20  C   UNL     1      28.102  46.842  55.133  1.00  0.00     0.050 C 
HETATM   21  C   UNL     1      30.509  44.010  55.812  1.00  0.00    -0.061 A 
HETATM   22  C   UNL     1      31.617  43.724  56.783  1.00  0.00     0.048 C 
HETATM   23  C   UNL     1      30.076  43.022  54.933  1.00  0.00     0.015 A 
HETATM   24  C   UNL     1      29.024  43.259  54.031  1.00  0.00    -0.034 A 
HETATM   25  C   UNL     1      28.650  42.132  53.099  1.00  0.00     0.050 C 
ENDBRANCH   1  17
TORSDOF 5
ENDMDL
MODEL 2
REMARK VINA RESULT:      -9.1      0.472      1.924
REMARK  5 active torsions:
REMARK  status: ('A' for Active; 'I' for Inactive)
REMARK    1  A    between atoms: C_6  and  N_7 
REMARK       I    between atoms: N_7  and  C_8 
REMARK    2  A    between atoms: C_8  and  C_9 
REMARK    3  A    between atoms: C_9  and  N_10 
REMARK    4  A    between atoms: C_12  and  C_13 
REMARK    5  A    between atoms: C_14  and  O_15 
ROOT
HETATM    1  N   UNL     1      26.853  44.648  52.845  1.00  0.00    -0.325 N 
HETATM    2  C   UNL     1      25.501  44.512  53.089  1.00  0.00     0.239 C 
HETATM    3  O   UNL     1      24.955  44.236  54.154  1.00  0.00    -0.271 OA
HETATM    4  H   UNL     1      27.107  45.249  52.070  1.00  0.00     0.169 HD
ENDROOT
BRANCH   2   5
HETATM    5  C   UNL     1      24.648  44.784  51.862  1.00  0.00     0.222 C 
BRANCH   5   6
HETATM    6  N   UNL     1      25.275  45.905  51.132  1.00  0.00    -0.389 N 
HETATM    7  H   UNL     1      26.288  46.036  51.316  1.00  0.00     0.159 HD
HETATM    8  C   UNL     1      24.698  46.756  50.362  1.00  0.00     0.097 C 
BRANCH   8   9
HETATM    9  C   UNL     1      25.407  47.863  49.695  1.00  0.00     0.012 A 
HETATM   10  C   UNL     1      24.745  48.865  48.973  1.00  0.00     0.077 A 
HETATM   11  C   UNL     1      25.465  49.894  48.369  1.00  0.00     0.037 A 
HETATM   12  C   UNL     1      26.856  49.919  48.485  1.00  0.00     0.003 A 
HETATM   13  C   UNL     1      27.523  48.923  49.201  1.00  0.00     0.001 A 
HETATM   14  C   UNL     1      26.801  47.894  49.809  1.00  0.00     0.016 A 
BRANCH  10  15
HETATM   15  O   UNL     1      23.379  48.829  48.864  1.00  0.00    -0.360 OA
HETATM   16  H   UNL     1      23.041  48.139  49.473  1.00  0.00     0.217 HD
ENDBRANCH  10  15
ENDBRANCH   8   9
ENDBRANCH   5   6
ENDBRANCH   2   5
BRANCH   1  17
HETATM   17  C   UNL     1      27.934  44.321  53.706  1.00  0.00     0.046 A 
HETATM   18  C   UNL     1      28.656  43.109  53.650  1.00  0.00    -0.034 A 
HETATM   19  C   UNL     1      29.724  42.901  54.551  1.00  0.00     0.015 A 
HETATM   20  C   UNL     1      28.421  42.002  52.657  1.00  0.00     0.050 C 
HETATM   21  C   UNL     1      30.122  43.881  55.460  1.00  0.00    -0.061 A 
HETATM   22  C   UNL     1      31.298  43.665  56.367  1.00  0.00     0.048 C 
HETATM   23  C   UNL     1      29.441  45.095  55.473  1.00  0.00     0.015 A 
HETATM   24  C   UNL     1      28.352  45.328  54.616  1.00  0.00    -0.034 A 
HETATM   25  C   UNL     1      27.662  46.666  54.728  1.00  0.00     0.050 C 
ENDBRANCH   1  17
TORSDOF 5
ENDMDL
MODEL 3
REMARK VINA RESULT:      -8.7      3.641      5.111
REMARK  5 active torsions:
REMARK  status: ('A' for Active; 'I' for Inactive)
REMARK    1  A    between atoms: C_6  and  N_7 
REMARK       I    between atoms: N_7  and  C_8 
REMARK    2  A    between atoms: C_8  and  C_9 
REMARK    3  A    between atoms: C_9  and  N_10 
REMARK    4  A    between atoms: C_12  and  C_13 
REMARK    5  A    between atoms: C_14  and  O_15 
ROOT
HETATM    1  N   UNL     1      27.591  44.512  53.624  1.00  0.00    -0.325 N 
HETATM    2  C   UNL     1      26.281  44.140  53.848  1.00  0.00     0.239 C 
HETATM    3  O   UNL     1      25.771  43.791  54.909  1.00  0.00    -0.271 OA
HETATM    4  H   UNL     1      27.750  45.135  52.841  1.00  0.00     0.169 HD
ENDROOT
BRANCH   2   5
HETATM    5  C   UNL     1      25.419  44.232  52.600  1.00  0.00     0.222 C 
BRANCH   5   6
HETATM    6  N   UNL     1      25.752  43.070  51.751  1.00  0.00    -0.389 N 
HETATM    7  H   UNL     1      26.681  42.646  51.934  1.00  0.00     0.159 HD
HETATM    8  C   UNL     1      25.057  42.581  50.788  1.00  0.00     0.097 C 
BRANCH   8   9
HETATM    9  C   UNL     1      25.488  41.428  49.976  1.00  0.00     0.012 A 
HETATM   10  C   UNL     1      26.238  40.367  50.500  1.00  0.00     0.077 A 
HETATM   11  C   UNL     1      26.611  39.297  49.689  1.00  0.00     0.037 A 
HETATM   12  C   UNL     1      26.235  39.289  48.345  1.00  0.00     0.003 A 
HETATM   13  C   UNL     1      25.489  40.344  47.815  1.00  0.00     0.001 A 
HETATM   14  C   UNL     1      25.112  41.415  48.628  1.00  0.00     0.016 A 
BRANCH  10  15
HETATM   15  O   UNL     1      26.603  40.385  51.821  1.00  0.00    -0.360 OA
HETATM   16  H   UNL     1      26.084  39.699  52.292  1.00  0.00     0.217 HD
ENDBRANCH  10  15
ENDBRANCH   8   9
ENDBRANCH   5   6
ENDBRANCH   2   5
BRANCH   1  17
HETATM   17  C   UNL     1      28.695  44.400  54.510  1.00  0.00     0.046 A 
HETATM   18  C   UNL     1      29.008  45.341  55.514  1.00  0.00    -0.034 A 
HETATM   19  C   UNL     1      30.126  45.115  56.347  1.00  0.00     0.015 A 
HETATM   20  C   UNL     1      28.207  46.577  55.826  1.00  0.00     0.050 C 
HETATM   21  C   UNL     1      30.901  43.961  56.241  1.00  0.00    -0.061 A 
HETATM   22  C   UNL     1      32.049  43.709  57.174  1.00  0.00     0.048 C 
HETATM   23  C   UNL     1      30.556  43.011  55.284  1.00  0.00     0.015 A 
HETATM   24  C   UNL     1      29.470  43.214  54.415  1.00  0.00    -0.034 A 
HETATM   25  C   UNL     1      29.196  42.137  53.393  1.00  0.00     0.050 C 
ENDBRANCH   1  17
TORSDOF 5
ENDMDL
MODEL 4
REMARK VINA RESULT:      -8.3      1.658      2.221
REMARK  5 active torsions:
REMARK  status: ('A' for Active; 'I' for Inactive)
REMARK    1  A    between atoms: C_6  and  N_7 
REMARK       I    between atoms: N_7  and  C_8 
REMARK    2  A    between atoms: C_8  and  C_9 
REMARK    3  A    between atoms: C_9  and  N_10 
REMARK    4  A    between atoms: C_12  and  C_13 
REMARK    5  A    between atoms: C_14  and  O_15 
ROOT
HETATM    1  N   UNL     1      26.240  44.279  53.011  1.00  0.00    -0.325 N 
HETATM    2  C   UNL     1      26.026  44.895  51.794  1.00  0.00     0.239 C 
HETATM    3  O   UNL     1      26.869  45.341  51.020  1.00  0.00    -0.271 OA
HETATM    4  H   UNL     1      25.521  43.634  53.316  1.00  0.00     0.169 HD
ENDROOT
BRANCH   2   5
HETATM    5  C   UNL     1      24.556  44.963  51.416  1.00  0.00     0.222 C 
BRANCH   5   6
HETATM    6  N   UNL     1      24.333  46.266  50.757  1.00  0.00    -0.389 N 
HETATM    7  H   UNL     1      24.509  47.095  51.355  1.00  0.00     0.159 HD
HETATM    8  C   UNL     1      23.891  46.475  49.569  1.00  0.00     0.097 C 
BRANCH   8   9
HETATM    9  C   UNL     1      23.676  47.820  49.005  1.00  0.00     0.012 A 
HETATM   10  C   UNL     1      24.683  48.793  48.954  1.00  0.00     0.077 A 
HETATM   11  C   UNL     1      24.427  50.047  48.401  1.00  0.00     0.037 A 
HETATM   12  C   UNL     1      23.156  50.331  47.900  1.00  0.00     0.003 A 
HETATM   13  C   UNL     1      22.147  49.367  47.950  1.00  0.00     0.001 A 
HETATM   14  C   UNL     1      22.404  48.110  48.500  1.00  0.00     0.016 A 
BRANCH  10  15
HETATM   15  O   UNL     1      25.928  48.504  49.450  1.00  0.00    -0.360 OA
HETATM   16  H   UNL     1      26.383  47.914  48.813  1.00  0.00     0.217 HD
ENDBRANCH  10  15
ENDBRANCH   8   9
ENDBRANCH   5   6
ENDBRANCH   2   5
BRANCH   1  17
HETATM   17  C   UNL     1      27.454  44.183  53.741  1.00  0.00     0.046 A 
HETATM   18  C   UNL     1      27.954  45.195  54.589  1.00  0.00    -0.034 A 
HETATM   19  C   UNL     1      29.168  44.980  55.276  1.00  0.00     0.015 A 
HETATM   20  C   UNL     1      27.268  46.503  54.879  1.00  0.00     0.050 C 
HETATM   21  C   UNL     1      29.863  43.775  55.184  1.00  0.00    -0.061 A 
HETATM   22  C   UNL     1      31.121  43.543  55.970  1.00  0.00     0.048 C 
HETATM   23  C   UNL     1      29.338  42.761  54.389  1.00  0.00     0.015 A 
HETATM   24  C   UNL     1      28.149  42.947  53.663  1.00  0.00    -0.034 A 
HETATM   25  C   UNL     1      27.678  41.796  52.807  1.00  0.00     0.050 C 
ENDBRANCH   1  17
TORSDOF 5
ENDMDL
MODEL 5
REMARK VINA RESULT:      -8.3      3.649      9.118
REMARK  5 active torsions:
REMARK  status: ('A' for Active; 'I' for Inactive)
REMARK    1  A    between atoms: C_6  and  N_7 
REMARK       I    between atoms: N_7  and  C_8 
REMARK    2  A    between atoms: C_8  and  C_9 
REMARK    3  A    between atoms: C_9  and  N_10 
REMARK    4  A    between atoms: C_12  and  C_13 
REMARK    5  A    between atoms: C_14  and  O_15 
ROOT
HETATM    1  N   UNL     1      21.970  47.745  49.181  1.00  0.00    -0.325 N 
HETATM    2  C   UNL     1      22.309  46.828  48.207  1.00  0.00     0.239 C 
HETATM    3  O   UNL     1      22.252  46.972  46.989  1.00  0.00    -0.271 OA
HETATM    4  H   UNL     1      22.437  47.640  50.074  1.00  0.00     0.169 HD
ENDROOT
BRANCH   2   5
HETATM    5  C   UNL     1      22.841  45.526  48.781  1.00  0.00     0.222 C 
BRANCH   5   6
HETATM    6  N   UNL     1      23.526  45.853  50.048  1.00  0.00    -0.389 N 
HETATM    7  H   UNL     1      23.329  46.800  50.421  1.00  0.00     0.159 HD
HETATM    8  C   UNL     1      24.370  45.127  50.690  1.00  0.00     0.097 C 
BRANCH   8   9
HETATM    9  C   UNL     1      25.024  45.553  51.941  1.00  0.00     0.012 A 
HETATM   10  C   UNL     1      25.474  46.863  52.157  1.00  0.00     0.077 A 
HETATM   11  C   UNL     1      26.077  47.213  53.363  1.00  0.00     0.037 A 
HETATM   12  C   UNL     1      26.236  46.247  54.358  1.00  0.00     0.003 A 
HETATM   13  C   UNL     1      25.792  44.940  54.150  1.00  0.00     0.001 A 
HETATM   14  C   UNL     1      25.184  44.589  52.943  1.00  0.00     0.016 A 
BRANCH  10  15
HETATM   15  O   UNL     1      25.314  47.803  51.172  1.00  0.00    -0.360 OA
HETATM   16  H   UNL     1      24.678  48.476  51.491  1.00  0.00     0.217 HD
ENDBRANCH  10  15
ENDBRANCH   8   9
ENDBRANCH   5   6
ENDBRANCH   2   5
BRANCH   1  17
HETATM   17  C   UNL     1      21.302  48.988  49.017  1.00  0.00     0.046 A 
HETATM   18  C   UNL     1      21.928  50.175  48.578  1.00  0.00    -0.034 A 
HETATM   19  C   UNL     1      21.156  51.349  48.439  1.00  0.00     0.015 A 
HETATM   20  C   UNL     1      23.375  50.299  48.182  1.00  0.00     0.050 C 
HETATM   21  C   UNL     1      19.781  51.359  48.673  1.00  0.00    -0.061 A 
HETATM   22  C   UNL     1      18.968  52.602  48.461  1.00  0.00     0.048 C 
HETATM   23  C   UNL     1      19.161  50.173  49.053  1.00  0.00     0.015 A 
HETATM   24  C   UNL     1      19.898  48.990  49.234  1.00  0.00    -0.034 A 
HETATM   25  C   UNL     1      19.137  47.765  49.676  1.00  0.00     0.050 C 
ENDBRANCH   1  17
TORSDOF 5
ENDMDL
MODEL 6
REMARK VINA RESULT:      -8.0      3.132      4.998
REMARK  5 active torsions:
REMARK  status: ('A' for Active; 'I' for Inactive)
REMARK    1  A    between atoms: C_6  and  N_7 
REMARK       I    between atoms: N_7  and  C_8 
REMARK    2  A    between atoms: C_8  and  C_9 
REMARK    3  A    between atoms: C_9  and  N_10 
REMARK    4  A    between atoms: C_12  and  C_13 
REMARK    5  A    between atoms: C_14  and  O_15 
ROOT
HETATM    1  N   UNL     1      27.895  44.744  53.352  1.00  0.00    -0.325 N 
HETATM    2  C   UNL     1      26.577  44.333  53.328  1.00  0.00     0.239 C 
HETATM    3  O   UNL     1      25.960  43.741  54.209  1.00  0.00    -0.271 OA
HETATM    4  H   UNL     1      28.125  45.536  52.763  1.00  0.00     0.169 HD
ENDROOT
BRANCH   2   5
HETATM    5  C   UNL     1      25.860  44.723  52.046  1.00  0.00     0.222 C 
BRANCH   5   6
HETATM    6  N   UNL     1      25.991  43.590  51.108  1.00  0.00    -0.389 N 
HETATM    7  H   UNL     1      25.096  43.150  50.823  1.00  0.00     0.159 HD
HETATM    8  C   UNL     1      27.077  43.061  50.669  1.00  0.00     0.097 C 
BRANCH   8   9
HETATM    9  C   UNL     1      27.108  41.908  49.751  1.00  0.00     0.012 A 
HETATM   10  C   UNL     1      26.319  41.836  48.595  1.00  0.00     0.077 A 
HETATM   11  C   UNL     1      26.394  40.726  47.756  1.00  0.00     0.037 A 
HETATM   12  C   UNL     1      27.262  39.680  48.077  1.00  0.00     0.003 A 
HETATM   13  C   UNL     1      28.049  39.744  49.228  1.00  0.00     0.001 A 
HETATM   14  C   UNL     1      27.976  40.858  50.066  1.00  0.00     0.016 A 
BRANCH  10  15
HETATM   15  O   UNL     1      25.470  42.868  48.290  1.00  0.00    -0.360 OA
HETATM   16  H   UNL     1      25.904  43.709  48.547  1.00  0.00     0.217 HD
ENDBRANCH  10  15
ENDBRANCH   8   9
ENDBRANCH   5   6
ENDBRANCH   2   5
BRANCH   1  17
HETATM   17  C   UNL     1      28.895  44.420  54.307  1.00  0.00     0.046 A 
HETATM   18  C   UNL     1      29.724  43.281  54.234  1.00  0.00    -0.034 A 
HETATM   19  C   UNL     1      30.696  43.071  55.238  1.00  0.00     0.015 A 
HETATM   20  C   UNL     1      29.707  42.263  53.126  1.00  0.00     0.050 C 
HETATM   21  C   UNL     1      30.896  43.984  56.272  1.00  0.00    -0.061 A 
HETATM   22  C   UNL     1      31.973  43.774  57.295  1.00  0.00     0.048 C 
HETATM   23  C   UNL     1      30.111  45.133  56.309  1.00  0.00     0.015 A 
HETATM   24  C   UNL     1      29.111  45.363  55.347  1.00  0.00    -0.034 A 
HETATM   25  C   UNL     1      28.295  46.624  55.492  1.00  0.00     0.050 C 
ENDBRANCH   1  17
TORSDOF 5
ENDMDL
MODEL 7
REMARK VINA RESULT:      -7.8      4.192      9.572
REMARK  5 active torsions:
REMARK  status: ('A' for Active; 'I' for Inactive)
REMARK    1  A    between atoms: C_6  and  N_7 
REMARK       I    between atoms: N_7  and  C_8 
REMARK    2  A    between atoms: C_8  and  C_9 
REMARK    3  A    between atoms: C_9  and  N_10 
REMARK    4  A    between atoms: C_12  and  C_13 
REMARK    5  A    between atoms: C_14  and  O_15 
ROOT
HETATM    1  N   UNL     1      21.196  47.972  49.324  1.00  0.00    -0.325 N 
HETATM    2  C   UNL     1      22.061  47.632  48.304  1.00  0.00     0.239 C 
HETATM    3  O   UNL     1      22.336  48.288  47.303  1.00  0.00    -0.271 OA
HETATM    4  H   UNL     1      21.380  47.547  50.225  1.00  0.00     0.169 HD
ENDROOT
BRANCH   2   5
HETATM    5  C   UNL     1      22.743  46.293  48.529  1.00  0.00     0.222 C 
BRANCH   5   6
HETATM    6  N   UNL     1      23.409  46.357  49.846  1.00  0.00    -0.389 N 
HETATM    7  H   UNL     1      23.128  47.159  50.441  1.00  0.00     0.159 HD
HETATM    8  C   UNL     1      24.327  45.578  50.296  1.00  0.00     0.097 C 
BRANCH   8   9
HETATM    9  C   UNL     1      24.952  45.738  51.621  1.00  0.00     0.012 A 
HETATM   10  C   UNL     1      25.059  44.689  52.544  1.00  0.00     0.077 A 
HETATM   11  C   UNL     1      25.669  44.893  53.780  1.00  0.00     0.037 A 
HETATM   12  C   UNL     1      26.172  46.156  54.097  1.00  0.00     0.003 A 
HETATM   13  C   UNL     1      26.067  47.207  53.185  1.00  0.00     0.001 A 
HETATM   14  C   UNL     1      25.459  47.002  51.945  1.00  0.00     0.016 A 
BRANCH  10  15
HETATM   15  O   UNL     1      24.561  43.453  52.222  1.00  0.00    -0.360 OA
HETATM   16  H   UNL     1      25.303  42.812  52.227  1.00  0.00     0.217 HD
ENDBRANCH  10  15
ENDBRANCH   8   9
ENDBRANCH   5   6
ENDBRANCH   2   5
BRANCH   1  17
HETATM   17  C   UNL     1      20.283  49.059  49.370  1.00  0.00     0.046 A 
HETATM   18  C   UNL     1      18.883  48.927  49.240  1.00  0.00    -0.034 A 
HETATM   19  C   UNL     1      18.073  50.082  49.318  1.00  0.00     0.015 A 
HETATM   20  C   UNL     1      18.144  47.627  49.072  1.00  0.00     0.050 C 
HETATM   21  C   UNL     1      18.611  51.343  49.573  1.00  0.00    -0.061 A 
HETATM   22  C   UNL     1      17.728  52.549  49.712  1.00  0.00     0.048 C 
HETATM   23  C   UNL     1      19.986  51.458  49.754  1.00  0.00     0.015 A 
HETATM   24  C   UNL     1      20.830  50.339  49.652  1.00  0.00    -0.034 A 
HETATM   25  C   UNL     1      22.309  50.573  49.837  1.00  0.00     0.050 C 
ENDBRANCH   1  17
TORSDOF 5
ENDMDL
MODEL 8
REMARK VINA RESULT:      -7.8      3.835      6.296
REMARK  5 active torsions:
REMARK  status: ('A' for Active; 'I' for Inactive)
REMARK    1  A    between atoms: C_6  and  N_7 
REMARK       I    between atoms: N_7  and  C_8 
REMARK    2  A    between atoms: C_8  and  C_9 
REMARK    3  A    between atoms: C_9  and  N_10 
REMARK    4  A    between atoms: C_12  and  C_13 
REMARK    5  A    between atoms: C_14  and  O_15 
ROOT
HETATM    1  N   UNL     1      27.104  43.318  52.794  1.00  0.00    -0.325 N 
HETATM    2  C   UNL     1      26.946  43.642  51.462  1.00  0.00     0.239 C 
HETATM    3  O   UNL     1      27.567  44.482  50.816  1.00  0.00    -0.271 OA
HETATM    4  H   UNL     1      26.830  42.379  53.060  1.00  0.00     0.169 HD
ENDROOT
BRANCH   2   5
HETATM    5  C   UNL     1      25.891  42.798  50.769  1.00  0.00     0.222 C 
BRANCH   5   6
HETATM    6  N   UNL     1      26.555  41.565  50.298  1.00  0.00    -0.389 N 
HETATM    7  H   UNL     1      26.485  40.756  50.943  1.00  0.00     0.159 HD
HETATM    8  C   UNL     1      27.250  41.412  49.228  1.00  0.00     0.097 C 
BRANCH   8   9
HETATM    9  C   UNL     1      27.900  40.143  48.854  1.00  0.00     0.012 A 
HETATM   10  C   UNL     1      28.642  39.373  49.760  1.00  0.00     0.077 A 
HETATM   11  C   UNL     1      29.228  38.175  49.355  1.00  0.00     0.037 A 
HETATM   12  C   UNL     1      29.075  37.747  48.035  1.00  0.00     0.003 A 
HETATM   13  C   UNL     1      28.339  38.510  47.127  1.00  0.00     0.001 A 
HETATM   14  C   UNL     1      27.749  39.708  47.533  1.00  0.00     0.016 A 
BRANCH  10  15
HETATM   15  O   UNL     1      28.787  39.803  51.053  1.00  0.00    -0.360 OA
HETATM   16  H   UNL     1      29.653  40.256  51.130  1.00  0.00     0.217 HD
ENDBRANCH  10  15
ENDBRANCH   8   9
ENDBRANCH   5   6
ENDBRANCH   2   5
BRANCH   1  17
HETATM   17  C   UNL     1      27.876  43.997  53.774  1.00  0.00     0.046 A 
HETATM   18  C   UNL     1      27.438  45.139  54.480  1.00  0.00    -0.034 A 
HETATM   19  C   UNL     1      28.290  45.721  55.444  1.00  0.00     0.015 A 
HETATM   20  C   UNL     1      26.087  45.786  54.334  1.00  0.00     0.050 C 
HETATM   21  C   UNL     1      29.532  45.169  55.759  1.00  0.00    -0.061 A 
HETATM   22  C   UNL     1      30.397  45.767  56.829  1.00  0.00     0.048 C 
HETATM   23  C   UNL     1      29.935  44.012  55.098  1.00  0.00     0.015 A 
HETATM   24  C   UNL     1      29.130  43.421  54.109  1.00  0.00    -0.034 A 
HETATM   25  C   UNL     1      29.670  42.185  53.431  1.00  0.00     0.050 C 
ENDBRANCH   1  17
TORSDOF 5
ENDMDL
MODEL 9
REMARK VINA RESULT:      -7.7      2.602      8.615
REMARK  5 active torsions:
REMARK  status: ('A' for Active; 'I' for Inactive)
REMARK    1  A    between atoms: C_6  and  N_7 
REMARK       I    between atoms: N_7  and  C_8 
REMARK    2  A    between atoms: C_8  and  C_9 
REMARK    3  A    between atoms: C_9  and  N_10 
REMARK    4  A    between atoms: C_12  and  C_13 
REMARK    5  A    between atoms: C_14  and  O_15 
ROOT
HETATM    1  N   UNL     1      23.636  47.346  48.926  1.00  0.00    -0.325 N 
HETATM    2  C   UNL     1      24.501  46.994  49.942  1.00  0.00     0.239 C 
HETATM    3  O   UNL     1      24.630  47.532  51.038  1.00  0.00    -0.271 OA
HETATM    4  H   UNL     1      23.368  46.602  48.292  1.00  0.00     0.169 HD
ENDROOT
BRANCH   2   5
HETATM    5  C   UNL     1      25.335  45.767  49.610  1.00  0.00     0.222 C 
BRANCH   5   6
HETATM    6  N   UNL     1      26.221  45.515  50.765  1.00  0.00    -0.389 N 
HETATM    7  H   UNL     1      26.570  46.366  51.245  1.00  0.00     0.159 HD
HETATM    8  C   UNL     1      26.648  44.379  51.189  1.00  0.00     0.097 C 
BRANCH   8   9
HETATM    9  C   UNL     1      27.555  44.228  52.340  1.00  0.00     0.012 A 
HETATM   10  C   UNL     1      27.356  44.893  53.558  1.00  0.00     0.077 A 
HETATM   11  C   UNL     1      28.241  44.707  54.618  1.00  0.00     0.037 A 
HETATM   12  C   UNL     1      29.334  43.854  54.459  1.00  0.00     0.003 A 
HETATM   13  C   UNL     1      29.541  43.190  53.249  1.00  0.00     0.001 A 
HETATM   14  C   UNL     1      28.652  43.373  52.187  1.00  0.00     0.016 A 
BRANCH  10  15
HETATM   15  O   UNL     1      26.280  45.730  53.702  1.00  0.00    -0.360 OA
HETATM   16  H   UNL     1      26.235  46.311  52.914  1.00  0.00     0.217 HD
ENDBRANCH  10  15
ENDBRANCH   8   9
ENDBRANCH   5   6
ENDBRANCH   2   5
BRANCH   1  17
HETATM   17  C   UNL     1      22.833  48.513  48.827  1.00  0.00     0.046 A 
HETATM   18  C   UNL     1      23.344  49.818  48.665  1.00  0.00    -0.034 A 
HETATM   19  C   UNL     1      22.445  50.902  48.563  1.00  0.00     0.015 A 
HETATM   20  C   UNL     1      24.801  50.171  48.535  1.00  0.00     0.050 C 
HETATM   21  C   UNL     1      21.063  50.715  48.565  1.00  0.00    -0.061 A 
HETATM   22  C   UNL     1      20.123  51.873  48.394  1.00  0.00     0.048 C 
HETATM   23  C   UNL     1      20.565  49.420  48.670  1.00  0.00     0.015 A 
HETATM   24  C   UNL     1      21.426  48.317  48.806  1.00  0.00    -0.034 A 
HETATM   25  C   UNL     1      20.787  46.957  48.943  1.00  0.00     0.050 C 
ENDBRANCH   1  17
TORSDOF 5
ENDMDL
MODEL 10
REMARK VINA RESULT:      -7.6      3.559      7.864
REMARK  5 active torsions:
REMARK  status: ('A' for Active; 'I' for Inactive)
REMARK    1  A    between atoms: C_6  and  N_7 
REMARK       I    between atoms: N_7  and  C_8 
REMARK    2  A    between atoms: C_8  and  C_9 
REMARK    3  A    between atoms: C_9  and  N_10 
REMARK    4  A    between atoms: C_12  and  C_13 
REMARK    5  A    between atoms: C_14  and  O_15 
ROOT
HETATM    1  N   UNL     1      26.761  42.418  52.192  1.00  0.00    -0.325 N 
HETATM    2  C   UNL     1      28.101  42.735  52.106  1.00  0.00     0.239 C 
HETATM    3  O   UNL     1      28.624  43.596  51.403  1.00  0.00    -0.271 OA
HETATM    4  H   UNL     1      26.456  42.002  53.065  1.00  0.00     0.169 HD
ENDROOT
BRANCH   2   5
HETATM    5  C   UNL     1      28.966  41.909  53.043  1.00  0.00     0.222 C 
BRANCH   5   6
HETATM    6  N   UNL     1      29.197  42.721  54.255  1.00  0.00    -0.389 N 
HETATM    7  H   UNL     1      28.345  42.943  54.803  1.00  0.00     0.159 HD
HETATM    8  C   UNL     1      30.309  43.224  54.658  1.00  0.00     0.097 C 
BRANCH   8   9
HETATM    9  C   UNL     1      30.436  44.047  55.874  1.00  0.00     0.012 A 
HETATM   10  C   UNL     1      29.677  45.205  56.092  1.00  0.00     0.077 A 
HETATM   11  C   UNL     1      29.832  45.941  57.265  1.00  0.00     0.037 A 
HETATM   12  C   UNL     1      30.754  45.519  58.225  1.00  0.00     0.003 A 
HETATM   13  C   UNL     1      31.515  44.368  58.014  1.00  0.00     0.001 A 
HETATM   14  C   UNL     1      31.358  43.628  56.840  1.00  0.00     0.016 A 
BRANCH  10  15
HETATM   15  O   UNL     1      28.776  45.611  55.142  1.00  0.00    -0.360 OA
HETATM   16  H   UNL     1      28.035  46.064  55.597  1.00  0.00     0.217 HD
ENDBRANCH  10  15
ENDBRANCH   8   9
ENDBRANCH   5   6
ENDBRANCH   2   5
BRANCH   1  17
HETATM   17  C   UNL     1      25.699  42.869  51.363  1.00  0.00     0.046 A 
HETATM   18  C   UNL     1      25.220  42.171  50.234  1.00  0.00    -0.034 A 
HETATM   19  C   UNL     1      24.147  42.713  49.493  1.00  0.00     0.015 A 
HETATM   20  C   UNL     1      25.727  40.835  49.759  1.00  0.00     0.050 C 
HETATM   21  C   UNL     1      23.511  43.894  49.875  1.00  0.00    -0.061 A 
HETATM   22  C   UNL     1      22.333  44.422  49.109  1.00  0.00     0.048 C 
HETATM   23  C   UNL     1      23.953  44.549  51.020  1.00  0.00     0.015 A 
HETATM   24  C   UNL     1      25.039  44.060  51.767  1.00  0.00    -0.034 A 
HETATM   25  C   UNL     1      25.459  44.860  52.975  1.00  0.00     0.050 C 
ENDBRANCH   1  17
TORSDOF 5
ENDMDL
