MODEL 1
REMARK VINA RESULT:      -7.8      0.000      0.000
REMARK  11 active torsions:
REMARK  status: ('A' for Active; 'I' for Inactive)
REMARK    1  A    between atoms: C_5  and  C_6 
REMARK    2  A    between atoms: C_6  and  N_7 
REMARK    3  A    between atoms: N_7  and  C_10 
REMARK    4  A    between atoms: C_10  and  C_11 
REMARK    5  A    between atoms: C_13  and  O_14 
REMARK    6  A    between atoms: C_16  and  O_17 
REMARK    7  A    between atoms: O_17  and  C_18 
REMARK    8  A    between atoms: C_18  and  C_19 
REMARK    9  A    between atoms: C_19  and  O_20 
REMARK   10  A    between atoms: C_19  and  C_21 
REMARK   11  A    between atoms: C_21  and  N_22 
ROOT
HETATM    1  C   UNL     1      26.854  44.515  51.231  1.00  0.00    -0.030 A 
HETATM    2  C   UNL     1      26.508  45.473  52.199  1.00  0.00     0.048 A 
HETATM    3  C   UNL     1      25.782  46.619  51.846  1.00  0.00     0.102 A 
HETATM    4  C   UNL     1      25.401  46.822  50.504  1.00  0.00     0.102 A 
HETATM    5  C   UNL     1      25.772  45.890  49.534  1.00  0.00     0.040 A 
HETATM    6  C   UNL     1      26.490  44.743  49.896  1.00  0.00     0.012 A 
ENDROOT
BRANCH   4   7
HETATM    7  O   UNL     1      24.651  47.943  50.269  1.00  0.00    -0.346 OA
BRANCH   7   8
HETATM    8  C   UNL     1      25.012  48.814  49.204  1.00  0.00     0.209 C 
BRANCH   8   9
HETATM    9  C   UNL     1      23.742  49.100  48.390  1.00  0.00     0.168 C 
BRANCH   9  10
HETATM   10  O   UNL     1      23.963  50.090  47.373  1.00  0.00    -0.392 OA
HETATM   11  H   UNL     1      23.092  50.356  47.013  1.00  0.00     0.210 HD
ENDBRANCH   9  10
BRANCH   9  12
HETATM   12  C   UNL     1      22.592  49.602  49.288  1.00  0.00     0.268 C 
BRANCH  12  13
HETATM   13  N   UNL     1      21.514  48.518  49.362  1.00  0.00    -0.067 N 
HETATM   14  H   UNL     1      21.709  48.049  50.267  1.00  0.00     0.280 HD
HETATM   15  C   UNL     1      20.109  49.098  49.432  1.00  0.00     0.245 C 
HETATM   16  C   UNL     1      19.068  48.026  49.749  1.00  0.00     0.101 C 
HETATM   17  S   UNL     1      19.002  46.748  48.461  1.00  0.00    -0.166 SA
HETATM   18  C   UNL     1      20.758  46.284  48.457  1.00  0.00     0.101 C 
HETATM   19  C   UNL     1      21.672  47.492  48.253  1.00  0.00     0.245 C 
ENDBRANCH  12  13
ENDBRANCH   9  12
ENDBRANCH   8   9
ENDBRANCH   7   8
ENDBRANCH   4   7
BRANCH   3  20
HETATM   20  O   UNL     1      25.396  47.601  52.724  1.00  0.00    -0.353 OA
HETATM   21  C   UNL     1      25.871  47.527  54.063  1.00  0.00     0.210 C 
ENDBRANCH   3  20
BRANCH   1  22
HETATM   22  C   UNL     1      27.605  43.269  51.617  1.00  0.00     0.271 C 
BRANCH  22  23
HETATM   23  N   UNL     1      28.888  43.582  52.276  1.00  0.00    -0.066 N 
HETATM   24  H   UNL     1      28.947  44.576  52.535  1.00  0.00     0.277 HD
HETATM   25  H   UNL     1      29.685  43.466  51.631  1.00  0.00     0.277 HD
BRANCH  23  26
HETATM   26  C   UNL     1      29.227  42.757  53.485  1.00  0.00     0.293 C 
BRANCH  26  27
HETATM   27  C   UNL     1      29.584  43.647  54.642  1.00  0.00     0.077 A 
HETATM   28  C   UNL     1      28.791  44.728  54.995  1.00  0.00     0.145 A 
HETATM   29  N   UNL     1      29.085  45.517  56.047  1.00  0.00    -0.262 NA
HETATM   30  C   UNL     1      30.197  45.203  56.756  1.00  0.00     0.048 A 
HETATM   31  C   UNL     1      30.549  46.062  57.931  1.00  0.00     0.072 C 
HETATM   32  C   UNL     1      30.988  44.116  56.402  1.00  0.00     0.143 A 
HETATM   33  N   UNL     1      30.705  43.310  55.344  1.00  0.00    -0.260 NA
ENDBRANCH  26  27
ENDBRANCH  23  26
ENDBRANCH  22  23
ENDBRANCH   1  22
TORSDOF 11
ENDMDL
MODEL 2
REMARK VINA RESULT:      -7.4      1.239      1.992
REMARK  11 active torsions:
REMARK  status: ('A' for Active; 'I' for Inactive)
REMARK    1  A    between atoms: C_5  and  C_6 
REMARK    2  A    between atoms: C_6  and  N_7 
REMARK    3  A    between atoms: N_7  and  C_10 
REMARK    4  A    between atoms: C_10  and  C_11 
REMARK    5  A    between atoms: C_13  and  O_14 
REMARK    6  A    between atoms: C_16  and  O_17 
REMARK    7  A    between atoms: O_17  and  C_18 
REMARK    8  A    between atoms: C_18  and  C_19 
REMARK    9  A    between atoms: C_19  and  O_20 
REMARK   10  A    between atoms: C_19  and  C_21 
REMARK   11  A    between atoms: C_21  and  N_22 
ROOT
HETATM    1  C   UNL     1      26.097  44.566  51.720  1.00  0.00    -0.030 A 
HETATM    2  C   UNL     1      25.209  44.217  50.688  1.00  0.00     0.048 A 
HETATM    3  C   UNL     1      24.423  45.192  50.058  1.00  0.00     0.102 A 
HETATM    4  C   UNL     1      24.514  46.538  50.468  1.00  0.00     0.102 A 
HETATM    5  C   UNL     1      25.369  46.883  51.516  1.00  0.00     0.040 A 
HETATM    6  C   UNL     1      26.157  45.904  52.135  1.00  0.00     0.012 A 
ENDROOT
BRANCH   4   7
HETATM    7  O   UNL     1      23.746  47.422  49.758  1.00  0.00    -0.346 OA
BRANCH   7   8
HETATM    8  C   UNL     1      24.350  48.583  49.203  1.00  0.00     0.209 C 
BRANCH   8   9
HETATM    9  C   UNL     1      23.294  49.286  48.339  1.00  0.00     0.168 C 
BRANCH   9  10
HETATM   10  O   UNL     1      23.887  50.118  47.330  1.00  0.00    -0.392 OA
HETATM   11  H   UNL     1      24.851  50.160  47.499  1.00  0.00     0.210 HD
ENDBRANCH   9  10
BRANCH   9  12
HETATM   12  C   UNL     1      22.365  50.177  49.190  1.00  0.00     0.268 C 
BRANCH  12  13
HETATM   13  N   UNL     1      21.139  49.359  49.604  1.00  0.00    -0.067 N 
HETATM   14  H   UNL     1      21.491  48.784  50.393  1.00  0.00     0.280 HD
HETATM   15  C   UNL     1      20.010  50.231  50.132  1.00  0.00     0.245 C 
HETATM   16  C   UNL     1      18.897  49.396  50.763  1.00  0.00     0.101 C 
HETATM   17  S   UNL     1      18.125  48.278  49.558  1.00  0.00    -0.166 SA
HETATM   18  C   UNL     1      19.627  47.436  48.979  1.00  0.00     0.101 C 
HETATM   19  C   UNL     1      20.690  48.422  48.496  1.00  0.00     0.245 C 
ENDBRANCH  12  13
ENDBRANCH   9  12
ENDBRANCH   8   9
ENDBRANCH   7   8
ENDBRANCH   4   7
BRANCH   3  20
HETATM   20  O   UNL     1      23.537  44.944  49.039  1.00  0.00    -0.353 OA
HETATM   21  C   UNL     1      22.370  44.188  49.337  1.00  0.00     0.210 C 
ENDBRANCH   3  20
BRANCH   1  22
HETATM   22  C   UNL     1      26.964  43.524  52.373  1.00  0.00     0.271 C 
BRANCH  22  23
HETATM   23  N   UNL     1      28.355  43.990  52.539  1.00  0.00    -0.066 N 
HETATM   24  H   UNL     1      28.390  44.968  52.855  1.00  0.00     0.277 HD
HETATM   25  H   UNL     1      28.855  44.023  51.636  1.00  0.00     0.277 HD
BRANCH  23  26
HETATM   26  C   UNL     1      29.223  43.167  53.449  1.00  0.00     0.293 C 
BRANCH  26  27
HETATM   27  C   UNL     1      29.589  43.954  54.675  1.00  0.00     0.077 A 
HETATM   28  C   UNL     1      28.848  45.056  55.075  1.00  0.00     0.145 A 
HETATM   29  N   UNL     1      29.149  45.753  56.188  1.00  0.00    -0.262 NA
HETATM   30  C   UNL     1      30.213  45.325  56.911  1.00  0.00     0.048 A 
HETATM   31  C   UNL     1      30.572  46.080  58.153  1.00  0.00     0.072 C 
HETATM   32  C   UNL     1      30.952  44.217  56.509  1.00  0.00     0.143 A 
HETATM   33  N   UNL     1      30.660  43.503  55.389  1.00  0.00    -0.260 NA
ENDBRANCH  26  27
ENDBRANCH  23  26
ENDBRANCH  22  23
ENDBRANCH   1  22
TORSDOF 11
ENDMDL
MODEL 3
REMARK VINA RESULT:      -7.3      3.219      9.634
REMARK  11 active torsions:
REMARK  status: ('A' for Active; 'I' for Inactive)
REMARK    1  A    between atoms: C_5  and  C_6 
REMARK    2  A    between atoms: C_6  and  N_7 
REMARK    3  A    between atoms: N_7  and  C_10 
REMARK    4  A    between atoms: C_10  and  C_11 
REMARK    5  A    between atoms: C_13  and  O_14 
REMARK    6  A    between atoms: C_16  and  O_17 
REMARK    7  A    between atoms: O_17  and  C_18 
REMARK    8  A    between atoms: C_18  and  C_19 
REMARK    9  A    between atoms: C_19  and  O_20 
REMARK   10  A    between atoms: C_19  and  C_21 
REMARK   11  A    between atoms: C_21  and  N_22 
ROOT
HETATM    1  C   UNL     1      23.368  47.429  49.177  1.00  0.00    -0.030 A 
HETATM    2  C   UNL     1      24.533  48.121  49.547  1.00  0.00     0.048 A 
HETATM    3  C   UNL     1      25.715  47.428  49.843  1.00  0.00     0.102 A 
HETATM    4  C   UNL     1      25.737  46.020  49.778  1.00  0.00     0.102 A 
HETATM    5  C   UNL     1      24.572  45.328  49.444  1.00  0.00     0.040 A 
HETATM    6  C   UNL     1      23.397  46.027  49.142  1.00  0.00     0.012 A 
ENDROOT
BRANCH   4   7
HETATM    7  O   UNL     1      26.950  45.439  50.034  1.00  0.00    -0.346 OA
BRANCH   7   8
HETATM    8  C   UNL     1      27.029  44.028  50.191  1.00  0.00     0.209 C 
BRANCH   8   9
HETATM    9  C   UNL     1      27.787  43.750  51.498  1.00  0.00     0.168 C 
BRANCH   9  10
HETATM   10  O   UNL     1      28.336  42.423  51.532  1.00  0.00    -0.392 OA
HETATM   11  H   UNL     1      28.451  42.118  50.609  1.00  0.00     0.210 HD
ENDBRANCH   9  10
BRANCH   9  12
HETATM   12  C   UNL     1      26.873  43.909  52.730  1.00  0.00     0.268 C 
BRANCH  12  13
HETATM   13  N   UNL     1      27.022  45.331  53.276  1.00  0.00    -0.067 N 
HETATM   14  H   UNL     1      27.546  45.820  52.526  1.00  0.00     0.280 HD
HETATM   15  C   UNL     1      25.683  46.033  53.443  1.00  0.00     0.245 C 
HETATM   16  C   UNL     1      25.857  47.519  53.754  1.00  0.00     0.101 C 
HETATM   17  S   UNL     1      26.743  47.783  55.317  1.00  0.00    -0.166 SA
HETATM   18  C   UNL     1      28.219  46.788  54.956  1.00  0.00     0.101 C 
HETATM   19  C   UNL     1      27.864  45.361  54.540  1.00  0.00     0.245 C 
ENDBRANCH  12  13
ENDBRANCH   9  12
ENDBRANCH   8   9
ENDBRANCH   7   8
ENDBRANCH   4   7
BRANCH   3  20
HETATM   20  O   UNL     1      26.899  48.021  50.205  1.00  0.00    -0.353 OA
HETATM   21  C   UNL     1      27.555  48.845  49.249  1.00  0.00     0.210 C 
ENDBRANCH   3  20
BRANCH   1  22
HETATM   22  C   UNL     1      22.108  48.175  48.828  1.00  0.00     0.271 C 
BRANCH  22  23
HETATM   23  N   UNL     1      21.898  49.342  49.708  1.00  0.00    -0.066 N 
HETATM   24  H   UNL     1      22.683  49.468  50.361  1.00  0.00     0.277 HD
HETATM   25  H   UNL     1      21.094  49.201  50.340  1.00  0.00     0.277 HD
BRANCH  23  26
HETATM   26  C   UNL     1      21.642  50.652  49.018  1.00  0.00     0.293 C 
BRANCH  26  27
HETATM   27  C   UNL     1      20.220  51.085  49.232  1.00  0.00     0.077 A 
HETATM   28  C   UNL     1      19.397  50.442  50.144  1.00  0.00     0.145 A 
HETATM   29  N   UNL     1      18.128  50.839  50.365  1.00  0.00    -0.262 NA
HETATM   30  C   UNL     1      17.687  51.907  49.656  1.00  0.00     0.048 A 
HETATM   31  C   UNL     1      16.282  52.371  49.881  1.00  0.00     0.072 C 
HETATM   32  C   UNL     1      18.516  52.553  48.745  1.00  0.00     0.143 A 
HETATM   33  N   UNL     1      19.798  52.165  48.511  1.00  0.00    -0.260 NA
ENDBRANCH  26  27
ENDBRANCH  23  26
ENDBRANCH  22  23
ENDBRANCH   1  22
TORSDOF 11
ENDMDL
MODEL 4
REMARK VINA RESULT:      -7.2      1.977      2.718
REMARK  11 active torsions:
REMARK  status: ('A' for Active; 'I' for Inactive)
REMARK    1  A    between atoms: C_5  and  C_6 
REMARK    2  A    between atoms: C_6  and  N_7 
REMARK    3  A    between atoms: N_7  and  C_10 
REMARK    4  A    between atoms: C_10  and  C_11 
REMARK    5  A    between atoms: C_13  and  O_14 
REMARK    6  A    between atoms: C_16  and  O_17 
REMARK    7  A    between atoms: O_17  and  C_18 
REMARK    8  A    between atoms: C_18  and  C_19 
REMARK    9  A    between atoms: C_19  and  O_20 
REMARK   10  A    between atoms: C_19  and  C_21 
REMARK   11  A    between atoms: C_21  and  N_22 
ROOT
HETATM    1  C   UNL     1      25.542  45.224  49.593  1.00  0.00    -0.030 A 
HETATM    2  C   UNL     1      26.334  46.375  49.744  1.00  0.00     0.048 A 
HETATM    3  C   UNL     1      25.751  47.649  49.767  1.00  0.00     0.102 A 
HETATM    4  C   UNL     1      24.354  47.783  49.627  1.00  0.00     0.102 A 
HETATM    5  C   UNL     1      23.568  46.645  49.442  1.00  0.00     0.040 A 
HETATM    6  C   UNL     1      24.157  45.375  49.429  1.00  0.00     0.012 A 
ENDROOT
BRANCH   4   7
HETATM    7  O   UNL     1      23.875  49.063  49.714  1.00  0.00    -0.346 OA
BRANCH   7   8
HETATM    8  C   UNL     1      22.572  49.356  49.224  1.00  0.00     0.209 C 
BRANCH   8   9
HETATM    9  C   UNL     1      22.221  50.783  49.669  1.00  0.00     0.168 C 
BRANCH   9  10
HETATM   10  O   UNL     1      22.297  50.939  51.095  1.00  0.00    -0.392 OA
HETATM   11  H   UNL     1      23.196  51.259  51.318  1.00  0.00     0.210 HD
ENDBRANCH   9  10
BRANCH   9  12
HETATM   12  C   UNL     1      20.795  51.179  49.233  1.00  0.00     0.268 C 
BRANCH  12  13
HETATM   13  N   UNL     1      19.947  49.911  49.108  1.00  0.00    -0.067 N 
HETATM   14  H   UNL     1      20.653  49.152  49.089  1.00  0.00     0.280 HD
HETATM   15  C   UNL     1      19.055  49.687  50.320  1.00  0.00     0.245 C 
HETATM   16  C   UNL     1      18.401  48.306  50.295  1.00  0.00     0.101 C 
HETATM   17  S   UNL     1      17.319  48.098  48.852  1.00  0.00    -0.166 SA
HETATM   18  C   UNL     1      18.521  48.518  47.556  1.00  0.00     0.101 C 
HETATM   19  C   UNL     1      19.178  49.877  47.798  1.00  0.00     0.245 C 
ENDBRANCH  12  13
ENDBRANCH   9  12
ENDBRANCH   8   9
ENDBRANCH   7   8
ENDBRANCH   4   7
BRANCH   3  20
HETATM   20  O   UNL     1      26.444  48.824  49.917  1.00  0.00    -0.353 OA
HETATM   21  C   UNL     1      27.550  49.063  49.055  1.00  0.00     0.210 C 
ENDBRANCH   3  20
BRANCH   1  22
HETATM   22  C   UNL     1      26.166  43.855  49.601  1.00  0.00     0.271 C 
BRANCH  22  23
HETATM   23  N   UNL     1      27.349  43.795  50.483  1.00  0.00    -0.066 N 
HETATM   24  H   UNL     1      27.497  44.685  50.976  1.00  0.00     0.277 HD
HETATM   25  H   UNL     1      28.221  43.684  49.941  1.00  0.00     0.277 HD
BRANCH  23  26
HETATM   26  C   UNL     1      27.363  42.684  51.495  1.00  0.00     0.293 C 
BRANCH  26  27
HETATM   27  C   UNL     1      28.282  43.026  52.632  1.00  0.00     0.077 A 
HETATM   28  C   UNL     1      27.857  43.804  53.698  1.00  0.00     0.145 A 
HETATM   29  N   UNL     1      28.663  44.094  54.738  1.00  0.00    -0.262 NA
HETATM   30  C   UNL     1      29.919  43.583  54.701  1.00  0.00     0.048 A 
HETATM   31  C   UNL     1      30.838  43.888  55.843  1.00  0.00     0.072 C 
HETATM   32  C   UNL     1      30.342  42.800  53.633  1.00  0.00     0.143 A 
HETATM   33  N   UNL     1      29.540  42.498  52.577  1.00  0.00    -0.260 NA
ENDBRANCH  26  27
ENDBRANCH  23  26
ENDBRANCH  22  23
ENDBRANCH   1  22
TORSDOF 11
ENDMDL
MODEL 5
REMARK VINA RESULT:      -7.0     12.338     14.243
REMARK  11 active torsions:
REMARK  status: ('A' for Active; 'I' for Inactive)
REMARK    1  A    between atoms: C_5  and  C_6 
REMARK    2  A    between atoms: C_6  and  N_7 
REMARK    3  A    between atoms: N_7  and  C_10 
REMARK    4  A    between atoms: C_10  and  C_11 
REMARK    5  A    between atoms: C_13  and  O_14 
REMARK    6  A    between atoms: C_16  and  O_17 
REMARK    7  A    between atoms: O_17  and  C_18 
REMARK    8  A    between atoms: C_18  and  C_19 
REMARK    9  A    between atoms: C_19  and  O_20 
REMARK   10  A    between atoms: C_19  and  C_21 
REMARK   11  A    between atoms: C_21  and  N_22 
ROOT
HETATM    1  C   UNL     1      32.630  51.757  39.091  1.00  0.00    -0.030 A 
HETATM    2  C   UNL     1      31.879  52.301  40.147  1.00  0.00     0.048 A 
HETATM    3  C   UNL     1      30.485  52.414  40.050  1.00  0.00     0.102 A 
HETATM    4  C   UNL     1      29.826  51.987  38.879  1.00  0.00     0.102 A 
HETATM    5  C   UNL     1      30.573  51.478  37.815  1.00  0.00     0.040 A 
HETATM    6  C   UNL     1      31.964  51.362  37.922  1.00  0.00     0.012 A 
ENDROOT
BRANCH   4   7
HETATM    7  O   UNL     1      28.461  52.090  38.902  1.00  0.00    -0.346 OA
BRANCH   7   8
HETATM    8  C   UNL     1      27.670  50.969  38.530  1.00  0.00     0.209 C 
BRANCH   8   9
HETATM    9  C   UNL     1      26.857  50.548  39.763  1.00  0.00     0.168 C 
BRANCH   9  10
HETATM   10  O   UNL     1      27.001  51.477  40.848  1.00  0.00    -0.392 OA
HETATM   11  H   UNL     1      27.702  51.141  41.444  1.00  0.00     0.210 HD
ENDBRANCH   9  10
BRANCH   9  12
HETATM   12  C   UNL     1      27.284  49.158  40.278  1.00  0.00     0.268 C 
BRANCH  12  13
HETATM   13  N   UNL     1      28.811  49.059  40.222  1.00  0.00    -0.067 N 
HETATM   14  H   UNL     1      29.094  49.970  39.814  1.00  0.00     0.280 HD
HETATM   15  C   UNL     1      29.438  48.954  41.604  1.00  0.00     0.245 C 
HETATM   16  C   UNL     1      30.958  49.101  41.550  1.00  0.00     0.101 C 
HETATM   17  S   UNL     1      31.729  47.784  40.566  1.00  0.00    -0.166 SA
HETATM   18  C   UNL     1      30.776  48.004  39.035  1.00  0.00     0.101 C 
HETATM   19  C   UNL     1      29.268  47.956  39.284  1.00  0.00     0.245 C 
ENDBRANCH  12  13
ENDBRANCH   9  12
ENDBRANCH   8   9
ENDBRANCH   7   8
ENDBRANCH   4   7
BRANCH   3  20
HETATM   20  O   UNL     1      29.672  52.924  41.032  1.00  0.00    -0.353 OA
HETATM   21  C   UNL     1      30.016  52.665  42.387  1.00  0.00     0.210 C 
ENDBRANCH   3  20
BRANCH   1  22
HETATM   22  C   UNL     1      34.123  51.607  39.208  1.00  0.00     0.271 C 
BRANCH  22  23
HETATM   23  N   UNL     1      34.495  50.533  40.151  1.00  0.00    -0.066 N 
HETATM   24  H   UNL     1      34.192  49.611  39.812  1.00  0.00     0.277 HD
HETATM   25  H   UNL     1      33.992  50.625  41.048  1.00  0.00     0.277 HD
BRANCH  23  26
HETATM   26  C   UNL     1      35.951  50.449  40.515  1.00  0.00     0.293 C 
BRANCH  26  27
HETATM   27  C   UNL     1      36.264  51.393  41.640  1.00  0.00     0.077 A 
HETATM   28  C   UNL     1      35.364  51.611  42.672  1.00  0.00     0.145 A 
HETATM   29  N   UNL     1      35.644  52.434  43.703  1.00  0.00    -0.262 NA
HETATM   30  C   UNL     1      36.857  53.040  43.691  1.00  0.00     0.048 A 
HETATM   31  C   UNL     1      37.196  53.959  44.823  1.00  0.00     0.072 C 
HETATM   32  C   UNL     1      37.759  52.815  42.657  1.00  0.00     0.143 A 
HETATM   33  N   UNL     1      37.491  51.988  41.611  1.00  0.00    -0.260 NA
ENDBRANCH  26  27
ENDBRANCH  23  26
ENDBRANCH  22  23
ENDBRANCH   1  22
TORSDOF 11
ENDMDL
MODEL 6
REMARK VINA RESULT:      -7.0      1.586      2.582
REMARK  11 active torsions:
REMARK  status: ('A' for Active; 'I' for Inactive)
REMARK    1  A    between atoms: C_5  and  C_6 
REMARK    2  A    between atoms: C_6  and  N_7 
REMARK    3  A    between atoms: N_7  and  C_10 
REMARK    4  A    between atoms: C_10  and  C_11 
REMARK    5  A    between atoms: C_13  and  O_14 
REMARK    6  A    between atoms: C_16  and  O_17 
REMARK    7  A    between atoms: O_17  and  C_18 
REMARK    8  A    between atoms: C_18  and  C_19 
REMARK    9  A    between atoms: C_19  and  O_20 
REMARK   10  A    between atoms: C_19  and  C_21 
REMARK   11  A    between atoms: C_21  and  N_22 
ROOT
HETATM    1  C   UNL     1      26.203  44.085  49.692  1.00  0.00    -0.030 A 
HETATM    2  C   UNL     1      24.810  44.087  49.510  1.00  0.00     0.048 A 
HETATM    3  C   UNL     1      24.089  45.290  49.516  1.00  0.00     0.102 A 
HETATM    4  C   UNL     1      24.764  46.511  49.717  1.00  0.00     0.102 A 
HETATM    5  C   UNL     1      26.143  46.509  49.932  1.00  0.00     0.040 A 
HETATM    6  C   UNL     1      26.857  45.304  49.917  1.00  0.00     0.012 A 
ENDROOT
BRANCH   4   7
HETATM    7  O   UNL     1      23.981  47.633  49.655  1.00  0.00    -0.346 OA
BRANCH   7   8
HETATM    8  C   UNL     1      24.471  48.790  48.991  1.00  0.00     0.209 C 
BRANCH   8   9
HETATM    9  C   UNL     1      23.292  49.427  48.241  1.00  0.00     0.168 C 
BRANCH   9  10
HETATM   10  O   UNL     1      23.730  50.285  47.175  1.00  0.00    -0.392 OA
HETATM   11  H   UNL     1      24.693  50.153  47.055  1.00  0.00     0.210 HD
ENDBRANCH   9  10
BRANCH   9  12
HETATM   12  C   UNL     1      22.407  50.269  49.183  1.00  0.00     0.268 C 
BRANCH  12  13
HETATM   13  N   UNL     1      21.198  49.431  49.605  1.00  0.00    -0.067 N 
HETATM   14  H   UNL     1      21.554  48.890  50.415  1.00  0.00     0.280 HD
HETATM   15  C   UNL     1      20.038  50.286  50.091  1.00  0.00     0.245 C 
HETATM   16  C   UNL     1      18.939  49.440  50.732  1.00  0.00     0.101 C 
HETATM   17  S   UNL     1      18.215  48.266  49.551  1.00  0.00    -0.166 SA
HETATM   18  C   UNL     1      19.747  47.448  49.017  1.00  0.00     0.101 C 
HETATM   19  C   UNL     1      20.790  48.448  48.520  1.00  0.00     0.245 C 
ENDBRANCH  12  13
ENDBRANCH   9  12
ENDBRANCH   8   9
ENDBRANCH   7   8
ENDBRANCH   4   7
BRANCH   3  20
HETATM   20  O   UNL     1      22.731  45.388  49.339  1.00  0.00    -0.353 OA
HETATM   21  C   UNL     1      22.070  44.341  48.640  1.00  0.00     0.210 C 
ENDBRANCH   3  20
BRANCH   1  22
HETATM   22  C   UNL     1      26.980  42.796  49.652  1.00  0.00     0.271 C 
BRANCH  22  23
HETATM   23  N   UNL     1      27.806  42.614  50.862  1.00  0.00    -0.066 N 
HETATM   24  H   UNL     1      28.515  43.353  50.950  1.00  0.00     0.277 HD
HETATM   25  H   UNL     1      28.375  41.754  50.808  1.00  0.00     0.277 HD
BRANCH  23  26
HETATM   26  C   UNL     1      27.059  42.518  52.163  1.00  0.00     0.293 C 
BRANCH  26  27
HETATM   27  C   UNL     1      27.735  43.349  53.216  1.00  0.00     0.077 A 
HETATM   28  C   UNL     1      28.840  42.880  53.909  1.00  0.00     0.145 A 
HETATM   29  N   UNL     1      29.472  43.627  54.836  1.00  0.00    -0.262 NA
HETATM   30  C   UNL     1      28.981  44.870  55.060  1.00  0.00     0.048 A 
HETATM   31  C   UNL     1      29.663  45.723  56.084  1.00  0.00     0.072 C 
HETATM   32  C   UNL     1      27.876  45.340  54.360  1.00  0.00     0.143 A 
HETATM   33  N   UNL     1      27.227  44.599  53.422  1.00  0.00    -0.260 NA
ENDBRANCH  26  27
ENDBRANCH  23  26
ENDBRANCH  22  23
ENDBRANCH   1  22
TORSDOF 11
ENDMDL
MODEL 7
REMARK VINA RESULT:      -6.9      2.156      3.125
REMARK  11 active torsions:
REMARK  status: ('A' for Active; 'I' for Inactive)
REMARK    1  A    between atoms: C_5  and  C_6 
REMARK    2  A    between atoms: C_6  and  N_7 
REMARK    3  A    between atoms: N_7  and  C_10 
REMARK    4  A    between atoms: C_10  and  C_11 
REMARK    5  A    between atoms: C_13  and  O_14 
REMARK    6  A    between atoms: C_16  and  O_17 
REMARK    7  A    between atoms: O_17  and  C_18 
REMARK    8  A    between atoms: C_18  and  C_19 
REMARK    9  A    between atoms: C_19  and  O_20 
REMARK   10  A    between atoms: C_19  and  C_21 
REMARK   11  A    between atoms: C_21  and  N_22 
ROOT
HETATM    1  C   UNL     1      25.254  44.141  51.738  1.00  0.00    -0.030 A 
HETATM    2  C   UNL     1      25.070  45.488  51.385  1.00  0.00     0.048 A 
HETATM    3  C   UNL     1      24.219  45.842  50.328  1.00  0.00     0.102 A 
HETATM    4  C   UNL     1      23.546  44.837  49.603  1.00  0.00     0.102 A 
HETATM    5  C   UNL     1      23.752  43.496  49.931  1.00  0.00     0.040 A 
HETATM    6  C   UNL     1      24.598  43.151  50.992  1.00  0.00     0.012 A 
ENDROOT
BRANCH   4   7
HETATM    7  O   UNL     1      22.699  45.285  48.625  1.00  0.00    -0.346 OA
BRANCH   7   8
HETATM    8  C   UNL     1      21.503  44.565  48.354  1.00  0.00     0.209 C 
BRANCH   8   9
HETATM    9  C   UNL     1      20.328  45.411  48.864  1.00  0.00     0.168 C 
BRANCH   9  10
HETATM   10  O   UNL     1      19.078  44.708  48.775  1.00  0.00    -0.392 OA
HETATM   11  H   UNL     1      19.272  43.765  48.599  1.00  0.00     0.210 HD
ENDBRANCH   9  10
BRANCH   9  12
HETATM   12  C   UNL     1      20.182  46.723  48.066  1.00  0.00     0.268 C 
BRANCH  12  13
HETATM   13  N   UNL     1      20.364  47.905  49.023  1.00  0.00    -0.067 N 
HETATM   14  H   UNL     1      20.813  47.474  49.852  1.00  0.00     0.280 HD
HETATM   15  C   UNL     1      21.315  48.957  48.473  1.00  0.00     0.245 C 
HETATM   16  C   UNL     1      21.675  50.003  49.527  1.00  0.00     0.101 C 
HETATM   17  S   UNL     1      20.213  50.918  50.096  1.00  0.00    -0.166 SA
HETATM   18  C   UNL     1      19.187  49.502  50.586  1.00  0.00     0.101 C 
HETATM   19  C   UNL     1      19.028  48.487  49.454  1.00  0.00     0.245 C 
ENDBRANCH  12  13
ENDBRANCH   9  12
ENDBRANCH   8   9
ENDBRANCH   7   8
ENDBRANCH   4   7
BRANCH   3  20
HETATM   20  O   UNL     1      23.975  47.129  49.918  1.00  0.00    -0.353 OA
HETATM   21  C   UNL     1      25.090  47.954  49.601  1.00  0.00     0.210 C 
ENDBRANCH   3  20
BRANCH   1  22
HETATM   22  C   UNL     1      26.142  43.764  52.894  1.00  0.00     0.271 C 
BRANCH  22  23
HETATM   23  N   UNL     1      27.385  44.560  52.914  1.00  0.00    -0.066 N 
HETATM   24  H   UNL     1      27.280  45.410  53.484  1.00  0.00     0.277 HD
HETATM   25  H   UNL     1      27.610  44.937  51.980  1.00  0.00     0.277 HD
BRANCH  23  26
HETATM   26  C   UNL     1      28.624  43.839  53.365  1.00  0.00     0.293 C 
BRANCH  26  27
HETATM   27  C   UNL     1      29.153  44.450  54.631  1.00  0.00     0.077 A 
HETATM   28  C   UNL     1      28.518  45.525  55.236  1.00  0.00     0.145 A 
HETATM   29  N   UNL     1      28.967  46.064  56.387  1.00  0.00    -0.262 NA
HETATM   30  C   UNL     1      30.072  45.503  56.937  1.00  0.00     0.048 A 
HETATM   31  C   UNL     1      30.594  46.080  58.215  1.00  0.00     0.072 C 
HETATM   32  C   UNL     1      30.704  44.423  56.330  1.00  0.00     0.143 A 
HETATM   33  N   UNL     1      30.264  43.867  55.169  1.00  0.00    -0.260 NA
ENDBRANCH  26  27
ENDBRANCH  23  26
ENDBRANCH  22  23
ENDBRANCH   1  22
TORSDOF 11
ENDMDL
MODEL 8
REMARK VINA RESULT:      -6.8     11.964     13.772
REMARK  11 active torsions:
REMARK  status: ('A' for Active; 'I' for Inactive)
REMARK    1  A    between atoms: C_5  and  C_6 
REMARK    2  A    between atoms: C_6  and  N_7 
REMARK    3  A    between atoms: N_7  and  C_10 
REMARK    4  A    between atoms: C_10  and  C_11 
REMARK    5  A    between atoms: C_13  and  O_14 
REMARK    6  A    between atoms: C_16  and  O_17 
REMARK    7  A    between atoms: O_17  and  C_18 
REMARK    8  A    between atoms: C_18  and  C_19 
REMARK    9  A    between atoms: C_19  and  O_20 
REMARK   10  A    between atoms: C_19  and  C_21 
REMARK   11  A    between atoms: C_21  and  N_22 
ROOT
HETATM    1  C   UNL     1      32.801  50.397  42.122  1.00  0.00    -0.030 A 
HETATM    2  C   UNL     1      32.677  50.512  40.727  1.00  0.00     0.048 A 
HETATM    3  C   UNL     1      31.605  49.913  40.052  1.00  0.00     0.102 A 
HETATM    4  C   UNL     1      30.644  49.176  40.775  1.00  0.00     0.102 A 
HETATM    5  C   UNL     1      30.783  49.031  42.156  1.00  0.00     0.040 A 
HETATM    6  C   UNL     1      31.853  49.640  42.824  1.00  0.00     0.012 A 
ENDROOT
BRANCH   4   7
HETATM    7  O   UNL     1      29.608  48.674  40.033  1.00  0.00    -0.346 OA
BRANCH   7   8
HETATM    8  C   UNL     1      28.576  47.942  40.681  1.00  0.00     0.209 C 
BRANCH   8   9
HETATM    9  C   UNL     1      27.400  48.903  40.907  1.00  0.00     0.168 C 
BRANCH   9  10
HETATM   10  O   UNL     1      26.242  48.229  41.425  1.00  0.00    -0.392 OA
HETATM   11  H   UNL     1      26.305  47.284  41.177  1.00  0.00     0.210 HD
ENDBRANCH   9  10
BRANCH   9  12
HETATM   12  C   UNL     1      26.982  49.608  39.600  1.00  0.00     0.268 C 
BRANCH  12  13
HETATM   13  N   UNL     1      27.432  51.070  39.662  1.00  0.00    -0.067 N 
HETATM   14  H   UNL     1      26.553  51.597  39.498  1.00  0.00     0.280 HD
HETATM   15  C   UNL     1      27.958  51.459  41.035  1.00  0.00     0.245 C 
HETATM   16  C   UNL     1      28.174  52.967  41.154  1.00  0.00     0.101 C 
HETATM   17  S   UNL     1      29.413  53.567  39.970  1.00  0.00    -0.166 SA
HETATM   18  C   UNL     1      28.669  52.909  38.450  1.00  0.00     0.101 C 
HETATM   19  C   UNL     1      28.403  51.407  38.543  1.00  0.00     0.245 C 
ENDBRANCH  12  13
ENDBRANCH   9  12
ENDBRANCH   8   9
ENDBRANCH   7   8
ENDBRANCH   4   7
BRANCH   3  20
HETATM   20  O   UNL     1      31.399  49.979  38.696  1.00  0.00    -0.353 OA
HETATM   21  C   UNL     1      32.001  51.051  37.980  1.00  0.00     0.210 C 
ENDBRANCH   3  20
BRANCH   1  22
HETATM   22  C   UNL     1      33.934  51.068  42.850  1.00  0.00     0.271 C 
BRANCH  22  23
HETATM   23  N   UNL     1      35.222  50.385  42.614  1.00  0.00    -0.066 N 
HETATM   24  H   UNL     1      35.092  49.498  42.111  1.00  0.00     0.277 HD
HETATM   25  H   UNL     1      35.661  50.085  43.499  1.00  0.00     0.277 HD
BRANCH  23  26
HETATM   26  C   UNL     1      36.272  51.186  41.897  1.00  0.00     0.293 C 
BRANCH  26  27
HETATM   27  C   UNL     1      36.814  52.260  42.795  1.00  0.00     0.077 A 
HETATM   28  C   UNL     1      37.297  51.968  44.062  1.00  0.00     0.145 A 
HETATM   29  N   UNL     1      37.812  52.919  44.867  1.00  0.00    -0.262 NA
HETATM   30  C   UNL     1      37.845  54.183  44.380  1.00  0.00     0.048 A 
HETATM   31  C   UNL     1      38.412  55.261  45.251  1.00  0.00     0.072 C 
HETATM   32  C   UNL     1      37.364  54.472  43.107  1.00  0.00     0.143 A 
HETATM   33  N   UNL     1      36.842  53.525  42.283  1.00  0.00    -0.260 NA
ENDBRANCH  26  27
ENDBRANCH  23  26
ENDBRANCH  22  23
ENDBRANCH   1  22
TORSDOF 11
ENDMDL
MODEL 9
REMARK VINA RESULT:      -6.8     13.652     16.182
REMARK  11 active torsions:
REMARK  status: ('A' for Active; 'I' for Inactive)
REMARK    1  A    between atoms: C_5  and  C_6 
REMARK    2  A    between atoms: C_6  and  N_7 
REMARK    3  A    between atoms: N_7  and  C_10 
REMARK    4  A    between atoms: C_10  and  C_11 
REMARK    5  A    between atoms: C_13  and  O_14 
REMARK    6  A    between atoms: C_16  and  O_17 
REMARK    7  A    between atoms: O_17  and  C_18 
REMARK    8  A    between atoms: C_18  and  C_19 
REMARK    9  A    between atoms: C_19  and  O_20 
REMARK   10  A    between atoms: C_19  and  C_21 
REMARK   11  A    between atoms: C_21  and  N_22 
ROOT
HETATM    1  C   UNL     1      32.675  51.877  39.199  1.00  0.00    -0.030 A 
HETATM    2  C   UNL     1      31.888  52.376  40.252  1.00  0.00     0.048 A 
HETATM    3  C   UNL     1      30.492  52.423  40.142  1.00  0.00     0.102 A 
HETATM    4  C   UNL     1      29.865  51.975  38.960  1.00  0.00     0.102 A 
HETATM    5  C   UNL     1      30.646  51.511  37.901  1.00  0.00     0.040 A 
HETATM    6  C   UNL     1      32.040  51.460  38.021  1.00  0.00     0.012 A 
ENDROOT
BRANCH   4   7
HETATM    7  O   UNL     1      28.496  52.013  38.970  1.00  0.00    -0.346 OA
BRANCH   7   8
HETATM    8  C   UNL     1      27.764  50.843  38.632  1.00  0.00     0.209 C 
BRANCH   8   9
HETATM    9  C   UNL     1      26.918  50.457  39.854  1.00  0.00     0.168 C 
BRANCH   9  10
HETATM   10  O   UNL     1      26.969  51.457  40.884  1.00  0.00    -0.392 OA
HETATM   11  H   UNL     1      26.307  52.147  40.671  1.00  0.00     0.210 HD
ENDBRANCH   9  10
BRANCH   9  12
HETATM   12  C   UNL     1      27.389  49.125  40.474  1.00  0.00     0.268 C 
BRANCH  12  13
HETATM   13  N   UNL     1      28.917  49.062  40.406  1.00  0.00    -0.067 N 
HETATM   14  H   UNL     1      29.175  49.977  39.991  1.00  0.00     0.280 HD
HETATM   15  C   UNL     1      29.558  48.978  41.783  1.00  0.00     0.245 C 
HETATM   16  C   UNL     1      31.073  49.159  41.715  1.00  0.00     0.101 C 
HETATM   17  S   UNL     1      31.866  47.856  40.729  1.00  0.00    -0.166 SA
HETATM   18  C   UNL     1      30.895  48.048  39.206  1.00  0.00     0.101 C 
HETATM   19  C   UNL     1      29.391  47.965  39.467  1.00  0.00     0.245 C 
ENDBRANCH  12  13
ENDBRANCH   9  12
ENDBRANCH   8   9
ENDBRANCH   7   8
ENDBRANCH   4   7
BRANCH   3  20
HETATM   20  O   UNL     1      29.645  52.886  41.119  1.00  0.00    -0.353 OA
HETATM   21  C   UNL     1      30.029  52.704  42.477  1.00  0.00     0.210 C 
ENDBRANCH   3  20
BRANCH   1  22
HETATM   22  C   UNL     1      34.172  51.797  39.331  1.00  0.00     0.271 C 
BRANCH  22  23
HETATM   23  N   UNL     1      34.760  53.091  39.730  1.00  0.00    -0.066 N 
HETATM   24  H   UNL     1      34.667  53.253  40.741  1.00  0.00     0.277 HD
HETATM   25  H   UNL     1      34.241  53.886  39.321  1.00  0.00     0.277 HD
BRANCH  23  26
HETATM   26  C   UNL     1      36.196  53.311  39.346  1.00  0.00     0.293 C 
BRANCH  26  27
HETATM   27  C   UNL     1      36.381  54.692  38.785  1.00  0.00     0.077 A 
HETATM   28  C   UNL     1      36.261  55.819  39.583  1.00  0.00     0.145 A 
HETATM   29  N   UNL     1      36.453  57.062  39.098  1.00  0.00    -0.262 NA
HETATM   30  C   UNL     1      36.777  57.164  37.786  1.00  0.00     0.048 A 
HETATM   31  C   UNL     1      36.997  58.532  37.219  1.00  0.00     0.072 C 
HETATM   32  C   UNL     1      36.902  56.032  36.989  1.00  0.00     0.143 A 
HETATM   33  N   UNL     1      36.712  54.771  37.463  1.00  0.00    -0.260 NA
ENDBRANCH  26  27
ENDBRANCH  23  26
ENDBRANCH  22  23
ENDBRANCH   1  22
TORSDOF 11
ENDMDL
MODEL 10
REMARK VINA RESULT:      -6.7     12.320     14.586
REMARK  11 active torsions:
REMARK  status: ('A' for Active; 'I' for Inactive)
REMARK    1  A    between atoms: C_5  and  C_6 
REMARK    2  A    between atoms: C_6  and  N_7 
REMARK    3  A    between atoms: N_7  and  C_10 
REMARK    4  A    between atoms: C_10  and  C_11 
REMARK    5  A    between atoms: C_13  and  O_14 
REMARK    6  A    between atoms: C_16  and  O_17 
REMARK    7  A    between atoms: O_17  and  C_18 
REMARK    8  A    between atoms: C_18  and  C_19 
REMARK    9  A    between atoms: C_19  and  O_20 
REMARK   10  A    between atoms: C_19  and  C_21 
REMARK   11  A    between atoms: C_21  and  N_22 
ROOT
HETATM    1  C   UNL     1      32.575  50.274  42.152  1.00  0.00    -0.030 A 
HETATM    2  C   UNL     1      32.502  50.414  40.755  1.00  0.00     0.048 A 
HETATM    3  C   UNL     1      31.452  49.833  40.031  1.00  0.00     0.102 A 
HETATM    4  C   UNL     1      30.461  49.090  40.706  1.00  0.00     0.102 A 
HETATM    5  C   UNL     1      30.549  48.921  42.088  1.00  0.00     0.040 A 
HETATM    6  C   UNL     1      31.597  49.512  42.806  1.00  0.00     0.012 A 
ENDROOT
BRANCH   4   7
HETATM    7  O   UNL     1      29.451  48.607  39.918  1.00  0.00    -0.346 OA
BRANCH   7   8
HETATM    8  C   UNL     1      28.391  47.871  40.516  1.00  0.00     0.209 C 
BRANCH   8   9
HETATM    9  C   UNL     1      27.262  48.862  40.835  1.00  0.00     0.168 C 
BRANCH   9  10
HETATM   10  O   UNL     1      26.108  48.208  41.386  1.00  0.00    -0.392 OA
HETATM   11  H   UNL     1      26.136  48.310  42.359  1.00  0.00     0.210 HD
ENDBRANCH   9  10
BRANCH   9  12
HETATM   12  C   UNL     1      26.807  49.630  39.577  1.00  0.00     0.268 C 
BRANCH  12  13
HETATM   13  N   UNL     1      27.318  51.070  39.665  1.00  0.00    -0.067 N 
HETATM   14  H   UNL     1      26.464  51.636  39.501  1.00  0.00     0.280 HD
HETATM   15  C   UNL     1      27.847  51.415  41.049  1.00  0.00     0.245 C 
HETATM   16  C   UNL     1      28.126  52.911  41.192  1.00  0.00     0.101 C 
HETATM   17  S   UNL     1      29.401  53.475  40.029  1.00  0.00    -0.166 SA
HETATM   18  C   UNL     1      28.644  52.872  38.492  1.00  0.00     0.101 C 
HETATM   19  C   UNL     1      28.313  51.381  38.560  1.00  0.00     0.245 C 
ENDBRANCH  12  13
ENDBRANCH   9  12
ENDBRANCH   8   9
ENDBRANCH   7   8
ENDBRANCH   4   7
BRANCH   3  20
HETATM   20  O   UNL     1      31.297  49.923  38.670  1.00  0.00    -0.353 OA
HETATM   21  C   UNL     1      31.925  51.006  37.995  1.00  0.00     0.210 C 
ENDBRANCH   3  20
BRANCH   1  22
HETATM   22  C   UNL     1      33.684  50.926  42.932  1.00  0.00     0.271 C 
BRANCH  22  23
HETATM   23  N   UNL     1      35.001  50.715  42.298  1.00  0.00    -0.066 N 
HETATM   24  H   UNL     1      34.914  50.586  41.281  1.00  0.00     0.277 HD
HETATM   25  H   UNL     1      35.433  49.829  42.606  1.00  0.00     0.277 HD
BRANCH  23  26
HETATM   26  C   UNL     1      36.034  51.775  42.553  1.00  0.00     0.293 C 
BRANCH  26  27
HETATM   27  C   UNL     1      36.211  52.637  41.336  1.00  0.00     0.077 A 
HETATM   28  C   UNL     1      35.716  52.252  40.099  1.00  0.00     0.145 A 
HETATM   29  N   UNL     1      35.843  53.029  39.005  1.00  0.00    -0.262 NA
HETATM   30  C   UNL     1      36.476  54.217  39.167  1.00  0.00     0.048 A 
HETATM   31  C   UNL     1      36.632  55.102  37.970  1.00  0.00     0.072 C 
HETATM   32  C   UNL     1      36.968  54.602  40.409  1.00  0.00     0.143 A 
HETATM   33  N   UNL     1      36.848  53.830  41.522  1.00  0.00    -0.260 NA
ENDBRANCH  26  27
ENDBRANCH  23  26
ENDBRANCH  22  23
ENDBRANCH   1  22
TORSDOF 11
ENDMDL
