MODEL 1
REMARK VINA RESULT:      -9.0      0.000      0.000
REMARK  3 active torsions:
REMARK  status: ('A' for Active; 'I' for Inactive)
REMARK    1  A    between atoms: C_8  and  C_9 
REMARK       I    between atoms: C_9  and  N_10 
REMARK    2  A    between atoms: N_10  and  C_11 
REMARK    3  A    between atoms: C_18  and  C_19 
REMARK       I    between atoms: C_19  and  N_20 
ROOT
HETATM    1  C   UNL     1      27.749  41.633  52.093  1.00  0.00     0.036 A 
HETATM    2  C   UNL     1      28.430  40.487  51.660  1.00  0.00     0.046 A 
HETATM    3  C   UNL     1      27.872  39.688  50.639  1.00  0.00     0.030 A 
HETATM    4  C   UNL     1      26.672  40.083  50.060  1.00  0.00     0.063 A 
HETATM    5  N   UNL     1      26.400  39.137  49.111  1.00  0.00    -0.277 N 
HETATM    6  H   UNL     1      25.604  39.108  48.484  1.00  0.00     0.189 HD
HETATM    7  N   UNL     1      27.299  38.141  49.044  1.00  0.00    -0.168 NA
HETATM    8  C   UNL     1      28.213  38.466  49.986  1.00  0.00     0.156 A 
HETATM    9  C   UNL     1      25.974  41.226  50.455  1.00  0.00     0.034 A 
HETATM   10  C   UNL     1      26.531  41.982  51.494  1.00  0.00     0.032 A 
ENDROOT
BRANCH   1  11
HETATM   11  N   UNL     1      28.200  42.453  53.152  1.00  0.00    -0.323 N 
HETATM   12  C   UNL     1      29.352  43.221  53.173  1.00  0.00     0.258 C 
HETATM   13  O   UNL     1      30.102  43.432  52.231  1.00  0.00    -0.267 OA
HETATM   14  H   UNL     1      27.622  42.444  53.981  1.00  0.00     0.169 HD
BRANCH  12  15
HETATM   15  C   UNL     1      29.670  43.842  54.488  1.00  0.00     0.056 A 
HETATM   16  C   UNL     1      28.927  44.925  54.976  1.00  0.00     0.048 A 
HETATM   17  C   UNL     1      27.758  45.506  54.231  1.00  0.00     0.071 C 
HETATM   18  N   UNL     1      29.215  45.528  56.163  1.00  0.00    -0.241 NA
HETATM   19  C   UNL     1      30.244  45.036  56.879  1.00  0.00     0.126 A 
HETATM   20 CL   UNL     1      30.547  45.853  58.354  1.00  0.00    -0.063 Cl
HETATM   21  C   UNL     1      31.019  43.959  56.490  1.00  0.00     0.045 A 
HETATM   22  C   UNL     1      30.723  43.349  55.273  1.00  0.00     0.022 A 
ENDBRANCH  12  15
ENDBRANCH   1  11
BRANCH   8  23
HETATM   23  C   UNL     1      29.366  37.596  50.259  1.00  0.00     0.270 C 
HETATM   24  N   UNL     1      29.068  36.493  51.012  1.00  0.00    -0.365 N 
HETATM   25  H   UNL     1      28.117  36.371  51.338  1.00  0.00     0.159 HD
HETATM   26  H   UNL     1      29.806  35.861  51.282  1.00  0.00     0.159 HD
HETATM   27  O   UNL     1      30.512  37.814  49.878  1.00  0.00    -0.266 OA
ENDBRANCH   8  23
TORSDOF 3
ENDMDL
MODEL 2
REMARK VINA RESULT:      -8.4      5.078      8.069
REMARK  3 active torsions:
REMARK  status: ('A' for Active; 'I' for Inactive)
REMARK    1  A    between atoms: C_8  and  C_9 
REMARK       I    between atoms: C_9  and  N_10 
REMARK    2  A    between atoms: N_10  and  C_11 
REMARK    3  A    between atoms: C_18  and  C_19 
REMARK       I    between atoms: C_19  and  N_20 
ROOT
HETATM    1  C   UNL     1      28.589  44.205  53.607  1.00  0.00     0.036 A 
HETATM    2  C   UNL     1      28.839  44.889  54.805  1.00  0.00     0.046 A 
HETATM    3  C   UNL     1      29.879  44.451  55.653  1.00  0.00     0.030 A 
HETATM    4  C   UNL     1      30.656  43.369  55.257  1.00  0.00     0.063 A 
HETATM    5  N   UNL     1      31.572  43.197  56.259  1.00  0.00    -0.277 N 
HETATM    6  H   UNL     1      32.308  42.502  56.303  1.00  0.00     0.189 HD
HETATM    7  N   UNL     1      31.439  44.048  57.288  1.00  0.00    -0.168 NA
HETATM    8  C   UNL     1      30.392  44.828  56.931  1.00  0.00     0.156 A 
HETATM    9  C   UNL     1      30.445  42.674  54.065  1.00  0.00     0.034 A 
HETATM   10  C   UNL     1      29.386  43.106  53.258  1.00  0.00     0.032 A 
ENDROOT
BRANCH   1  11
HETATM   11  N   UNL     1      27.529  44.532  52.730  1.00  0.00    -0.323 N 
HETATM   12  C   UNL     1      26.175  44.366  52.968  1.00  0.00     0.258 C 
HETATM   13  O   UNL     1      25.658  44.041  54.027  1.00  0.00    -0.267 OA
HETATM   14  H   UNL     1      27.811  44.900  51.832  1.00  0.00     0.169 HD
BRANCH  12  15
HETATM   15  C   UNL     1      25.295  44.628  51.797  1.00  0.00     0.056 A 
HETATM   16  C   UNL     1      25.068  45.934  51.340  1.00  0.00     0.048 A 
HETATM   17  C   UNL     1      25.710  47.136  51.972  1.00  0.00     0.071 C 
HETATM   18  N   UNL     1      24.245  46.202  50.288  1.00  0.00    -0.241 NA
HETATM   19  C   UNL     1      23.656  45.157  49.675  1.00  0.00     0.126 A 
HETATM   20 CL   UNL     1      22.631  45.578  48.367  1.00  0.00    -0.063 Cl
HETATM   21  C   UNL     1      23.837  43.836  50.040  1.00  0.00     0.045 A 
HETATM   22  C   UNL     1      24.675  43.568  51.119  1.00  0.00     0.022 A 
ENDBRANCH  12  15
ENDBRANCH   1  11
BRANCH   8  23
HETATM   23  C   UNL     1      29.893  45.887  57.820  1.00  0.00     0.270 C 
HETATM   24  N   UNL     1      30.863  46.478  58.583  1.00  0.00    -0.365 N 
HETATM   25  H   UNL     1      31.815  46.140  58.505  1.00  0.00     0.159 HD
HETATM   26  H   UNL     1      30.606  47.186  59.252  1.00  0.00     0.159 HD
HETATM   27  O   UNL     1      28.719  46.228  57.910  1.00  0.00    -0.266 OA
ENDBRANCH   8  23
TORSDOF 3
ENDMDL
MODEL 3
REMARK VINA RESULT:      -8.4      5.581      7.483
REMARK  3 active torsions:
REMARK  status: ('A' for Active; 'I' for Inactive)
REMARK    1  A    between atoms: C_8  and  C_9 
REMARK       I    between atoms: C_9  and  N_10 
REMARK    2  A    between atoms: N_10  and  C_11 
REMARK    3  A    between atoms: C_18  and  C_19 
REMARK       I    between atoms: C_19  and  N_20 
ROOT
HETATM    1  C   UNL     1      25.077  45.702  50.740  1.00  0.00     0.036 A 
HETATM    2  C   UNL     1      24.911  47.027  50.312  1.00  0.00     0.046 A 
HETATM    3  C   UNL     1      23.914  47.333  49.361  1.00  0.00     0.030 A 
HETATM    4  C   UNL     1      23.093  46.311  48.899  1.00  0.00     0.063 A 
HETATM    5  N   UNL     1      22.234  46.908  48.018  1.00  0.00    -0.277 N 
HETATM    6  H   UNL     1      21.487  46.466  47.495  1.00  0.00     0.189 HD
HETATM    7  N   UNL     1      22.445  48.222  47.838  1.00  0.00    -0.168 NA
HETATM    8  C   UNL     1      23.485  48.498  48.658  1.00  0.00     0.156 A 
HETATM    9  C   UNL     1      23.219  44.984  49.315  1.00  0.00     0.034 A 
HETATM   10  C   UNL     1      24.238  44.701  50.232  1.00  0.00     0.032 A 
ENDROOT
BRANCH   1  11
HETATM   11  N   UNL     1      26.089  45.296  51.638  1.00  0.00    -0.323 N 
HETATM   12  C   UNL     1      25.912  44.819  52.926  1.00  0.00     0.258 C 
HETATM   13  O   UNL     1      24.848  44.536  53.457  1.00  0.00    -0.267 OA
HETATM   14  H   UNL     1      27.035  45.395  51.296  1.00  0.00     0.169 HD
BRANCH  12  15
HETATM   15  C   UNL     1      27.167  44.638  53.707  1.00  0.00     0.056 A 
HETATM   16  C   UNL     1      27.701  45.686  54.470  1.00  0.00     0.048 A 
HETATM   17  C   UNL     1      27.039  47.031  54.575  1.00  0.00     0.071 C 
HETATM   18  N   UNL     1      28.862  45.555  55.171  1.00  0.00    -0.241 NA
HETATM   19  C   UNL     1      29.488  44.363  55.124  1.00  0.00     0.126 A 
HETATM   20 CL   UNL     1      30.943  44.281  56.025  1.00  0.00    -0.063 Cl
HETATM   21  C   UNL     1      29.026  43.268  54.418  1.00  0.00     0.045 A 
HETATM   22  C   UNL     1      27.841  43.409  53.700  1.00  0.00     0.022 A 
ENDBRANCH  12  15
ENDBRANCH   1  11
BRANCH   8  23
HETATM   23  C   UNL     1      24.057  49.850  48.732  1.00  0.00     0.270 C 
HETATM   24  N   UNL     1      25.176  50.026  47.964  1.00  0.00    -0.365 N 
HETATM   25  H   UNL     1      25.532  49.237  47.439  1.00  0.00     0.159 HD
HETATM   26  H   UNL     1      25.659  50.910  47.985  1.00  0.00     0.159 HD
HETATM   27  O   UNL     1      23.611  50.761  49.422  1.00  0.00    -0.266 OA
ENDBRANCH   8  23
TORSDOF 3
ENDMDL
MODEL 4
REMARK VINA RESULT:      -8.3      4.394      5.514
REMARK  3 active torsions:
REMARK  status: ('A' for Active; 'I' for Inactive)
REMARK    1  A    between atoms: C_8  and  C_9 
REMARK       I    between atoms: C_9  and  N_10 
REMARK    2  A    between atoms: N_10  and  C_11 
REMARK    3  A    between atoms: C_18  and  C_19 
REMARK       I    between atoms: C_19  and  N_20 
ROOT
HETATM    1  C   UNL     1      26.224  45.434  51.639  1.00  0.00     0.036 A 
HETATM    2  C   UNL     1      25.526  44.608  50.747  1.00  0.00     0.046 A 
HETATM    3  C   UNL     1      24.491  45.153  49.956  1.00  0.00     0.030 A 
HETATM    4  C   UNL     1      24.216  46.511  50.057  1.00  0.00     0.063 A 
HETATM    5  N   UNL     1      23.195  46.739  49.175  1.00  0.00    -0.277 N 
HETATM    6  H   UNL     1      22.743  47.624  48.976  1.00  0.00     0.189 HD
HETATM    7  N   UNL     1      22.758  45.643  48.534  1.00  0.00    -0.168 NA
HETATM    8  C   UNL     1      23.547  44.653  49.010  1.00  0.00     0.156 A 
HETATM    9  C   UNL     1      24.900  47.366  50.923  1.00  0.00     0.034 A 
HETATM   10  C   UNL     1      25.898  46.794  51.721  1.00  0.00     0.032 A 
ENDROOT
BRANCH   1  11
HETATM   11  N   UNL     1      27.228  44.961  52.514  1.00  0.00    -0.323 N 
HETATM   12  C   UNL     1      27.067  44.592  53.838  1.00  0.00     0.258 C 
HETATM   13  O   UNL     1      26.007  44.478  54.438  1.00  0.00    -0.267 OA
HETATM   14  H   UNL     1      28.158  44.920  52.120  1.00  0.00     0.169 HD
BRANCH  12  15
HETATM   15  C   UNL     1      28.331  44.306  54.569  1.00  0.00     0.056 A 
HETATM   16  C   UNL     1      28.913  45.264  55.411  1.00  0.00     0.048 A 
HETATM   17  C   UNL     1      28.295  46.612  55.654  1.00  0.00     0.071 C 
HETATM   18  N   UNL     1      30.084  45.037  56.070  1.00  0.00    -0.241 NA
HETATM   19  C   UNL     1      30.673  43.837  55.900  1.00  0.00     0.126 A 
HETATM   20 CL   UNL     1      32.144  43.633  56.754  1.00  0.00    -0.063 Cl
HETATM   21  C   UNL     1      30.164  42.825  55.108  1.00  0.00     0.045 A 
HETATM   22  C   UNL     1      28.969  43.064  54.434  1.00  0.00     0.022 A 
ENDBRANCH  12  15
ENDBRANCH   1  11
BRANCH   8  23
HETATM   23  C   UNL     1      23.366  43.260  48.575  1.00  0.00     0.270 C 
HETATM   24  N   UNL     1      24.304  42.829  47.678  1.00  0.00    -0.365 N 
HETATM   25  H   UNL     1      25.014  43.481  47.368  1.00  0.00     0.159 HD
HETATM   26  H   UNL     1      24.234  41.900  47.294  1.00  0.00     0.159 HD
HETATM   27  O   UNL     1      22.458  42.524  48.948  1.00  0.00    -0.266 OA
ENDBRANCH   8  23
TORSDOF 3
ENDMDL
MODEL 5
REMARK VINA RESULT:      -8.3      3.500      8.167
REMARK  3 active torsions:
REMARK  status: ('A' for Active; 'I' for Inactive)
REMARK    1  A    between atoms: C_8  and  C_9 
REMARK       I    between atoms: C_9  and  N_10 
REMARK    2  A    between atoms: N_10  and  C_11 
REMARK    3  A    between atoms: C_18  and  C_19 
REMARK       I    between atoms: C_19  and  N_20 
ROOT
HETATM    1  C   UNL     1      29.347  43.098  53.240  1.00  0.00     0.036 A 
HETATM    2  C   UNL     1      28.426  44.127  53.481  1.00  0.00     0.046 A 
HETATM    3  C   UNL     1      28.573  44.941  54.625  1.00  0.00     0.030 A 
HETATM    4  C   UNL     1      29.656  44.722  55.468  1.00  0.00     0.063 A 
HETATM    5  N   UNL     1      29.537  45.658  56.458  1.00  0.00    -0.277 N 
HETATM    6  H   UNL     1      30.160  45.801  57.245  1.00  0.00     0.189 HD
HETATM    7  N   UNL     1      28.454  46.446  56.354  1.00  0.00    -0.168 NA
HETATM    8  C   UNL     1      27.845  46.011  55.227  1.00  0.00     0.156 A 
HETATM    9  C   UNL     1      30.600  43.717  55.252  1.00  0.00     0.034 A 
HETATM   10  C   UNL     1      30.413  42.901  54.129  1.00  0.00     0.032 A 
ENDROOT
BRANCH   1  11
HETATM   11  N   UNL     1      29.241  42.196  52.158  1.00  0.00    -0.323 N 
HETATM   12  C   UNL     1      28.284  41.208  51.993  1.00  0.00     0.258 C 
HETATM   13  O   UNL     1      27.289  41.037  52.682  1.00  0.00    -0.267 OA
HETATM   14  H   UNL     1      29.961  42.279  51.454  1.00  0.00     0.169 HD
BRANCH  12  15
HETATM   15  C   UNL     1      28.523  40.287  50.848  1.00  0.00     0.056 A 
HETATM   16  C   UNL     1      28.001  40.563  49.577  1.00  0.00     0.048 A 
HETATM   17  C   UNL     1      27.204  41.802  49.280  1.00  0.00     0.071 C 
HETATM   18  N   UNL     1      28.182  39.723  48.519  1.00  0.00    -0.241 NA
HETATM   19  C   UNL     1      28.904  38.605  48.728  1.00  0.00     0.126 A 
HETATM   20 CL   UNL     1      29.079  37.598  47.352  1.00  0.00    -0.063 Cl
HETATM   21  C   UNL     1      29.474  38.260  49.939  1.00  0.00     0.045 A 
HETATM   22  C   UNL     1      29.283  39.120  51.017  1.00  0.00     0.022 A 
ENDBRANCH  12  15
ENDBRANCH   1  11
BRANCH   8  23
HETATM   23  C   UNL     1      26.579  46.602  54.770  1.00  0.00     0.270 C 
HETATM   24  N   UNL     1      26.564  47.970  54.787  1.00  0.00    -0.365 N 
HETATM   25  H   UNL     1      27.383  48.460  55.126  1.00  0.00     0.159 HD
HETATM   26  H   UNL     1      25.722  48.461  54.529  1.00  0.00     0.159 HD
HETATM   27  O   UNL     1      25.596  45.961  54.413  1.00  0.00    -0.266 OA
ENDBRANCH   8  23
TORSDOF 3
ENDMDL
MODEL 6
REMARK VINA RESULT:      -8.2      6.597      8.572
REMARK  3 active torsions:
REMARK  status: ('A' for Active; 'I' for Inactive)
REMARK    1  A    between atoms: C_8  and  C_9 
REMARK       I    between atoms: C_9  and  N_10 
REMARK    2  A    between atoms: N_10  and  C_11 
REMARK    3  A    between atoms: C_18  and  C_19 
REMARK       I    between atoms: C_19  and  N_20 
ROOT
HETATM    1  C   UNL     1      25.530  47.641  50.076  1.00  0.00     0.036 A 
HETATM    2  C   UNL     1      24.152  47.649  49.820  1.00  0.00     0.046 A 
HETATM    3  C   UNL     1      23.605  48.640  48.977  1.00  0.00     0.030 A 
HETATM    4  C   UNL     1      24.459  49.566  48.390  1.00  0.00     0.063 A 
HETATM    5  N   UNL     1      23.653  50.370  47.633  1.00  0.00    -0.277 N 
HETATM    6  H   UNL     1      23.938  51.153  47.054  1.00  0.00     0.189 HD
HETATM    7  N   UNL     1      22.346  50.073  47.701  1.00  0.00    -0.168 NA
HETATM    8  C   UNL     1      22.299  49.008  48.533  1.00  0.00     0.156 A 
HETATM    9  C   UNL     1      25.837  49.579  48.610  1.00  0.00     0.034 A 
HETATM   10  C   UNL     1      26.351  48.607  49.477  1.00  0.00     0.032 A 
ENDROOT
BRANCH   1  11
HETATM   11  N   UNL     1      26.154  46.727  50.956  1.00  0.00    -0.323 N 
HETATM   12  C   UNL     1      26.077  46.725  52.338  1.00  0.00     0.258 C 
HETATM   13  O   UNL     1      25.349  47.424  53.028  1.00  0.00    -0.267 OA
HETATM   14  H   UNL     1      26.731  46.026  50.512  1.00  0.00     0.169 HD
BRANCH  12  15
HETATM   15  C   UNL     1      26.982  45.756  53.016  1.00  0.00     0.056 A 
HETATM   16  C   UNL     1      27.735  46.131  54.137  1.00  0.00     0.048 A 
HETATM   17  C   UNL     1      27.660  47.506  54.740  1.00  0.00     0.071 C 
HETATM   18  N   UNL     1      28.591  45.272  54.758  1.00  0.00    -0.241 NA
HETATM   19  C   UNL     1      28.684  44.021  54.266  1.00  0.00     0.126 A 
HETATM   20 CL   UNL     1      29.786  43.005  55.097  1.00  0.00    -0.063 Cl
HETATM   21  C   UNL     1      27.966  43.555  53.181  1.00  0.00     0.045 A 
HETATM   22  C   UNL     1      27.096  44.439  52.547  1.00  0.00     0.022 A 
ENDBRANCH  12  15
ENDBRANCH   1  11
BRANCH   8  23
HETATM   23  C   UNL     1      21.020  48.387  48.904  1.00  0.00     0.270 C 
HETATM   24  N   UNL     1      20.419  48.954  49.995  1.00  0.00    -0.365 N 
HETATM   25  H   UNL     1      20.892  49.714  50.468  1.00  0.00     0.159 HD
HETATM   26  H   UNL     1      19.558  48.566  50.346  1.00  0.00     0.159 HD
HETATM   27  O   UNL     1      20.510  47.434  48.323  1.00  0.00    -0.266 OA
ENDBRANCH   8  23
TORSDOF 3
ENDMDL
MODEL 7
REMARK VINA RESULT:      -7.7      5.895      8.103
REMARK  3 active torsions:
REMARK  status: ('A' for Active; 'I' for Inactive)
REMARK    1  A    between atoms: C_8  and  C_9 
REMARK       I    between atoms: C_9  and  N_10 
REMARK    2  A    between atoms: N_10  and  C_11 
REMARK    3  A    between atoms: C_18  and  C_19 
REMARK       I    between atoms: C_19  and  N_20 
ROOT
HETATM    1  C   UNL     1      26.052  46.263  52.334  1.00  0.00     0.036 A 
HETATM    2  C   UNL     1      26.479  44.929  52.265  1.00  0.00     0.046 A 
HETATM    3  C   UNL     1      27.387  44.438  53.227  1.00  0.00     0.030 A 
HETATM    4  C   UNL     1      27.809  45.284  54.244  1.00  0.00     0.063 A 
HETATM    5  N   UNL     1      28.655  44.533  55.012  1.00  0.00    -0.277 N 
HETATM    6  H   UNL     1      29.145  44.824  55.851  1.00  0.00     0.189 HD
HETATM    7  N   UNL     1      28.850  43.281  54.566  1.00  0.00    -0.168 NA
HETATM    8  C   UNL     1      28.076  43.209  53.459  1.00  0.00     0.156 A 
HETATM    9  C   UNL     1      27.395  46.613  54.353  1.00  0.00     0.034 A 
HETATM   10  C   UNL     1      26.520  47.087  53.367  1.00  0.00     0.032 A 
ENDROOT
BRANCH   1  11
HETATM   11  N   UNL     1      25.196  46.857  51.378  1.00  0.00    -0.323 N 
HETATM   12  C   UNL     1      25.559  47.363  50.142  1.00  0.00     0.258 C 
HETATM   13  O   UNL     1      26.653  47.259  49.606  1.00  0.00    -0.267 OA
HETATM   14  H   UNL     1      24.228  46.934  51.656  1.00  0.00     0.169 HD
BRANCH  12  15
HETATM   15  C   UNL     1      24.481  48.094  49.421  1.00  0.00     0.056 A 
HETATM   16  C   UNL     1      24.753  49.275  48.717  1.00  0.00     0.048 A 
HETATM   17  C   UNL     1      26.135  49.858  48.617  1.00  0.00     0.071 C 
HETATM   18  N   UNL     1      23.780  49.977  48.073  1.00  0.00    -0.241 NA
HETATM   19  C   UNL     1      22.525  49.489  48.117  1.00  0.00     0.126 A 
HETATM   20 CL   UNL     1      21.358  50.432  47.290  1.00  0.00    -0.063 Cl
HETATM   21  C   UNL     1      22.166  48.323  48.768  1.00  0.00     0.045 A 
HETATM   22  C   UNL     1      23.164  47.611  49.428  1.00  0.00     0.022 A 
ENDBRANCH  12  15
ENDBRANCH   1  11
BRANCH   8  23
HETATM   23  C   UNL     1      28.031  41.989  52.640  1.00  0.00     0.270 C 
HETATM   24  N   UNL     1      27.394  40.937  53.239  1.00  0.00    -0.365 N 
HETATM   25  H   UNL     1      27.035  41.059  54.178  1.00  0.00     0.159 HD
HETATM   26  H   UNL     1      27.352  40.047  52.768  1.00  0.00     0.159 HD
HETATM   27  O   UNL     1      28.524  41.879  51.522  1.00  0.00    -0.266 OA
ENDBRANCH   8  23
TORSDOF 3
ENDMDL
MODEL 8
REMARK VINA RESULT:      -7.6     13.894     14.606
REMARK  3 active torsions:
REMARK  status: ('A' for Active; 'I' for Inactive)
REMARK    1  A    between atoms: C_8  and  C_9 
REMARK       I    between atoms: C_9  and  N_10 
REMARK    2  A    between atoms: N_10  and  C_11 
REMARK    3  A    between atoms: C_18  and  C_19 
REMARK       I    between atoms: C_19  and  N_20 
ROOT
HETATM    1  C   UNL     1      29.903  50.787  41.039  1.00  0.00     0.036 A 
HETATM    2  C   UNL     1      29.447  49.655  40.349  1.00  0.00     0.046 A 
HETATM    3  C   UNL     1      28.072  49.525  40.055  1.00  0.00     0.030 A 
HETATM    4  C   UNL     1      27.208  50.547  40.429  1.00  0.00     0.063 A 
HETATM    5  N   UNL     1      25.971  50.147  40.004  1.00  0.00    -0.277 N 
HETATM    6  H   UNL     1      25.097  50.652  40.099  1.00  0.00     0.189 HD
HETATM    7  N   UNL     1      25.946  48.940  39.417  1.00  0.00    -0.168 NA
HETATM    8  C   UNL     1      27.238  48.540  39.446  1.00  0.00     0.156 A 
HETATM    9  C   UNL     1      27.629  51.694  41.104  1.00  0.00     0.034 A 
HETATM   10  C   UNL     1      28.991  51.784  41.414  1.00  0.00     0.032 A 
ENDROOT
BRANCH   1  11
HETATM   11  N   UNL     1      31.249  50.969  41.430  1.00  0.00    -0.323 N 
HETATM   12  C   UNL     1      31.894  50.355  42.490  1.00  0.00     0.258 C 
HETATM   13  O   UNL     1      31.455  49.447  43.181  1.00  0.00    -0.267 OA
HETATM   14  H   UNL     1      31.770  51.642  40.884  1.00  0.00     0.169 HD
BRANCH  12  15
HETATM   15  C   UNL     1      33.259  50.873  42.780  1.00  0.00     0.056 A 
HETATM   16  C   UNL     1      33.490  51.741  43.855  1.00  0.00     0.048 A 
HETATM   17  C   UNL     1      32.399  52.178  44.792  1.00  0.00     0.071 C 
HETATM   18  N   UNL     1      34.724  52.251  44.125  1.00  0.00    -0.241 NA
HETATM   19  C   UNL     1      35.742  51.879  43.325  1.00  0.00     0.126 A 
HETATM   20 CL   UNL     1      37.259  52.568  43.725  1.00  0.00    -0.063 Cl
HETATM   21  C   UNL     1      35.614  51.012  42.256  1.00  0.00     0.045 A 
HETATM   22  C   UNL     1      34.350  50.497  41.982  1.00  0.00     0.022 A 
ENDBRANCH  12  15
ENDBRANCH   1  11
BRANCH   8  23
HETATM   23  C   UNL     1      27.641  47.227  38.921  1.00  0.00     0.270 C 
HETATM   24  N   UNL     1      27.240  46.170  39.692  1.00  0.00    -0.365 N 
HETATM   25  H   UNL     1      26.737  46.360  40.550  1.00  0.00     0.159 HD
HETATM   26  H   UNL     1      27.506  45.234  39.430  1.00  0.00     0.159 HD
HETATM   27  O   UNL     1      28.292  47.054  37.896  1.00  0.00    -0.266 OA
ENDBRANCH   8  23
TORSDOF 3
ENDMDL
MODEL 9
REMARK VINA RESULT:      -7.6      5.436      8.532
REMARK  3 active torsions:
REMARK  status: ('A' for Active; 'I' for Inactive)
REMARK    1  A    between atoms: C_8  and  C_9 
REMARK       I    between atoms: C_9  and  N_10 
REMARK    2  A    between atoms: N_10  and  C_11 
REMARK    3  A    between atoms: C_18  and  C_19 
REMARK       I    between atoms: C_19  and  N_20 
ROOT
HETATM    1  C   UNL     1      25.959  46.414  52.880  1.00  0.00     0.036 A 
HETATM    2  C   UNL     1      26.813  45.313  53.031  1.00  0.00     0.046 A 
HETATM    3  C   UNL     1      27.762  45.304  54.077  1.00  0.00     0.030 A 
HETATM    4  C   UNL     1      27.799  46.379  54.956  1.00  0.00     0.063 A 
HETATM    5  N   UNL     1      28.790  46.080  55.850  1.00  0.00    -0.277 N 
HETATM    6  H   UNL     1      29.091  46.637  56.641  1.00  0.00     0.189 HD
HETATM    7  N   UNL     1      29.426  44.922  55.610  1.00  0.00    -0.168 NA
HETATM    8  C   UNL     1      28.804  44.433  54.513  1.00  0.00     0.156 A 
HETATM    9  C   UNL     1      26.955  47.485  54.845  1.00  0.00     0.034 A 
HETATM   10  C   UNL     1      26.046  47.486  53.780  1.00  0.00     0.032 A 
ENDROOT
BRANCH   1  11
HETATM   11  N   UNL     1      25.025  46.537  51.826  1.00  0.00    -0.323 N 
HETATM   12  C   UNL     1      25.292  46.922  50.523  1.00  0.00     0.258 C 
HETATM   13  O   UNL     1      26.397  47.086  50.025  1.00  0.00    -0.267 OA
HETATM   14  H   UNL     1      24.065  46.344  52.076  1.00  0.00     0.169 HD
BRANCH  12  15
HETATM   15  C   UNL     1      24.090  47.139  49.674  1.00  0.00     0.056 A 
HETATM   16  C   UNL     1      23.509  46.083  48.958  1.00  0.00     0.048 A 
HETATM   17  C   UNL     1      24.034  44.677  49.021  1.00  0.00     0.071 C 
HETATM   18  N   UNL     1      22.425  46.262  48.152  1.00  0.00    -0.241 NA
HETATM   19  C   UNL     1      21.905  47.502  48.071  1.00  0.00     0.126 A 
HETATM   20 CL   UNL     1      20.550  47.645  47.032  1.00  0.00    -0.063 Cl
HETATM   21  C   UNL     1      22.396  48.598  48.756  1.00  0.00     0.045 A 
HETATM   22  C   UNL     1      23.506  48.411  49.575  1.00  0.00     0.022 A 
ENDBRANCH  12  15
ENDBRANCH   1  11
BRANCH   8  23
HETATM   23  C   UNL     1      29.232  43.169  53.896  1.00  0.00     0.270 C 
HETATM   24  N   UNL     1      29.731  43.307  52.629  1.00  0.00    -0.365 N 
HETATM   25  H   UNL     1      29.746  44.230  52.212  1.00  0.00     0.159 HD
HETATM   26  H   UNL     1      30.011  42.488  52.113  1.00  0.00     0.159 HD
HETATM   27  O   UNL     1      29.151  42.067  54.429  1.00  0.00    -0.266 OA
ENDBRANCH   8  23
TORSDOF 3
ENDMDL
MODEL 10
REMARK VINA RESULT:      -7.6      4.924      6.316
REMARK  3 active torsions:
REMARK  status: ('A' for Active; 'I' for Inactive)
REMARK    1  A    between atoms: C_8  and  C_9 
REMARK       I    between atoms: C_9  and  N_10 
REMARK    2  A    between atoms: N_10  and  C_11 
REMARK    3  A    between atoms: C_18  and  C_19 
REMARK       I    between atoms: C_19  and  N_20 
ROOT
HETATM    1  C   UNL     1      25.305  45.555  50.660  1.00  0.00     0.036 A 
HETATM    2  C   UNL     1      24.531  44.795  49.771  1.00  0.00     0.046 A 
HETATM    3  C   UNL     1      23.532  45.428  49.000  1.00  0.00     0.030 A 
HETATM    4  C   UNL     1      23.367  46.803  49.117  1.00  0.00     0.063 A 
HETATM    5  N   UNL     1      22.355  47.119  48.252  1.00  0.00    -0.277 N 
HETATM    6  H   UNL     1      21.971  48.039  48.068  1.00  0.00     0.189 HD
HETATM    7  N   UNL     1      21.823  46.068  47.608  1.00  0.00    -0.168 NA
HETATM    8  C   UNL     1      22.538  45.014  48.064  1.00  0.00     0.156 A 
HETATM    9  C   UNL     1      24.128  47.593  49.980  1.00  0.00     0.034 A 
HETATM   10  C   UNL     1      25.089  46.936  50.759  1.00  0.00     0.032 A 
ENDROOT
BRANCH   1  11
HETATM   11  N   UNL     1      26.281  44.996  51.516  1.00  0.00    -0.323 N 
HETATM   12  C   UNL     1      26.064  44.426  52.759  1.00  0.00     0.258 C 
HETATM   13  O   UNL     1      24.980  44.180  53.267  1.00  0.00    -0.267 OA
HETATM   14  H   UNL     1      27.232  45.052  51.179  1.00  0.00     0.169 HD
BRANCH  12  15
HETATM   15  C   UNL     1      27.299  44.083  53.516  1.00  0.00     0.056 A 
HETATM   16  C   UNL     1      27.897  45.009  54.382  1.00  0.00     0.048 A 
HETATM   17  C   UNL     1      27.326  46.378  54.623  1.00  0.00     0.071 C 
HETATM   18  N   UNL     1      29.042  44.730  55.065  1.00  0.00    -0.241 NA
HETATM   19  C   UNL     1      29.587  43.510  54.897  1.00  0.00     0.126 A 
HETATM   20 CL   UNL     1      31.028  43.240  55.784  1.00  0.00    -0.063 Cl
HETATM   21  C   UNL     1      29.058  42.526  54.083  1.00  0.00     0.045 A 
HETATM   22  C   UNL     1      27.890  42.818  53.384  1.00  0.00     0.022 A 
ENDBRANCH  12  15
ENDBRANCH   1  11
BRANCH   8  23
HETATM   23  C   UNL     1      22.241  43.644  47.620  1.00  0.00     0.270 C 
HETATM   24  N   UNL     1      21.991  43.533  46.279  1.00  0.00    -0.365 N 
HETATM   25  H   UNL     1      22.001  44.373  45.714  1.00  0.00     0.159 HD
HETATM   26  H   UNL     1      21.737  42.638  45.893  1.00  0.00     0.159 HD
HETATM   27  O   UNL     1      22.196  42.665  48.357  1.00  0.00    -0.266 OA
ENDBRANCH   8  23
TORSDOF 3
ENDMDL
