MODEL 1
REMARK VINA RESULT:      -8.3      0.000      0.000
REMARK  9 active torsions:
REMARK  status: ('A' for Active; 'I' for Inactive)
REMARK    1  A    between atoms: C_3  and  C_4 
REMARK    2  A    between atoms: C_4  and  C_5 
REMARK       I    between atoms: C_5  and  N_6 
REMARK    3  A    between atoms: N_6  and  C_7 
REMARK    4  A    between atoms: C_7  and  C_8 
REMARK    5  A    between atoms: C_17  and  N_18 
REMARK       I    between atoms: N_18  and  C_19 
REMARK    6  A    between atoms: C_19  and  C_20 
REMARK    7  A    between atoms: C_28  and  C_29 
REMARK    8  A    between atoms: C_29  and  O_30 
REMARK    9  A    between atoms: C_32  and  O_33 
ROOT
HETATM    1  C   UNL     1      30.921  48.062  40.962  1.00  0.00     0.016 C 
HETATM    2  C   UNL     1      30.127  49.398  41.116  1.00  0.00    -0.030 C 
HETATM    3  C   UNL     1      31.085  50.532  41.703  1.00  0.00     0.056 C 
HETATM    4  C   UNL     1      31.937  51.133  40.603  1.00  0.00     0.056 C 
HETATM    5  C   UNL     1      31.768  50.861  39.260  1.00  0.00     0.012 C 
HETATM    6  S   UNL     1      32.903  51.724  38.330  1.00  0.00    -0.055 SA
HETATM    7  C   UNL     1      33.319  52.598  39.737  1.00  0.00     0.173 C 
HETATM    8  N   UNL     1      32.838  52.151  40.870  1.00  0.00    -0.227 NA
HETATM    9  C   UNL     1      30.712  50.002  38.666  1.00  0.00     0.055 C 
HETATM   10  C   UNL     1      29.558  49.798  39.688  1.00  0.00     0.012 C 
HETATM   11  C   UNL     1      28.431  50.928  39.683  1.00  0.00     0.008 C 
HETATM   12  C   UNL     1      27.512  50.635  38.459  1.00  0.00     0.020 C 
HETATM   13  C   UNL     1      27.538  50.829  40.961  1.00  0.00     0.128 C 
HETATM   14  C   UNL     1      27.570  49.441  41.584  1.00  0.00     0.033 C 
HETATM   15  C   UNL     1      28.962  49.105  42.115  1.00  0.00     0.013 C 
ENDROOT
BRANCH   3  16
HETATM   16  C   UNL     1      31.945  50.026  42.876  1.00  0.00     0.114 C 
BRANCH  16  17
HETATM   17  C   UNL     1      32.500  51.139  43.742  1.00  0.00     0.218 C 
HETATM   18  N   UNL     1      33.856  51.307  43.644  1.00  0.00    -0.355 N 
HETATM   19  H   UNL     1      34.265  51.102  42.732  1.00  0.00     0.162 HD
HETATM   20  O   UNL     1      31.779  51.783  44.499  1.00  0.00    -0.274 OA
BRANCH  18  21
HETATM   21  C   UNL     1      34.544  52.290  44.445  1.00  0.00     0.187 C 
BRANCH  21  22
HETATM   22  C   UNL     1      35.881  52.542  43.847  1.00  0.00     0.070 A 
HETATM   23  O   UNL     1      35.963  52.517  42.483  1.00  0.00    -0.325 OA
HETATM   24  C   UNL     1      37.256  52.768  42.157  1.00  0.00     0.142 A 
HETATM   25  C   UNL     1      38.013  52.951  43.290  1.00  0.00     0.027 A 
HETATM   26  C   UNL     1      37.127  52.798  44.382  1.00  0.00     0.036 A 
ENDBRANCH  21  22
ENDBRANCH  18  21
ENDBRANCH  16  17
ENDBRANCH   3  16
BRANCH  11  27
HETATM   27  C   UNL     1      28.924  52.395  39.542  1.00  0.00     0.176 C 
BRANCH  27  28
HETATM   28  O   UNL     1      28.734  52.915  38.230  1.00  0.00    -0.400 OA
HETATM   29  H   UNL     1      28.828  53.880  38.309  1.00  0.00     0.209 HD
ENDBRANCH  27  28
ENDBRANCH  11  27
BRANCH   7  30
HETATM   30  N   UNL     1      34.037  53.727  39.463  1.00  0.00    -0.305 N 
HETATM   31  C   UNL     1      35.381  53.678  39.165  1.00  0.00     0.227 C 
HETATM   32  O   UNL     1      35.998  52.655  38.857  1.00  0.00    -0.273 OA
HETATM   33  H   UNL     1      33.614  54.588  39.772  1.00  0.00     0.171 HD
BRANCH  31  34
HETATM   34  C   UNL     1      36.092  55.052  39.297  1.00  0.00     0.078 C 
HETATM   35  C   UNL     1      36.756  55.716  38.053  1.00  0.00     0.014 C 
HETATM   36  C   UNL     1      36.282  57.074  38.599  1.00  0.00     0.002 C 
HETATM   37  C   UNL     1      35.168  56.306  39.334  1.00  0.00     0.014 C 
ENDBRANCH  31  34
ENDBRANCH   7  30
BRANCH  13  38
HETATM   38  O   UNL     1      27.951  51.776  41.947  1.00  0.00    -0.395 OA
HETATM   39  H   UNL     1      28.558  52.411  41.523  1.00  0.00     0.210 HD
ENDBRANCH  13  38
TORSDOF 9
ENDMDL
MODEL 2
REMARK VINA RESULT:      -7.8     12.180     15.076
REMARK  9 active torsions:
REMARK  status: ('A' for Active; 'I' for Inactive)
REMARK    1  A    between atoms: C_3  and  C_4 
REMARK    2  A    between atoms: C_4  and  C_5 
REMARK       I    between atoms: C_5  and  N_6 
REMARK    3  A    between atoms: N_6  and  C_7 
REMARK    4  A    between atoms: C_7  and  C_8 
REMARK    5  A    between atoms: C_17  and  N_18 
REMARK       I    between atoms: N_18  and  C_19 
REMARK    6  A    between atoms: C_19  and  C_20 
REMARK    7  A    between atoms: C_28  and  C_29 
REMARK    8  A    between atoms: C_29  and  O_30 
REMARK    9  A    between atoms: C_32  and  O_33 
ROOT
HETATM    1  C   UNL     1      16.472  47.587  48.664  1.00  0.00     0.016 C 
HETATM    2  C   UNL     1      17.714  48.532  48.730  1.00  0.00    -0.030 C 
HETATM    3  C   UNL     1      18.632  48.309  47.444  1.00  0.00     0.056 C 
HETATM    4  C   UNL     1      18.081  49.071  46.256  1.00  0.00     0.056 C 
HETATM    5  C   UNL     1      17.039  49.974  46.334  1.00  0.00     0.012 C 
HETATM    6  S   UNL     1      16.706  50.633  44.800  1.00  0.00    -0.055 SA
HETATM    7  C   UNL     1      18.141  49.904  44.229  1.00  0.00     0.173 C 
HETATM    8  N   UNL     1      18.721  49.043  45.027  1.00  0.00    -0.227 NA
HETATM    9  C   UNL     1      16.333  50.391  47.572  1.00  0.00     0.055 C 
HETATM   10  C   UNL     1      17.187  50.028  48.818  1.00  0.00     0.012 C 
HETATM   11  C   UNL     1      18.271  51.119  49.248  1.00  0.00     0.008 C 
HETATM   12  C   UNL     1      17.497  52.242  50.001  1.00  0.00     0.020 C 
HETATM   13  C   UNL     1      19.299  50.514  50.256  1.00  0.00     0.128 C 
HETATM   14  C   UNL     1      18.747  49.300  50.989  1.00  0.00     0.033 C 
HETATM   15  C   UNL     1      18.494  48.141  50.026  1.00  0.00     0.013 C 
ENDROOT
BRANCH   3  16
HETATM   16  C   UNL     1      18.836  46.818  47.118  1.00  0.00     0.114 C 
BRANCH  16  17
HETATM   17  C   UNL     1      20.230  46.314  47.436  1.00  0.00     0.218 C 
HETATM   18  N   UNL     1      21.057  47.255  47.988  1.00  0.00    -0.355 N 
HETATM   19  H   UNL     1      20.606  47.951  48.583  1.00  0.00     0.162 HD
HETATM   20  O   UNL     1      20.576  45.169  47.159  1.00  0.00    -0.274 OA
BRANCH  18  21
HETATM   21  C   UNL     1      22.433  46.947  48.298  1.00  0.00     0.187 C 
BRANCH  21  22
HETATM   22  C   UNL     1      23.202  48.216  48.365  1.00  0.00     0.070 A 
HETATM   23  O   UNL     1      22.749  49.256  47.601  1.00  0.00    -0.325 OA
HETATM   24  C   UNL     1      23.589  50.301  47.812  1.00  0.00     0.142 A 
HETATM   25  C   UNL     1      24.580  49.953  48.699  1.00  0.00     0.027 A 
HETATM   26  C   UNL     1      24.336  48.604  49.050  1.00  0.00     0.036 A 
ENDBRANCH  21  22
ENDBRANCH  18  21
ENDBRANCH  16  17
ENDBRANCH   3  16
BRANCH  11  27
HETATM   27  C   UNL     1      19.057  51.803  48.096  1.00  0.00     0.176 C 
BRANCH  27  28
HETATM   28  O   UNL     1      18.639  53.143  47.864  1.00  0.00    -0.400 OA
HETATM   29  H   UNL     1      18.432  53.199  46.915  1.00  0.00     0.209 HD
ENDBRANCH  27  28
ENDBRANCH  11  27
BRANCH   7  30
HETATM   30  N   UNL     1      18.545  50.406  43.025  1.00  0.00    -0.305 N 
HETATM   31  C   UNL     1      18.509  49.650  41.874  1.00  0.00     0.227 C 
HETATM   32  O   UNL     1      17.890  48.590  41.746  1.00  0.00    -0.273 OA
HETATM   33  H   UNL     1      19.127  51.227  43.077  1.00  0.00     0.171 HD
BRANCH  31  34
HETATM   34  C   UNL     1      19.375  50.233  40.726  1.00  0.00     0.078 C 
HETATM   35  C   UNL     1      19.621  51.769  40.627  1.00  0.00     0.014 C 
HETATM   36  C   UNL     1      21.049  51.450  40.149  1.00  0.00     0.002 C 
HETATM   37  C   UNL     1      20.920  50.111  40.896  1.00  0.00     0.014 C 
ENDBRANCH  31  34
ENDBRANCH   7  30
BRANCH  13  38
HETATM   38  O   UNL     1      20.503  50.132  49.590  1.00  0.00    -0.395 OA
HETATM   39  H   UNL     1      21.010  49.552  50.187  1.00  0.00     0.210 HD
ENDBRANCH  13  38
TORSDOF 9
ENDMDL
MODEL 3
REMARK VINA RESULT:      -7.7     12.292     15.164
REMARK  9 active torsions:
REMARK  status: ('A' for Active; 'I' for Inactive)
REMARK    1  A    between atoms: C_3  and  C_4 
REMARK    2  A    between atoms: C_4  and  C_5 
REMARK       I    between atoms: C_5  and  N_6 
REMARK    3  A    between atoms: N_6  and  C_7 
REMARK    4  A    between atoms: C_7  and  C_8 
REMARK    5  A    between atoms: C_17  and  N_18 
REMARK       I    between atoms: N_18  and  C_19 
REMARK    6  A    between atoms: C_19  and  C_20 
REMARK    7  A    between atoms: C_28  and  C_29 
REMARK    8  A    between atoms: C_29  and  O_30 
REMARK    9  A    between atoms: C_32  and  O_33 
ROOT
HETATM    1  C   UNL     1      19.168  50.085  45.516  1.00  0.00     0.016 C 
HETATM    2  C   UNL     1      18.773  49.423  46.875  1.00  0.00    -0.030 C 
HETATM    3  C   UNL     1      19.814  48.270  47.238  1.00  0.00     0.056 C 
HETATM    4  C   UNL     1      21.067  48.857  47.857  1.00  0.00     0.056 C 
HETATM    5  C   UNL     1      21.200  50.183  48.220  1.00  0.00     0.012 C 
HETATM    6  S   UNL     1      22.741  50.466  48.885  1.00  0.00    -0.055 SA
HETATM    7  C   UNL     1      22.988  48.777  48.911  1.00  0.00     0.173 C 
HETATM    8  N   UNL     1      22.110  48.045  48.270  1.00  0.00    -0.227 NA
HETATM    9  C   UNL     1      20.147  51.227  48.126  1.00  0.00     0.055 C 
HETATM   10  C   UNL     1      18.750  50.559  47.985  1.00  0.00     0.012 C 
HETATM   11  C   UNL     1      18.033  50.172  49.358  1.00  0.00     0.008 C 
HETATM   12  C   UNL     1      17.439  51.491  49.936  1.00  0.00     0.020 C 
HETATM   13  C   UNL     1      16.837  49.200  49.106  1.00  0.00     0.128 C 
HETATM   14  C   UNL     1      16.305  49.293  47.683  1.00  0.00     0.033 C 
HETATM   15  C   UNL     1      17.347  48.819  46.671  1.00  0.00     0.013 C 
ENDROOT
BRANCH   3  16
HETATM   16  C   UNL     1      20.143  47.373  46.031  1.00  0.00     0.114 C 
BRANCH  16  17
HETATM   17  C   UNL     1      20.168  45.895  46.364  1.00  0.00     0.218 C 
HETATM   18  N   UNL     1      21.383  45.434  46.796  1.00  0.00    -0.355 N 
HETATM   19  H   UNL     1      21.949  46.098  47.326  1.00  0.00     0.162 HD
HETATM   20  O   UNL     1      19.180  45.184  46.199  1.00  0.00    -0.274 OA
BRANCH  18  21
HETATM   21  C   UNL     1      21.584  44.038  47.102  1.00  0.00     0.187 C 
BRANCH  21  22
HETATM   22  C   UNL     1      22.339  43.934  48.378  1.00  0.00     0.070 A 
HETATM   23  O   UNL     1      22.327  42.719  49.006  1.00  0.00    -0.325 OA
HETATM   24  C   UNL     1      23.068  42.848  50.136  1.00  0.00     0.142 A 
HETATM   25  C   UNL     1      23.556  44.128  50.250  1.00  0.00     0.027 A 
HETATM   26  C   UNL     1      23.079  44.832  49.119  1.00  0.00     0.036 A 
ENDBRANCH  21  22
ENDBRANCH  18  21
ENDBRANCH  16  17
ENDBRANCH   3  16
BRANCH  11  27
HETATM   27  C   UNL     1      18.940  49.558  50.461  1.00  0.00     0.176 C 
BRANCH  27  28
HETATM   28  O   UNL     1      18.199  49.078  51.577  1.00  0.00    -0.400 OA
HETATM   29  H   UNL     1      17.397  48.667  51.210  1.00  0.00     0.209 HD
ENDBRANCH  27  28
ENDBRANCH  11  27
BRANCH   7  30
HETATM   30  N   UNL     1      24.041  48.409  49.699  1.00  0.00    -0.305 N 
HETATM   31  C   UNL     1      25.344  48.527  49.268  1.00  0.00     0.227 C 
HETATM   32  O   UNL     1      25.708  49.191  48.295  1.00  0.00    -0.273 OA
HETATM   33  H   UNL     1      23.810  47.794  50.463  1.00  0.00     0.171 HD
BRANCH  31  34
HETATM   34  C   UNL     1      26.348  47.692  50.108  1.00  0.00     0.078 C 
HETATM   35  C   UNL     1      25.915  47.081  51.474  1.00  0.00     0.014 C 
HETATM   36  C   UNL     1      26.773  45.851  51.130  1.00  0.00     0.002 C 
HETATM   37  C   UNL     1      26.575  46.220  49.648  1.00  0.00     0.014 C 
ENDBRANCH  31  34
ENDBRANCH   7  30
BRANCH  13  38
HETATM   38  O   UNL     1      17.216  47.847  49.359  1.00  0.00    -0.395 OA
HETATM   39  H   UNL     1      16.530  47.264  48.986  1.00  0.00     0.210 HD
ENDBRANCH  13  38
TORSDOF 9
ENDMDL
MODEL 4
REMARK VINA RESULT:      -7.5     11.205     14.681
REMARK  9 active torsions:
REMARK  status: ('A' for Active; 'I' for Inactive)
REMARK    1  A    between atoms: C_3  and  C_4 
REMARK    2  A    between atoms: C_4  and  C_5 
REMARK       I    between atoms: C_5  and  N_6 
REMARK    3  A    between atoms: N_6  and  C_7 
REMARK    4  A    between atoms: C_7  and  C_8 
REMARK    5  A    between atoms: C_17  and  N_18 
REMARK       I    between atoms: N_18  and  C_19 
REMARK    6  A    between atoms: C_19  and  C_20 
REMARK    7  A    between atoms: C_28  and  C_29 
REMARK    8  A    between atoms: C_29  and  O_30 
REMARK    9  A    between atoms: C_32  and  O_33 
ROOT
HETATM    1  C   UNL     1      18.553  48.723  51.040  1.00  0.00     0.016 C 
HETATM    2  C   UNL     1      18.412  49.307  49.598  1.00  0.00    -0.030 C 
HETATM    3  C   UNL     1      19.809  49.205  48.834  1.00  0.00     0.056 C 
HETATM    4  C   UNL     1      20.013  47.809  48.278  1.00  0.00     0.056 C 
HETATM    5  C   UNL     1      19.039  46.829  48.278  1.00  0.00     0.012 C 
HETATM    6  S   UNL     1      19.633  45.401  47.566  1.00  0.00    -0.055 SA
HETATM    7  C   UNL     1      21.004  46.282  47.057  1.00  0.00     0.173 C 
HETATM    8  N   UNL     1      21.150  47.484  47.558  1.00  0.00    -0.227 NA
HETATM    9  C   UNL     1      17.641  46.983  48.756  1.00  0.00     0.055 C 
HETATM   10  C   UNL     1      17.275  48.491  48.848  1.00  0.00     0.012 C 
HETATM   11  C   UNL     1      16.728  49.146  47.499  1.00  0.00     0.008 C 
HETATM   12  C   UNL     1      15.239  48.706  47.362  1.00  0.00     0.020 C 
HETATM   13  C   UNL     1      16.738  50.705  47.593  1.00  0.00     0.128 C 
HETATM   14  C   UNL     1      16.719  51.198  49.033  1.00  0.00     0.033 C 
HETATM   15  C   UNL     1      17.999  50.804  49.769  1.00  0.00     0.013 C 
ENDROOT
BRANCH   3  16
HETATM   16  C   UNL     1      20.994  49.644  49.713  1.00  0.00     0.114 C 
BRANCH  16  17
HETATM   17  C   UNL     1      22.075  50.381  48.946  1.00  0.00     0.218 C 
HETATM   18  N   UNL     1      23.195  49.636  48.694  1.00  0.00    -0.355 N 
HETATM   19  H   UNL     1      23.043  48.636  48.551  1.00  0.00     0.162 HD
HETATM   20  O   UNL     1      21.949  51.563  48.639  1.00  0.00    -0.274 OA
BRANCH  18  21
HETATM   21  C   UNL     1      24.335  50.209  48.021  1.00  0.00     0.187 C 
BRANCH  21  22
HETATM   22  C   UNL     1      25.573  49.617  48.589  1.00  0.00     0.070 A 
HETATM   23  O   UNL     1      25.416  48.583  49.471  1.00  0.00    -0.325 OA
HETATM   24  C   UNL     1      26.659  48.200  49.860  1.00  0.00     0.142 A 
HETATM   25  C   UNL     1      27.617  48.971  49.247  1.00  0.00     0.027 A 
HETATM   26  C   UNL     1      26.917  49.891  48.431  1.00  0.00     0.036 A 
ENDBRANCH  21  22
ENDBRANCH  18  21
ENDBRANCH  16  17
ENDBRANCH   3  16
BRANCH  11  27
HETATM   27  C   UNL     1      17.447  48.729  46.186  1.00  0.00     0.176 C 
BRANCH  27  28
HETATM   28  O   UNL     1      16.766  49.176  45.019  1.00  0.00    -0.400 OA
HETATM   29  H   UNL     1      17.381  49.778  44.565  1.00  0.00     0.209 HD
ENDBRANCH  27  28
ENDBRANCH  11  27
BRANCH   7  30
HETATM   30  N   UNL     1      21.726  45.628  46.099  1.00  0.00    -0.305 N 
HETATM   31  C   UNL     1      21.323  45.598  44.783  1.00  0.00     0.227 C 
HETATM   32  O   UNL     1      20.468  46.337  44.289  1.00  0.00    -0.273 OA
HETATM   33  H   UNL     1      22.382  44.948  46.448  1.00  0.00     0.171 HD
BRANCH  31  34
HETATM   34  C   UNL     1      22.022  44.489  43.950  1.00  0.00     0.078 C 
HETATM   35  C   UNL     1      23.082  44.866  42.872  1.00  0.00     0.014 C 
HETATM   36  C   UNL     1      23.862  43.605  43.283  1.00  0.00     0.002 C 
HETATM   37  C   UNL     1      23.179  43.721  44.657  1.00  0.00     0.014 C 
ENDBRANCH  31  34
ENDBRANCH   7  30
BRANCH  13  38
HETATM   38  O   UNL     1      17.889  51.248  46.945  1.00  0.00    -0.395 OA
HETATM   39  H   UNL     1      17.940  50.869  46.048  1.00  0.00     0.210 HD
ENDBRANCH  13  38
TORSDOF 9
ENDMDL
MODEL 5
REMARK VINA RESULT:      -7.4      5.726      9.962
REMARK  9 active torsions:
REMARK  status: ('A' for Active; 'I' for Inactive)
REMARK    1  A    between atoms: C_3  and  C_4 
REMARK    2  A    between atoms: C_4  and  C_5 
REMARK       I    between atoms: C_5  and  N_6 
REMARK    3  A    between atoms: N_6  and  C_7 
REMARK    4  A    between atoms: C_7  and  C_8 
REMARK    5  A    between atoms: C_17  and  N_18 
REMARK       I    between atoms: N_18  and  C_19 
REMARK    6  A    between atoms: C_19  and  C_20 
REMARK    7  A    between atoms: C_28  and  C_29 
REMARK    8  A    between atoms: C_29  and  O_30 
REMARK    9  A    between atoms: C_32  and  O_33 
ROOT
HETATM    1  C   UNL     1      26.426  47.246  36.492  1.00  0.00     0.016 C 
HETATM    2  C   UNL     1      26.610  47.222  38.043  1.00  0.00    -0.030 C 
HETATM    3  C   UNL     1      26.028  48.566  38.678  1.00  0.00     0.056 C 
HETATM    4  C   UNL     1      24.522  48.478  38.828  1.00  0.00     0.056 C 
HETATM    5  C   UNL     1      23.792  47.325  38.615  1.00  0.00     0.012 C 
HETATM    6  S   UNL     1      22.136  47.611  38.886  1.00  0.00    -0.055 SA
HETATM    7  C   UNL     1      22.555  49.132  39.540  1.00  0.00     0.173 C 
HETATM    8  N   UNL     1      23.794  49.522  39.373  1.00  0.00    -0.227 NA
HETATM    9  C   UNL     1      24.343  45.989  38.270  1.00  0.00     0.055 C 
HETATM   10  C   UNL     1      25.860  45.939  38.605  1.00  0.00     0.012 C 
HETATM   11  C   UNL     1      26.217  45.532  40.107  1.00  0.00     0.008 C 
HETATM   12  C   UNL     1      26.059  43.985  40.198  1.00  0.00     0.020 C 
HETATM   13  C   UNL     1      27.708  45.861  40.434  1.00  0.00     0.128 C 
HETATM   14  C   UNL     1      28.570  45.949  39.183  1.00  0.00     0.033 C 
HETATM   15  C   UNL     1      28.147  47.124  38.302  1.00  0.00     0.013 C 
ENDROOT
BRANCH   3  16
HETATM   16  C   UNL     1      26.448  49.819  37.889  1.00  0.00     0.114 C 
BRANCH  16  17
HETATM   17  C   UNL     1      27.211  50.830  38.721  1.00  0.00     0.218 C 
HETATM   18  N   UNL     1      26.912  50.803  40.057  1.00  0.00    -0.355 N 
HETATM   19  H   UNL     1      26.669  49.888  40.440  1.00  0.00     0.162 HD
HETATM   20  O   UNL     1      27.987  51.630  38.204  1.00  0.00    -0.274 OA
BRANCH  18  21
HETATM   21  C   UNL     1      27.514  51.739  40.974  1.00  0.00     0.187 C 
BRANCH  21  22
HETATM   22  C   UNL     1      28.813  51.187  41.436  1.00  0.00     0.070 A 
HETATM   23  O   UNL     1      28.866  49.840  41.666  1.00  0.00    -0.325 OA
HETATM   24  C   UNL     1      30.129  49.555  42.074  1.00  0.00     0.142 A 
HETATM   25  C   UNL     1      30.893  50.697  42.115  1.00  0.00     0.027 A 
HETATM   26  C   UNL     1      30.042  51.752  41.710  1.00  0.00     0.036 A 
ENDBRANCH  21  22
ENDBRANCH  18  21
ENDBRANCH  16  17
ENDBRANCH   3  16
BRANCH  11  27
HETATM   27  C   UNL     1      25.323  46.147  41.220  1.00  0.00     0.176 C 
BRANCH  27  28
HETATM   28  O   UNL     1      25.532  45.540  42.491  1.00  0.00    -0.400 OA
HETATM   29  H   UNL     1      26.003  44.707  42.315  1.00  0.00     0.209 HD
ENDBRANCH  27  28
ENDBRANCH  11  27
BRANCH   7  30
HETATM   30  N   UNL     1      21.535  49.701  40.248  1.00  0.00    -0.305 N 
HETATM   31  C   UNL     1      20.846  50.796  39.775  1.00  0.00     0.227 C 
HETATM   32  O   UNL     1      20.878  51.200  38.610  1.00  0.00    -0.273 OA
HETATM   33  H   UNL     1      21.514  49.470  41.229  1.00  0.00     0.171 HD
BRANCH  31  34
HETATM   34  C   UNL     1      20.034  51.535  40.873  1.00  0.00     0.078 C 
HETATM   35  C   UNL     1      18.597  52.058  40.571  1.00  0.00     0.014 C 
HETATM   36  C   UNL     1      18.216  51.667  42.009  1.00  0.00     0.002 C 
HETATM   37  C   UNL     1      19.358  50.637  41.953  1.00  0.00     0.014 C 
ENDBRANCH  31  34
ENDBRANCH   7  30
BRANCH  13  38
HETATM   38  O   UNL     1      27.814  47.096  41.143  1.00  0.00    -0.395 OA
HETATM   39  H   UNL     1      26.916  47.385  41.388  1.00  0.00     0.210 HD
ENDBRANCH  13  38
TORSDOF 9
ENDMDL
MODEL 6
REMARK VINA RESULT:      -7.4      4.136      9.704
REMARK  9 active torsions:
REMARK  status: ('A' for Active; 'I' for Inactive)
REMARK    1  A    between atoms: C_3  and  C_4 
REMARK    2  A    between atoms: C_4  and  C_5 
REMARK       I    between atoms: C_5  and  N_6 
REMARK    3  A    between atoms: N_6  and  C_7 
REMARK    4  A    between atoms: C_7  and  C_8 
REMARK    5  A    between atoms: C_17  and  N_18 
REMARK       I    between atoms: N_18  and  C_19 
REMARK    6  A    between atoms: C_19  and  C_20 
REMARK    7  A    between atoms: C_28  and  C_29 
REMARK    8  A    between atoms: C_29  and  O_30 
REMARK    9  A    between atoms: C_32  and  O_33 
ROOT
HETATM    1  C   UNL     1      29.729  52.000  37.924  1.00  0.00     0.016 C 
HETATM    2  C   UNL     1      29.911  51.825  39.466  1.00  0.00    -0.030 C 
HETATM    3  C   UNL     1      28.683  51.000  40.065  1.00  0.00     0.056 C 
HETATM    4  C   UNL     1      28.882  49.513  39.846  1.00  0.00     0.056 C 
HETATM    5  C   UNL     1      30.049  48.953  39.362  1.00  0.00     0.012 C 
HETATM    6  S   UNL     1      29.898  47.261  39.259  1.00  0.00    -0.055 SA
HETATM    7  C   UNL     1      28.435  47.386  40.130  1.00  0.00     0.173 C 
HETATM    8  N   UNL     1      27.951  48.592  40.297  1.00  0.00    -0.227 NA
HETATM    9  C   UNL     1      31.301  49.682  39.037  1.00  0.00     0.055 C 
HETATM   10  C   UNL     1      31.291  51.081  39.715  1.00  0.00     0.012 C 
HETATM   11  C   UNL     1      31.837  51.119  41.216  1.00  0.00     0.008 C 
HETATM   12  C   UNL     1      33.392  51.079  41.124  1.00  0.00     0.020 C 
HETATM   13  C   UNL     1      31.451  52.462  41.914  1.00  0.00     0.128 C 
HETATM   14  C   UNL     1      31.174  53.576  40.915  1.00  0.00     0.033 C 
HETATM   15  C   UNL     1      29.939  53.265  40.070  1.00  0.00     0.013 C 
ENDROOT
BRANCH   3  16
HETATM   16  C   UNL     1      27.327  51.479  39.515  1.00  0.00     0.114 C 
BRANCH  16  17
HETATM   17  C   UNL     1      26.631  50.453  38.644  1.00  0.00     0.218 C 
HETATM   18  N   UNL     1      25.536  49.869  39.224  1.00  0.00    -0.355 N 
HETATM   19  H   UNL     1      25.002  50.461  39.862  1.00  0.00     0.162 HD
HETATM   20  O   UNL     1      27.067  50.151  37.536  1.00  0.00    -0.274 OA
BRANCH  18  21
HETATM   21  C   UNL     1      24.796  48.834  38.545  1.00  0.00     0.187 C 
BRANCH  21  22
HETATM   22  C   UNL     1      23.820  48.242  39.496  1.00  0.00     0.070 A 
HETATM   23  O   UNL     1      22.599  48.850  39.587  1.00  0.00    -0.325 OA
HETATM   24  C   UNL     1      21.876  48.155  40.501  1.00  0.00     0.142 A 
HETATM   25  C   UNL     1      22.611  47.109  41.005  1.00  0.00     0.027 A 
HETATM   26  C   UNL     1      23.870  47.169  40.362  1.00  0.00     0.036 A 
ENDBRANCH  21  22
ENDBRANCH  18  21
ENDBRANCH  16  17
ENDBRANCH   3  16
BRANCH  11  27
HETATM   27  C   UNL     1      31.405  49.945  42.137  1.00  0.00     0.176 C 
BRANCH  27  28
HETATM   28  O   UNL     1      31.872  50.093  43.473  1.00  0.00    -0.400 OA
HETATM   29  H   UNL     1      32.195  49.216  43.743  1.00  0.00     0.209 HD
ENDBRANCH  27  28
ENDBRANCH  11  27
BRANCH   7  30
HETATM   30  N   UNL     1      28.011  46.186  40.627  1.00  0.00    -0.305 N 
HETATM   31  C   UNL     1      27.073  45.420  39.971  1.00  0.00     0.227 C 
HETATM   32  O   UNL     1      26.727  45.580  38.797  1.00  0.00    -0.273 OA
HETATM   33  H   UNL     1      28.194  46.040  41.606  1.00  0.00     0.171 HD
BRANCH  31  34
HETATM   34  C   UNL     1      26.429  44.331  40.870  1.00  0.00     0.078 C 
HETATM   35  C   UNL     1      27.302  43.187  41.469  1.00  0.00     0.014 C 
HETATM   36  C   UNL     1      26.443  43.278  42.742  1.00  0.00     0.002 C 
HETATM   37  C   UNL     1      26.144  44.735  42.348  1.00  0.00     0.014 C 
ENDBRANCH  31  34
ENDBRANCH   7  30
BRANCH  13  38
HETATM   38  O   UNL     1      30.297  52.295  42.738  1.00  0.00    -0.395 OA
HETATM   39  H   UNL     1      30.547  52.504  43.657  1.00  0.00     0.210 HD
ENDBRANCH  13  38
TORSDOF 9
ENDMDL
MODEL 7
REMARK VINA RESULT:      -7.3      3.744      8.973
REMARK  9 active torsions:
REMARK  status: ('A' for Active; 'I' for Inactive)
REMARK    1  A    between atoms: C_3  and  C_4 
REMARK    2  A    between atoms: C_4  and  C_5 
REMARK       I    between atoms: C_5  and  N_6 
REMARK    3  A    between atoms: N_6  and  C_7 
REMARK    4  A    between atoms: C_7  and  C_8 
REMARK    5  A    between atoms: C_17  and  N_18 
REMARK       I    between atoms: N_18  and  C_19 
REMARK    6  A    between atoms: C_19  and  C_20 
REMARK    7  A    between atoms: C_28  and  C_29 
REMARK    8  A    between atoms: C_29  and  O_30 
REMARK    9  A    between atoms: C_32  and  O_33 
ROOT
HETATM    1  C   UNL     1      39.677  53.881  41.982  1.00  0.00     0.016 C 
HETATM    2  C   UNL     1      39.553  52.823  43.125  1.00  0.00    -0.030 C 
HETATM    3  C   UNL     1      38.074  52.846  43.724  1.00  0.00     0.056 C 
HETATM    4  C   UNL     1      37.129  52.049  42.847  1.00  0.00     0.056 C 
HETATM    5  C   UNL     1      37.539  51.265  41.785  1.00  0.00     0.012 C 
HETATM    6  S   UNL     1      36.200  50.520  41.045  1.00  0.00    -0.055 SA
HETATM    7  C   UNL     1      35.241  51.050  42.354  1.00  0.00     0.173 C 
HETATM    8  N   UNL     1      35.791  51.910  43.175  1.00  0.00    -0.227 NA
HETATM    9  C   UNL     1      38.943  51.025  41.364  1.00  0.00     0.055 C 
HETATM   10  C   UNL     1      39.914  51.401  42.518  1.00  0.00     0.012 C 
HETATM   11  C   UNL     1      40.194  50.244  43.583  1.00  0.00     0.008 C 
HETATM   12  C   UNL     1      41.217  49.271  42.924  1.00  0.00     0.020 C 
HETATM   13  C   UNL     1      40.870  50.822  44.867  1.00  0.00     0.128 C 
HETATM   14  C   UNL     1      41.580  52.142  44.604  1.00  0.00     0.033 C 
HETATM   15  C   UNL     1      40.586  53.238  44.221  1.00  0.00     0.013 C 
ENDROOT
BRANCH   3  16
HETATM   16  C   UNL     1      37.557  54.277  43.962  1.00  0.00     0.114 C 
BRANCH  16  17
HETATM   17  C   UNL     1      37.885  54.817  45.339  1.00  0.00     0.218 C 
HETATM   18  N   UNL     1      38.313  53.870  46.230  1.00  0.00    -0.355 N 
HETATM   19  H   UNL     1      38.845  53.094  45.834  1.00  0.00     0.162 HD
HETATM   20  O   UNL     1      37.720  56.002  45.618  1.00  0.00    -0.274 OA
BRANCH  18  21
HETATM   21  C   UNL     1      38.614  54.216  47.598  1.00  0.00     0.187 C 
BRANCH  21  22
HETATM   22  C   UNL     1      40.080  54.417  47.728  1.00  0.00     0.070 A 
HETATM   23  O   UNL     1      40.630  55.441  47.009  1.00  0.00    -0.325 OA
HETATM   24  C   UNL     1      41.961  55.443  47.273  1.00  0.00     0.142 A 
HETATM   25  C   UNL     1      42.281  54.435  48.150  1.00  0.00     0.027 A 
HETATM   26  C   UNL     1      41.068  53.767  48.439  1.00  0.00     0.036 A 
ENDBRANCH  21  22
ENDBRANCH  18  21
ENDBRANCH  16  17
ENDBRANCH   3  16
BRANCH  11  27
HETATM   27  C   UNL     1      38.968  49.392  44.014  1.00  0.00     0.176 C 
BRANCH  27  28
HETATM   28  O   UNL     1      39.298  48.409  44.990  1.00  0.00    -0.400 OA
HETATM   29  H   UNL     1      38.696  47.661  44.830  1.00  0.00     0.209 HD
ENDBRANCH  27  28
ENDBRANCH  11  27
BRANCH   7  30
HETATM   30  N   UNL     1      34.035  50.412  42.418  1.00  0.00    -0.305 N 
HETATM   31  C   UNL     1      32.846  51.095  42.282  1.00  0.00     0.227 C 
HETATM   32  O   UNL     1      32.736  52.241  41.841  1.00  0.00    -0.273 OA
HETATM   33  H   UNL     1      34.054  49.503  42.850  1.00  0.00     0.171 HD
BRANCH  31  34
HETATM   34  C   UNL     1      31.615  50.295  42.790  1.00  0.00     0.078 C 
HETATM   35  C   UNL     1      30.316  50.223  41.933  1.00  0.00     0.014 C 
HETATM   36  C   UNL     1      30.156  48.767  42.404  1.00  0.00     0.002 C 
HETATM   37  C   UNL     1      31.680  48.747  42.619  1.00  0.00     0.014 C 
ENDBRANCH  31  34
ENDBRANCH   7  30
BRANCH  13  38
HETATM   38  O   UNL     1      39.908  51.024  45.903  1.00  0.00    -0.395 OA
HETATM   39  H   UNL     1      39.029  50.791  45.552  1.00  0.00     0.210 HD
ENDBRANCH  13  38
TORSDOF 9
ENDMDL
MODEL 8
REMARK VINA RESULT:      -7.1     15.818     18.544
REMARK  9 active torsions:
REMARK  status: ('A' for Active; 'I' for Inactive)
REMARK    1  A    between atoms: C_3  and  C_4 
REMARK    2  A    between atoms: C_4  and  C_5 
REMARK       I    between atoms: C_5  and  N_6 
REMARK    3  A    between atoms: N_6  and  C_7 
REMARK    4  A    between atoms: C_7  and  C_8 
REMARK    5  A    between atoms: C_17  and  N_18 
REMARK       I    between atoms: N_18  and  C_19 
REMARK    6  A    between atoms: C_19  and  C_20 
REMARK    7  A    between atoms: C_28  and  C_29 
REMARK    8  A    between atoms: C_29  and  O_30 
REMARK    9  A    between atoms: C_32  and  O_33 
ROOT
HETATM    1  C   UNL     1      20.151  51.713  48.552  1.00  0.00     0.016 C 
HETATM    2  C   UNL     1      19.024  50.632  48.582  1.00  0.00    -0.030 C 
HETATM    3  C   UNL     1      17.596  51.341  48.645  1.00  0.00     0.056 C 
HETATM    4  C   UNL     1      17.162  51.792  47.265  1.00  0.00     0.056 C 
HETATM    5  C   UNL     1      17.831  51.465  46.101  1.00  0.00     0.012 C 
HETATM    6  S   UNL     1      17.045  52.146  44.752  1.00  0.00    -0.055 SA
HETATM    7  C   UNL     1      15.743  52.556  45.778  1.00  0.00     0.173 C 
HETATM    8  N   UNL     1      15.944  52.421  47.065  1.00  0.00    -0.227 NA
HETATM    9  C   UNL     1      19.025  50.589  45.993  1.00  0.00     0.055 C 
HETATM   10  C   UNL     1      19.172  49.732  47.282  1.00  0.00     0.012 C 
HETATM   11  C   UNL     1      18.353  48.362  47.291  1.00  0.00     0.008 C 
HETATM   12  C   UNL     1      19.165  47.353  46.425  1.00  0.00     0.020 C 
HETATM   13  C   UNL     1      18.275  47.770  48.734  1.00  0.00     0.128 C 
HETATM   14  C   UNL     1      19.392  48.282  49.632  1.00  0.00     0.033 C 
HETATM   15  C   UNL     1      19.264  49.785  49.873  1.00  0.00     0.013 C 
ENDROOT
BRANCH   3  16
HETATM   16  C   UNL     1      17.557  52.499  49.659  1.00  0.00     0.114 C 
BRANCH  16  17
HETATM   17  C   UNL     1      16.168  53.060  49.884  1.00  0.00     0.218 C 
HETATM   18  N   UNL     1      16.033  54.382  49.553  1.00  0.00    -0.355 N 
HETATM   19  H   UNL     1      16.608  54.708  48.775  1.00  0.00     0.162 HD
HETATM   20  O   UNL     1      15.272  52.378  50.373  1.00  0.00    -0.274 OA
BRANCH  18  21
HETATM   21  C   UNL     1      14.786  55.079  49.759  1.00  0.00     0.187 C 
BRANCH  21  22
HETATM   22  C   UNL     1      14.983  56.110  50.810  1.00  0.00     0.070 A 
HETATM   23  O   UNL     1      14.996  55.678  52.107  1.00  0.00    -0.325 OA
HETATM   24  C   UNL     1      15.187  56.771  52.889  1.00  0.00     0.142 A 
HETATM   25  C   UNL     1      15.294  57.904  52.118  1.00  0.00     0.027 A 
HETATM   26  C   UNL     1      15.155  57.479  50.776  1.00  0.00     0.036 A 
ENDBRANCH  21  22
ENDBRANCH  18  21
ENDBRANCH  16  17
ENDBRANCH   3  16
BRANCH  11  27
HETATM   27  C   UNL     1      16.916  48.412  46.703  1.00  0.00     0.176 C 
BRANCH  27  28
HETATM   28  O   UNL     1      16.245  47.159  46.780  1.00  0.00    -0.400 OA
HETATM   29  H   UNL     1      15.326  47.331  46.512  1.00  0.00     0.209 HD
ENDBRANCH  27  28
ENDBRANCH  11  27
BRANCH   7  30
HETATM   30  N   UNL     1      14.611  52.886  45.089  1.00  0.00    -0.305 N 
HETATM   31  C   UNL     1      13.742  51.926  44.621  1.00  0.00     0.227 C 
HETATM   32  O   UNL     1      13.733  50.746  44.980  1.00  0.00    -0.273 OA
HETATM   33  H   UNL     1      14.603  53.815  44.700  1.00  0.00     0.171 HD
BRANCH  31  34
HETATM   34  C   UNL     1      12.768  52.455  43.533  1.00  0.00     0.078 C 
HETATM   35  C   UNL     1      12.816  53.949  43.093  1.00  0.00     0.014 C 
HETATM   36  C   UNL     1      12.517  53.476  41.660  1.00  0.00     0.002 C 
HETATM   37  C   UNL     1      13.139  52.125  42.055  1.00  0.00     0.014 C 
ENDBRANCH  31  34
ENDBRANCH   7  30
BRANCH  13  38
HETATM   38  O   UNL     1      17.023  48.084  49.347  1.00  0.00    -0.395 OA
HETATM   39  H   UNL     1      16.447  48.486  48.672  1.00  0.00     0.210 HD
ENDBRANCH  13  38
TORSDOF 9
ENDMDL
MODEL 9
REMARK VINA RESULT:      -7.0     13.248     15.453
REMARK  9 active torsions:
REMARK  status: ('A' for Active; 'I' for Inactive)
REMARK    1  A    between atoms: C_3  and  C_4 
REMARK    2  A    between atoms: C_4  and  C_5 
REMARK       I    between atoms: C_5  and  N_6 
REMARK    3  A    between atoms: N_6  and  C_7 
REMARK    4  A    between atoms: C_7  and  C_8 
REMARK    5  A    between atoms: C_17  and  N_18 
REMARK       I    between atoms: N_18  and  C_19 
REMARK    6  A    between atoms: C_19  and  C_20 
REMARK    7  A    between atoms: C_28  and  C_29 
REMARK    8  A    between atoms: C_29  and  O_30 
REMARK    9  A    between atoms: C_32  and  O_33 
ROOT
HETATM    1  C   UNL     1      18.427  50.035  50.159  1.00  0.00     0.016 C 
HETATM    2  C   UNL     1      18.679  49.984  48.618  1.00  0.00    -0.030 C 
HETATM    3  C   UNL     1      20.107  49.333  48.325  1.00  0.00     0.056 C 
HETATM    4  C   UNL     1      20.028  47.821  48.390  1.00  0.00     0.056 C 
HETATM    5  C   UNL     1      18.846  47.114  48.502  1.00  0.00     0.012 C 
HETATM    6  S   UNL     1      19.156  45.440  48.538  1.00  0.00    -0.055 SA
HETATM    7  C   UNL     1      20.773  45.779  48.107  1.00  0.00     0.173 C 
HETATM    8  N   UNL     1      21.143  47.034  48.152  1.00  0.00    -0.227 NA
HETATM    9  C   UNL     1      17.478  47.691  48.519  1.00  0.00     0.055 C 
HETATM   10  C   UNL     1      17.507  49.140  47.956  1.00  0.00     0.012 C 
HETATM   11  C   UNL     1      17.377  49.262  46.370  1.00  0.00     0.008 C 
HETATM   12  C   UNL     1      15.868  49.070  46.032  1.00  0.00     0.020 C 
HETATM   13  C   UNL     1      17.777  50.692  45.887  1.00  0.00     0.128 C 
HETATM   14  C   UNL     1      17.653  51.733  46.991  1.00  0.00     0.033 C 
HETATM   15  C   UNL     1      18.647  51.464  48.119  1.00  0.00     0.013 C 
ENDROOT
BRANCH   3  16
HETATM   16  C   UNL     1      21.206  49.885  49.251  1.00  0.00     0.114 C 
BRANCH  16  17
HETATM   17  C   UNL     1      22.602  49.441  48.864  1.00  0.00     0.218 C 
HETATM   18  N   UNL     1      23.180  48.564  49.742  1.00  0.00    -0.355 N 
HETATM   19  H   UNL     1      22.542  47.923  50.216  1.00  0.00     0.162 HD
HETATM   20  O   UNL     1      23.164  49.890  47.868  1.00  0.00    -0.274 OA
BRANCH  18  21
HETATM   21  C   UNL     1      24.528  48.089  49.542  1.00  0.00     0.187 C 
BRANCH  21  22
HETATM   22  C   UNL     1      24.847  47.098  50.602  1.00  0.00     0.070 A 
HETATM   23  O   UNL     1      25.383  47.584  51.762  1.00  0.00    -0.325 OA
HETATM   24  C   UNL     1      25.594  46.521  52.579  1.00  0.00     0.142 A 
HETATM   25  C   UNL     1      25.204  45.355  51.965  1.00  0.00     0.027 A 
HETATM   26  C   UNL     1      24.728  45.726  50.685  1.00  0.00     0.036 A 
ENDBRANCH  21  22
ENDBRANCH  18  21
ENDBRANCH  16  17
ENDBRANCH   3  16
BRANCH  11  27
HETATM   27  C   UNL     1      18.167  48.221  45.530  1.00  0.00     0.176 C 
BRANCH  27  28
HETATM   28  O   UNL     1      17.339  47.181  45.022  1.00  0.00    -0.400 OA
HETATM   29  H   UNL     1      17.887  46.690  44.384  1.00  0.00     0.209 HD
ENDBRANCH  27  28
ENDBRANCH  11  27
BRANCH   7  30
HETATM   30  N   UNL     1      21.446  44.673  47.671  1.00  0.00    -0.305 N 
HETATM   31  C   UNL     1      22.141  43.858  48.538  1.00  0.00     0.227 C 
HETATM   32  O   UNL     1      22.021  43.869  49.766  1.00  0.00    -0.273 OA
HETATM   33  H   UNL     1      21.646  44.655  46.684  1.00  0.00     0.171 HD
BRANCH  31  34
HETATM   34  C   UNL     1      23.156  42.924  47.826  1.00  0.00     0.078 C 
HETATM   35  C   UNL     1      24.469  42.494  48.547  1.00  0.00     0.014 C 
HETATM   36  C   UNL     1      24.312  41.115  47.884  1.00  0.00     0.002 C 
HETATM   37  C   UNL     1      22.802  41.406  47.807  1.00  0.00     0.014 C 
ENDBRANCH  31  34
ENDBRANCH   7  30
BRANCH  13  38
HETATM   38  O   UNL     1      19.119  50.709  45.399  1.00  0.00    -0.395 OA
HETATM   39  H   UNL     1      19.704  50.382  46.107  1.00  0.00     0.210 HD
ENDBRANCH  13  38
TORSDOF 9
ENDMDL
MODEL 10
REMARK VINA RESULT:      -6.9     12.453     14.940
REMARK  9 active torsions:
REMARK  status: ('A' for Active; 'I' for Inactive)
REMARK    1  A    between atoms: C_3  and  C_4 
REMARK    2  A    between atoms: C_4  and  C_5 
REMARK       I    between atoms: C_5  and  N_6 
REMARK    3  A    between atoms: N_6  and  C_7 
REMARK    4  A    between atoms: C_7  and  C_8 
REMARK    5  A    between atoms: C_17  and  N_18 
REMARK       I    between atoms: N_18  and  C_19 
REMARK    6  A    between atoms: C_19  and  C_20 
REMARK    7  A    between atoms: C_28  and  C_29 
REMARK    8  A    between atoms: C_29  and  O_30 
REMARK    9  A    between atoms: C_32  and  O_33 
ROOT
HETATM    1  C   UNL     1      17.981  48.267  50.149  1.00  0.00     0.016 C 
HETATM    2  C   UNL     1      18.459  49.464  49.267  1.00  0.00    -0.030 C 
HETATM    3  C   UNL     1      19.525  48.953  48.194  1.00  0.00     0.056 C 
HETATM    4  C   UNL     1      18.827  48.322  47.006  1.00  0.00     0.056 C 
HETATM    5  C   UNL     1      17.460  48.357  46.807  1.00  0.00     0.012 C 
HETATM    6  S   UNL     1      17.049  47.550  45.365  1.00  0.00    -0.055 SA
HETATM    7  C   UNL     1      18.712  47.485  44.983  1.00  0.00     0.173 C 
HETATM    8  N   UNL     1      19.547  47.819  45.935  1.00  0.00    -0.227 NA
HETATM    9  C   UNL     1      16.467  49.051  47.665  1.00  0.00     0.055 C 
HETATM   10  C   UNL     1      17.183  50.097  48.565  1.00  0.00     0.012 C 
HETATM   11  C   UNL     1      17.397  51.536  47.907  1.00  0.00     0.008 C 
HETATM   12  C   UNL     1      16.026  52.273  47.995  1.00  0.00     0.020 C 
HETATM   13  C   UNL     1      18.424  52.377  48.730  1.00  0.00     0.128 C 
HETATM   14  C   UNL     1      18.541  51.901  50.171  1.00  0.00     0.033 C 
HETATM   15  C   UNL     1      19.123  50.489  50.241  1.00  0.00     0.013 C 
ENDROOT
BRANCH   3  16
HETATM   16  C   UNL     1      20.570  48.005  48.808  1.00  0.00     0.114 C 
BRANCH  16  17
HETATM   17  C   UNL     1      22.001  48.426  48.540  1.00  0.00     0.218 C 
HETATM   18  N   UNL     1      22.886  48.078  49.525  1.00  0.00    -0.355 N 
HETATM   19  H   UNL     1      22.683  47.209  50.020  1.00  0.00     0.162 HD
HETATM   20  O   UNL     1      22.302  49.073  47.541  1.00  0.00    -0.274 OA
BRANCH  18  21
HETATM   21  C   UNL     1      24.277  48.455  49.445  1.00  0.00     0.187 C 
BRANCH  21  22
HETATM   22  C   UNL     1      25.097  47.392  50.081  1.00  0.00     0.070 A 
HETATM   23  O   UNL     1      25.999  46.746  49.282  1.00  0.00    -0.325 OA
HETATM   24  C   UNL     1      26.630  45.827  50.057  1.00  0.00     0.142 A 
HETATM   25  C   UNL     1      26.148  45.867  51.343  1.00  0.00     0.027 A 
HETATM   26  C   UNL     1      25.152  46.872  51.358  1.00  0.00     0.036 A 
ENDBRANCH  21  22
ENDBRANCH  18  21
ENDBRANCH  16  17
ENDBRANCH   3  16
BRANCH  11  27
HETATM   27  C   UNL     1      17.829  51.556  46.415  1.00  0.00     0.176 C 
BRANCH  27  28
HETATM   28  O   UNL     1      17.596  52.814  45.791  1.00  0.00    -0.400 OA
HETATM   29  H   UNL     1      18.004  53.480  46.372  1.00  0.00     0.209 HD
ENDBRANCH  27  28
ENDBRANCH  11  27
BRANCH   7  30
HETATM   30  N   UNL     1      18.941  47.177  43.672  1.00  0.00    -0.305 N 
HETATM   31  C   UNL     1      19.793  46.160  43.305  1.00  0.00     0.227 C 
HETATM   32  O   UNL     1      20.212  45.282  44.063  1.00  0.00    -0.273 OA
HETATM   33  H   UNL     1      18.694  47.899  43.014  1.00  0.00     0.171 HD
BRANCH  31  34
HETATM   34  C   UNL     1      20.238  46.235  41.819  1.00  0.00     0.078 C 
HETATM   35  C   UNL     1      20.084  47.563  41.018  1.00  0.00     0.014 C 
HETATM   36  C   UNL     1      21.415  47.228  40.322  1.00  0.00     0.002 C 
HETATM   37  C   UNL     1      21.768  46.389  41.563  1.00  0.00     0.014 C 
ENDBRANCH  31  34
ENDBRANCH   7  30
BRANCH  13  38
HETATM   38  O   UNL     1      19.719  52.328  48.131  1.00  0.00    -0.395 OA
HETATM   39  H   UNL     1      20.304  52.935  48.620  1.00  0.00     0.210 HD
ENDBRANCH  13  38
TORSDOF 9
ENDMDL
