MODEL 1
REMARK VINA RESULT:      -9.0      0.000      0.000
REMARK  8 active torsions:
REMARK  status: ('A' for Active; 'I' for Inactive)
REMARK       I    between atoms: C_2  and  N_3 
REMARK    1  A    between atoms: N_3  and  C_4 
REMARK    2  A    between atoms: C_6  and  C_7 
REMARK    3  A    between atoms: C_7  and  N_8 
REMARK    4  A    between atoms: C_11  and  C_12 
REMARK    5  A    between atoms: C_14  and  S_15 
REMARK    6  A    between atoms: S_15  and  C_16 
REMARK    7  A    between atoms: C_16  and  C_17 
REMARK    8  A    between atoms: C_17  and  N_18 
ROOT
HETATM    1  N   UNL     1      26.107  44.403  51.210  1.00  0.00    -0.066 N 
HETATM    2  H   UNL     1      25.771  44.671  52.145  1.00  0.00     0.280 HD
HETATM    3  C   UNL     1      26.493  45.681  50.480  1.00  0.00     0.246 C 
HETATM    4  C   UNL     1      25.266  46.586  50.306  1.00  0.00     0.064 C 
HETATM    5  C   UNL     1      24.117  45.838  49.616  1.00  0.00     0.014 C 
HETATM    6  C   UNL     1      23.778  44.555  50.367  1.00  0.00     0.028 C 
HETATM    7  C   UNL     1      24.992  43.652  50.520  1.00  0.00     0.235 C 
ENDROOT
BRANCH   4   8
HETATM    8  C   UNL     1      25.596  47.886  49.603  1.00  0.00     0.044 A 
HETATM    9  N   UNL     1      24.535  48.608  49.189  1.00  0.00    -0.227 NA
HETATM   10  C   UNL     1      24.776  49.747  48.513  1.00  0.00     0.188 A 
HETATM   11  N   UNL     1      25.995  50.220  48.226  1.00  0.00    -0.235 NA
HETATM   12  C   UNL     1      27.033  49.486  48.669  1.00  0.00     0.121 A 
HETATM   13  C   UNL     1      26.892  48.303  49.363  1.00  0.00     0.047 A 
BRANCH  10  14
HETATM   14  S   UNL     1      23.357  50.662  47.970  1.00  0.00    -0.088 SA
BRANCH  14  15
HETATM   15  C   UNL     1      22.526  50.939  49.566  1.00  0.00     0.110 C 
BRANCH  15  16
HETATM   16  C   UNL     1      21.015  50.782  49.378  1.00  0.00     0.245 C 
BRANCH  16  17
HETATM   17  N   UNL     1      20.494  49.529  50.060  1.00  0.00    -0.070 N 
HETATM   18  H   UNL     1      21.136  49.297  50.831  1.00  0.00     0.279 HD
HETATM   19  C   UNL     1      20.479  48.314  49.136  1.00  0.00     0.235 C 
HETATM   20  C   UNL     1      19.012  47.974  48.976  1.00  0.00     0.029 C 
HETATM   21  C   UNL     1      18.428  48.336  50.325  1.00  0.00     0.029 C 
HETATM   22  C   UNL     1      19.093  49.661  50.637  1.00  0.00     0.235 C 
ENDBRANCH  16  17
ENDBRANCH  15  16
ENDBRANCH  14  15
ENDBRANCH  10  14
ENDBRANCH   4   8
BRANCH   1  23
HETATM   23  C   UNL     1      27.296  43.483  51.456  1.00  0.00     0.280 C 
BRANCH  23  24
HETATM   24  C   UNL     1      27.971  43.737  52.761  1.00  0.00     0.010 A 
HETATM   25  S   UNL     1      29.330  42.796  53.225  1.00  0.00    -0.075 SA
HETATM   26  C   UNL     1      29.498  43.642  54.685  1.00  0.00     0.076 A 
HETATM   27  C   UNL     1      28.541  44.615  54.844  1.00  0.00     0.038 A 
HETATM   28  C   UNL     1      27.644  44.662  53.735  1.00  0.00     0.019 A 
BRANCH  26  29
HETATM   29  N   UNL     1      30.543  43.220  55.470  1.00  0.00    -0.322 N 
HETATM   30  C   UNL     1      31.059  43.977  56.505  1.00  0.00     0.218 C 
HETATM   31  C   UNL     1      32.167  43.271  57.243  1.00  0.00     0.117 C 
HETATM   32  O   UNL     1      30.720  45.119  56.801  1.00  0.00    -0.274 OA
HETATM   33  H   UNL     1      30.946  42.315  55.264  1.00  0.00     0.169 HD
ENDBRANCH  26  29
ENDBRANCH  23  24
ENDBRANCH   1  23
TORSDOF 8
ENDMDL
MODEL 2
REMARK VINA RESULT:      -8.9      1.296      1.704
REMARK  8 active torsions:
REMARK  status: ('A' for Active; 'I' for Inactive)
REMARK       I    between atoms: C_2  and  N_3 
REMARK    1  A    between atoms: N_3  and  C_4 
REMARK    2  A    between atoms: C_6  and  C_7 
REMARK    3  A    between atoms: C_7  and  N_8 
REMARK    4  A    between atoms: C_11  and  C_12 
REMARK    5  A    between atoms: C_14  and  S_15 
REMARK    6  A    between atoms: S_15  and  C_16 
REMARK    7  A    between atoms: C_16  and  C_17 
REMARK    8  A    between atoms: C_17  and  N_18 
ROOT
HETATM    1  N   UNL     1      26.526  44.326  51.439  1.00  0.00    -0.066 N 
HETATM    2  H   UNL     1      26.394  44.642  52.410  1.00  0.00     0.280 HD
HETATM    3  C   UNL     1      26.862  45.553  50.603  1.00  0.00     0.246 C 
HETATM    4  C   UNL     1      25.695  46.549  50.627  1.00  0.00     0.064 C 
HETATM    5  C   UNL     1      24.384  45.882  50.192  1.00  0.00     0.014 C 
HETATM    6  C   UNL     1      24.097  44.648  51.040  1.00  0.00     0.028 C 
HETATM    7  C   UNL     1      25.247  43.653  50.997  1.00  0.00     0.235 C 
ENDROOT
BRANCH   4   8
HETATM    8  C   UNL     1      25.984  47.802  49.827  1.00  0.00     0.044 A 
HETATM    9  N   UNL     1      24.900  48.462  49.370  1.00  0.00    -0.227 NA
HETATM   10  C   UNL     1      25.104  49.554  48.609  1.00  0.00     0.188 A 
HETATM   11  N   UNL     1      26.307  50.037  48.277  1.00  0.00    -0.235 NA
HETATM   12  C   UNL     1      27.368  49.368  48.764  1.00  0.00     0.121 A 
HETATM   13  C   UNL     1      27.265  48.237  49.545  1.00  0.00     0.047 A 
BRANCH  10  14
HETATM   14  S   UNL     1      23.656  50.386  48.011  1.00  0.00    -0.088 SA
BRANCH  14  15
HETATM   15  C   UNL     1      22.361  49.337  48.744  1.00  0.00     0.110 C 
BRANCH  15  16
HETATM   16  C   UNL     1      21.503  50.184  49.688  1.00  0.00     0.245 C 
BRANCH  16  17
HETATM   17  N   UNL     1      20.070  50.289  49.198  1.00  0.00    -0.070 N 
HETATM   18  H   UNL     1      19.788  49.366  48.837  1.00  0.00     0.279 HD
HETATM   19  C   UNL     1      19.909  51.268  48.039  1.00  0.00     0.235 C 
HETATM   20  C   UNL     1      19.046  52.381  48.595  1.00  0.00     0.029 C 
HETATM   21  C   UNL     1      18.128  51.655  49.554  1.00  0.00     0.029 C 
HETATM   22  C   UNL     1      19.067  50.702  50.265  1.00  0.00     0.235 C 
ENDBRANCH  16  17
ENDBRANCH  15  16
ENDBRANCH  14  15
ENDBRANCH  10  14
ENDBRANCH   4   8
BRANCH   1  23
HETATM   23  C   UNL     1      27.667  43.319  51.493  1.00  0.00     0.280 C 
BRANCH  23  24
HETATM   24  C   UNL     1      28.535  43.484  52.694  1.00  0.00     0.010 A 
HETATM   25  S   UNL     1      28.127  44.637  53.898  1.00  0.00    -0.075 SA
HETATM   26  C   UNL     1      29.479  44.227  54.839  1.00  0.00     0.076 A 
HETATM   27  C   UNL     1      30.246  43.246  54.260  1.00  0.00     0.038 A 
HETATM   28  C   UNL     1      29.709  42.824  53.007  1.00  0.00     0.019 A 
BRANCH  26  29
HETATM   29  N   UNL     1      29.594  44.938  56.008  1.00  0.00    -0.322 N 
HETATM   30  C   UNL     1      30.633  44.753  56.900  1.00  0.00     0.218 C 
HETATM   31  C   UNL     1      30.558  45.689  58.080  1.00  0.00     0.117 C 
HETATM   32  O   UNL     1      31.515  43.905  56.813  1.00  0.00    -0.274 OA
HETATM   33  H   UNL     1      28.875  45.620  56.214  1.00  0.00     0.169 HD
ENDBRANCH  26  29
ENDBRANCH  23  24
ENDBRANCH   1  23
TORSDOF 8
ENDMDL
MODEL 3
REMARK VINA RESULT:      -8.8      3.596     10.449
REMARK  8 active torsions:
REMARK  status: ('A' for Active; 'I' for Inactive)
REMARK       I    between atoms: C_2  and  N_3 
REMARK    1  A    between atoms: N_3  and  C_4 
REMARK    2  A    between atoms: C_6  and  C_7 
REMARK    3  A    between atoms: C_7  and  N_8 
REMARK    4  A    between atoms: C_11  and  C_12 
REMARK    5  A    between atoms: C_14  and  S_15 
REMARK    6  A    between atoms: S_15  and  C_16 
REMARK    7  A    between atoms: C_16  and  C_17 
REMARK    8  A    between atoms: C_17  and  N_18 
ROOT
HETATM    1  N   UNL     1      24.760  49.768  48.760  1.00  0.00    -0.066 N 
HETATM    2  H   UNL     1      24.836  50.370  49.592  1.00  0.00     0.280 HD
HETATM    3  C   UNL     1      24.293  48.399  49.231  1.00  0.00     0.246 C 
HETATM    4  C   UNL     1      25.330  47.779  50.177  1.00  0.00     0.064 C 
HETATM    5  C   UNL     1      26.720  47.736  49.528  1.00  0.00     0.014 C 
HETATM    6  C   UNL     1      27.138  49.123  49.053  1.00  0.00     0.028 C 
HETATM    7  C   UNL     1      26.118  49.725  48.099  1.00  0.00     0.235 C 
ENDROOT
BRANCH   4   8
HETATM    8  C   UNL     1      24.906  46.421  50.695  1.00  0.00     0.044 A 
HETATM    9  N   UNL     1      25.327  46.117  51.940  1.00  0.00    -0.227 NA
HETATM   10  C   UNL     1      25.020  44.900  52.428  1.00  0.00     0.188 A 
HETATM   11  N   UNL     1      24.321  43.969  51.768  1.00  0.00    -0.235 NA
HETATM   12  C   UNL     1      23.899  44.309  50.536  1.00  0.00     0.121 A 
HETATM   13  C   UNL     1      24.167  45.526  49.945  1.00  0.00     0.047 A 
BRANCH  10  14
HETATM   14  S   UNL     1      25.605  44.529  54.061  1.00  0.00    -0.088 SA
BRANCH  14  15
HETATM   15  C   UNL     1      26.867  45.828  54.250  1.00  0.00     0.110 C 
BRANCH  15  16
HETATM   16  C   UNL     1      27.752  45.495  55.454  1.00  0.00     0.245 C 
BRANCH  16  17
HETATM   17  N   UNL     1      29.177  45.184  55.031  1.00  0.00    -0.070 N 
HETATM   18  H   UNL     1      29.509  45.957  54.437  1.00  0.00     0.279 HD
HETATM   19  C   UNL     1      29.281  43.919  54.183  1.00  0.00     0.235 C 
HETATM   20  C   UNL     1      30.081  42.954  55.033  1.00  0.00     0.029 C 
HETATM   21  C   UNL     1      31.040  43.863  55.771  1.00  0.00     0.029 C 
HETATM   22  C   UNL     1      30.157  45.023  56.184  1.00  0.00     0.235 C 
ENDBRANCH  16  17
ENDBRANCH  15  16
ENDBRANCH  14  15
ENDBRANCH  10  14
ENDBRANCH   4   8
BRANCH   1  23
HETATM   23  C   UNL     1      23.748  50.456  47.854  1.00  0.00     0.280 C 
BRANCH  23  24
HETATM   24  C   UNL     1      22.387  50.543  48.457  1.00  0.00     0.010 A 
HETATM   25  S   UNL     1      21.058  49.764  47.699  1.00  0.00    -0.075 SA
HETATM   26  C   UNL     1      19.984  50.282  48.906  1.00  0.00     0.076 A 
HETATM   27  C   UNL     1      20.599  51.045  49.867  1.00  0.00     0.038 A 
HETATM   28  C   UNL     1      21.992  51.211  49.602  1.00  0.00     0.019 A 
BRANCH  26  29
HETATM   29  N   UNL     1      18.686  49.869  48.727  1.00  0.00    -0.322 N 
HETATM   30  C   UNL     1      17.782  50.556  47.939  1.00  0.00     0.218 C 
HETATM   31  C   UNL     1      16.441  49.872  47.866  1.00  0.00     0.117 C 
HETATM   32  O   UNL     1      17.983  51.630  47.380  1.00  0.00    -0.274 OA
HETATM   33  H   UNL     1      18.393  49.027  49.204  1.00  0.00     0.169 HD
ENDBRANCH  26  29
ENDBRANCH  23  24
ENDBRANCH   1  23
TORSDOF 8
ENDMDL
MODEL 4
REMARK VINA RESULT:      -8.4      3.515      4.341
REMARK  8 active torsions:
REMARK  status: ('A' for Active; 'I' for Inactive)
REMARK       I    between atoms: C_2  and  N_3 
REMARK    1  A    between atoms: N_3  and  C_4 
REMARK    2  A    between atoms: C_6  and  C_7 
REMARK    3  A    between atoms: C_7  and  N_8 
REMARK    4  A    between atoms: C_11  and  C_12 
REMARK    5  A    between atoms: C_14  and  S_15 
REMARK    6  A    between atoms: S_15  and  C_16 
REMARK    7  A    between atoms: C_16  and  C_17 
REMARK    8  A    between atoms: C_17  and  N_18 
ROOT
HETATM    1  N   UNL     1      25.223  44.297  50.678  1.00  0.00    -0.066 N 
HETATM    2  H   UNL     1      26.195  43.961  50.721  1.00  0.00     0.280 HD
HETATM    3  C   UNL     1      25.217  45.568  49.842  1.00  0.00     0.246 C 
HETATM    4  C   UNL     1      26.069  46.653  50.516  1.00  0.00     0.064 C 
HETATM    5  C   UNL     1      25.616  46.898  51.961  1.00  0.00     0.014 C 
HETATM    6  C   UNL     1      25.616  45.596  52.756  1.00  0.00     0.028 C 
HETATM    7  C   UNL     1      24.754  44.531  52.096  1.00  0.00     0.235 C 
ENDROOT
BRANCH   4   8
HETATM    8  C   UNL     1      26.117  47.936  49.713  1.00  0.00     0.044 A 
HETATM    9  N   UNL     1      24.919  48.451  49.368  1.00  0.00    -0.227 NA
HETATM   10  C   UNL     1      24.907  49.563  48.611  1.00  0.00     0.188 A 
HETATM   11  N   UNL     1      26.001  50.202  48.178  1.00  0.00    -0.235 NA
HETATM   12  C   UNL     1      27.181  49.675  48.555  1.00  0.00     0.121 A 
HETATM   13  C   UNL     1      27.299  48.536  49.322  1.00  0.00     0.047 A 
BRANCH  10  14
HETATM   14  S   UNL     1      23.314  50.201  48.162  1.00  0.00    -0.088 SA
BRANCH  14  15
HETATM   15  C   UNL     1      22.240  49.000  49.008  1.00  0.00     0.110 C 
BRANCH  15  16
HETATM   16  C   UNL     1      21.008  48.730  48.141  1.00  0.00     0.245 C 
BRANCH  16  17
HETATM   17  N   UNL     1      19.814  49.551  48.595  1.00  0.00    -0.070 N 
HETATM   18  H   UNL     1      18.978  48.950  48.549  1.00  0.00     0.279 HD
HETATM   19  C   UNL     1      19.532  50.743  47.684  1.00  0.00     0.235 C 
HETATM   20  C   UNL     1      19.791  51.956  48.552  1.00  0.00     0.029 C 
HETATM   21  C   UNL     1      19.352  51.495  49.925  1.00  0.00     0.029 C 
HETATM   22  C   UNL     1      19.924  50.095  50.011  1.00  0.00     0.235 C 
ENDBRANCH  16  17
ENDBRANCH  15  16
ENDBRANCH  14  15
ENDBRANCH  10  14
ENDBRANCH   4   8
BRANCH   1  23
HETATM   23  C   UNL     1      24.431  43.165  50.036  1.00  0.00     0.280 C 
BRANCH  23  24
HETATM   24  C   UNL     1      25.237  41.926  49.842  1.00  0.00     0.010 A 
HETATM   25  S   UNL     1      26.466  41.514  50.969  1.00  0.00    -0.075 SA
HETATM   26  C   UNL     1      26.858  40.098  50.120  1.00  0.00     0.076 A 
HETATM   27  C   UNL     1      26.093  39.931  48.992  1.00  0.00     0.038 A 
HETATM   28  C   UNL     1      25.162  40.998  48.820  1.00  0.00     0.019 A 
BRANCH  26  29
HETATM   29  N   UNL     1      27.870  39.360  50.683  1.00  0.00    -0.322 N 
HETATM   30  C   UNL     1      28.936  38.868  49.954  1.00  0.00     0.218 C 
HETATM   31  C   UNL     1      29.935  38.134  50.812  1.00  0.00     0.117 C 
HETATM   32  O   UNL     1      29.076  38.950  48.738  1.00  0.00    -0.274 OA
HETATM   33  H   UNL     1      27.816  39.173  51.676  1.00  0.00     0.169 HD
ENDBRANCH  26  29
ENDBRANCH  23  24
ENDBRANCH   1  23
TORSDOF 8
ENDMDL
MODEL 5
REMARK VINA RESULT:      -8.4      2.276      3.751
REMARK  8 active torsions:
REMARK  status: ('A' for Active; 'I' for Inactive)
REMARK       I    between atoms: C_2  and  N_3 
REMARK    1  A    between atoms: N_3  and  C_4 
REMARK    2  A    between atoms: C_6  and  C_7 
REMARK    3  A    between atoms: C_7  and  N_8 
REMARK    4  A    between atoms: C_11  and  C_12 
REMARK    5  A    between atoms: C_14  and  S_15 
REMARK    6  A    between atoms: S_15  and  C_16 
REMARK    7  A    between atoms: C_16  and  C_17 
REMARK    8  A    between atoms: C_17  and  N_18 
ROOT
HETATM    1  N   UNL     1      25.587  45.580  52.105  1.00  0.00    -0.066 N 
HETATM    2  H   UNL     1      26.479  45.224  51.734  1.00  0.00     0.280 HD
HETATM    3  C   UNL     1      24.468  44.914  51.318  1.00  0.00     0.246 C 
HETATM    4  C   UNL     1      24.558  45.298  49.835  1.00  0.00     0.064 C 
HETATM    5  C   UNL     1      24.576  46.822  49.656  1.00  0.00     0.014 C 
HETATM    6  C   UNL     1      25.697  47.450  50.477  1.00  0.00     0.028 C 
HETATM    7  C   UNL     1      25.593  47.083  51.949  1.00  0.00     0.235 C 
ENDROOT
BRANCH   4   8
HETATM    8  C   UNL     1      23.478  44.644  48.999  1.00  0.00     0.044 A 
HETATM    9  N   UNL     1      22.336  45.350  48.869  1.00  0.00    -0.227 NA
HETATM   10  C   UNL     1      21.326  44.790  48.178  1.00  0.00     0.188 A 
HETATM   11  N   UNL     1      21.374  43.582  47.603  1.00  0.00    -0.235 NA
HETATM   12  C   UNL     1      22.533  42.910  47.734  1.00  0.00     0.121 A 
HETATM   13  C   UNL     1      23.622  43.394  48.427  1.00  0.00     0.047 A 
BRANCH  10  14
HETATM   14  S   UNL     1      19.834  45.740  48.042  1.00  0.00    -0.088 SA
BRANCH  14  15
HETATM   15  C   UNL     1      20.514  47.423  48.182  1.00  0.00     0.110 C 
BRANCH  15  16
HETATM   16  C   UNL     1      19.913  48.106  49.413  1.00  0.00     0.245 C 
BRANCH  16  17
HETATM   17  N   UNL     1      20.708  49.336  49.813  1.00  0.00    -0.070 N 
HETATM   18  H   UNL     1      20.823  49.322  50.837  1.00  0.00     0.279 HD
HETATM   19  C   UNL     1      19.987  50.641  49.484  1.00  0.00     0.235 C 
HETATM   20  C   UNL     1      20.854  51.301  48.432  1.00  0.00     0.029 C 
HETATM   21  C   UNL     1      22.254  50.892  48.837  1.00  0.00     0.029 C 
HETATM   22  C   UNL     1      22.091  49.427  49.185  1.00  0.00     0.235 C 
ENDBRANCH  16  17
ENDBRANCH  15  16
ENDBRANCH  14  15
ENDBRANCH  10  14
ENDBRANCH   4   8
BRANCH   1  23
HETATM   23  C   UNL     1      25.580  45.198  53.579  1.00  0.00     0.280 C 
BRANCH  23  24
HETATM   24  C   UNL     1      26.915  45.344  54.227  1.00  0.00     0.010 A 
HETATM   25  S   UNL     1      27.903  43.964  54.482  1.00  0.00    -0.075 SA
HETATM   26  C   UNL     1      29.135  44.896  55.183  1.00  0.00     0.076 A 
HETATM   27  C   UNL     1      28.816  46.230  55.245  1.00  0.00     0.038 A 
HETATM   28  C   UNL     1      27.521  46.491  54.705  1.00  0.00     0.019 A 
BRANCH  26  29
HETATM   29  N   UNL     1      30.236  44.177  55.580  1.00  0.00    -0.322 N 
HETATM   30  C   UNL     1      30.818  44.320  56.825  1.00  0.00     0.218 C 
HETATM   31  C   UNL     1      31.981  43.384  57.032  1.00  0.00     0.117 C 
HETATM   32  O   UNL     1      30.492  45.135  57.683  1.00  0.00    -0.274 OA
HETATM   33  H   UNL     1      30.631  43.523  54.917  1.00  0.00     0.169 HD
ENDBRANCH  26  29
ENDBRANCH  23  24
ENDBRANCH   1  23
TORSDOF 8
ENDMDL
MODEL 6
REMARK VINA RESULT:      -8.2      3.596     10.567
REMARK  8 active torsions:
REMARK  status: ('A' for Active; 'I' for Inactive)
REMARK       I    between atoms: C_2  and  N_3 
REMARK    1  A    between atoms: N_3  and  C_4 
REMARK    2  A    between atoms: C_6  and  C_7 
REMARK    3  A    between atoms: C_7  and  N_8 
REMARK    4  A    between atoms: C_11  and  C_12 
REMARK    5  A    between atoms: C_14  and  S_15 
REMARK    6  A    between atoms: S_15  and  C_16 
REMARK    7  A    between atoms: C_16  and  C_17 
REMARK    8  A    between atoms: C_17  and  N_18 
ROOT
HETATM    1  N   UNL     1      23.705  46.530  49.774  1.00  0.00    -0.066 N 
HETATM    2  H   UNL     1      22.917  46.492  50.436  1.00  0.00     0.280 HD
HETATM    3  C   UNL     1      24.275  45.124  49.662  1.00  0.00     0.246 C 
HETATM    4  C   UNL     1      24.815  44.659  51.021  1.00  0.00     0.064 C 
HETATM    5  C   UNL     1      25.828  45.660  51.590  1.00  0.00     0.014 C 
HETATM    6  C   UNL     1      25.224  47.058  51.665  1.00  0.00     0.028 C 
HETATM    7  C   UNL     1      24.708  47.524  50.312  1.00  0.00     0.235 C 
ENDROOT
BRANCH   4   8
HETATM    8  C   UNL     1      25.376  43.253  50.973  1.00  0.00     0.044 A 
HETATM    9  N   UNL     1      26.376  42.997  51.841  1.00  0.00    -0.227 NA
HETATM   10  C   UNL     1      26.945  41.778  51.803  1.00  0.00     0.188 A 
HETATM   11  N   UNL     1      26.585  40.795  50.969  1.00  0.00    -0.235 NA
HETATM   12  C   UNL     1      25.572  41.074  50.128  1.00  0.00     0.121 A 
HETATM   13  C   UNL     1      24.930  42.294  50.084  1.00  0.00     0.047 A 
BRANCH  10  14
HETATM   14  S   UNL     1      28.268  41.483  52.947  1.00  0.00    -0.088 SA
BRANCH  14  15
HETATM   15  C   UNL     1      29.331  42.915  52.579  1.00  0.00     0.110 C 
BRANCH  15  16
HETATM   16  C   UNL     1      30.491  42.948  53.578  1.00  0.00     0.245 C 
BRANCH  16  17
HETATM   17  N   UNL     1      30.007  43.243  54.987  1.00  0.00    -0.070 N 
HETATM   18  H   UNL     1      29.335  42.509  55.253  1.00  0.00     0.279 HD
HETATM   19  C   UNL     1      29.255  44.567  55.091  1.00  0.00     0.235 C 
HETATM   20  C   UNL     1      30.127  45.433  55.976  1.00  0.00     0.029 C 
HETATM   21  C   UNL     1      30.733  44.436  56.940  1.00  0.00     0.029 C 
HETATM   22  C   UNL     1      31.107  43.278  56.038  1.00  0.00     0.235 C 
ENDBRANCH  16  17
ENDBRANCH  15  16
ENDBRANCH  14  15
ENDBRANCH  10  14
ENDBRANCH   4   8
BRANCH   1  23
HETATM   23  C   UNL     1      23.109  47.031  48.465  1.00  0.00     0.280 C 
BRANCH  23  24
HETATM   24  C   UNL     1      22.690  48.461  48.524  1.00  0.00     0.010 A 
HETATM   25  S   UNL     1      21.141  48.879  49.135  1.00  0.00    -0.075 SA
HETATM   26  C   UNL     1      21.424  50.535  48.898  1.00  0.00     0.076 A 
HETATM   27  C   UNL     1      22.659  50.786  48.353  1.00  0.00     0.038 A 
HETATM   28  C   UNL     1      23.390  49.583  48.120  1.00  0.00     0.019 A 
BRANCH  26  29
HETATM   29  N   UNL     1      20.384  51.349  49.276  1.00  0.00    -0.322 N 
HETATM   30  C   UNL     1      19.231  51.491  48.527  1.00  0.00     0.218 C 
HETATM   31  C   UNL     1      18.224  52.401  49.182  1.00  0.00     0.117 C 
HETATM   32  O   UNL     1      19.021  50.992  47.426  1.00  0.00    -0.274 OA
HETATM   33  H   UNL     1      20.484  51.865  50.140  1.00  0.00     0.169 HD
ENDBRANCH  26  29
ENDBRANCH  23  24
ENDBRANCH   1  23
TORSDOF 8
ENDMDL
MODEL 7
REMARK VINA RESULT:      -8.0      3.241      4.692
REMARK  8 active torsions:
REMARK  status: ('A' for Active; 'I' for Inactive)
REMARK       I    between atoms: C_2  and  N_3 
REMARK    1  A    between atoms: N_3  and  C_4 
REMARK    2  A    between atoms: C_6  and  C_7 
REMARK    3  A    between atoms: C_7  and  N_8 
REMARK    4  A    between atoms: C_11  and  C_12 
REMARK    5  A    between atoms: C_14  and  S_15 
REMARK    6  A    between atoms: S_15  and  C_16 
REMARK    7  A    between atoms: C_16  and  C_17 
REMARK    8  A    between atoms: C_17  and  N_18 
ROOT
HETATM    1  N   UNL     1      26.132  45.129  51.694  1.00  0.00    -0.066 N 
HETATM    2  H   UNL     1      26.970  45.059  51.101  1.00  0.00     0.280 HD
HETATM    3  C   UNL     1      24.977  44.500  50.928  1.00  0.00     0.246 C 
HETATM    4  C   UNL     1      24.713  45.277  49.632  1.00  0.00     0.064 C 
HETATM    5  C   UNL     1      24.488  46.768  49.913  1.00  0.00     0.014 C 
HETATM    6  C   UNL     1      25.657  47.353  50.699  1.00  0.00     0.028 C 
HETATM    7  C   UNL     1      25.903  46.593  51.993  1.00  0.00     0.235 C 
ENDROOT
BRANCH   4   8
HETATM    8  C   UNL     1      23.585  44.680  48.817  1.00  0.00     0.044 A 
HETATM    9  N   UNL     1      22.397  45.312  48.918  1.00  0.00    -0.227 NA
HETATM   10  C   UNL     1      21.349  44.791  48.253  1.00  0.00     0.188 A 
HETATM   11  N   UNL     1      21.400  43.690  47.492  1.00  0.00    -0.235 NA
HETATM   12  C   UNL     1      22.603  43.093  47.396  1.00  0.00     0.121 A 
HETATM   13  C   UNL     1      23.734  43.544  48.043  1.00  0.00     0.047 A 
BRANCH  10  14
HETATM   14  S   UNL     1      19.801  45.638  48.423  1.00  0.00    -0.088 SA
BRANCH  14  15
HETATM   15  C   UNL     1      20.362  47.362  48.260  1.00  0.00     0.110 C 
BRANCH  15  16
HETATM   16  C   UNL     1      19.761  48.195  49.396  1.00  0.00     0.245 C 
BRANCH  16  17
HETATM   17  N   UNL     1      20.672  49.345  49.788  1.00  0.00    -0.070 N 
HETATM   18  H   UNL     1      20.926  49.225  50.779  1.00  0.00     0.279 HD
HETATM   19  C   UNL     1      19.988  50.705  49.684  1.00  0.00     0.235 C 
HETATM   20  C   UNL     1      20.738  51.426  48.584  1.00  0.00     0.029 C 
HETATM   21  C   UNL     1      22.154  50.919  48.746  1.00  0.00     0.029 C 
HETATM   22  C   UNL     1      21.958  49.435  48.980  1.00  0.00     0.235 C 
ENDBRANCH  16  17
ENDBRANCH  15  16
ENDBRANCH  14  15
ENDBRANCH  10  14
ENDBRANCH   4   8
BRANCH   1  23
HETATM   23  C   UNL     1      26.475  44.373  52.971  1.00  0.00     0.280 C 
BRANCH  23  24
HETATM   24  C   UNL     1      27.571  43.379  52.783  1.00  0.00     0.010 A 
HETATM   25  S   UNL     1      27.208  41.788  52.248  1.00  0.00    -0.075 SA
HETATM   26  C   UNL     1      28.843  41.338  52.275  1.00  0.00     0.076 A 
HETATM   27  C   UNL     1      29.664  42.356  52.693  1.00  0.00     0.038 A 
HETATM   28  C   UNL     1      28.927  43.538  53.004  1.00  0.00     0.019 A 
BRANCH  26  29
HETATM   29  N   UNL     1      29.082  40.041  51.888  1.00  0.00    -0.322 N 
HETATM   30  C   UNL     1      28.948  39.611  50.582  1.00  0.00     0.218 C 
HETATM   31  C   UNL     1      29.315  38.159  50.410  1.00  0.00     0.117 C 
HETATM   32  O   UNL     1      28.535  40.281  49.641  1.00  0.00    -0.274 OA
HETATM   33  H   UNL     1      29.362  39.384  52.604  1.00  0.00     0.169 HD
ENDBRANCH  26  29
ENDBRANCH  23  24
ENDBRANCH   1  23
TORSDOF 8
ENDMDL
MODEL 8
REMARK VINA RESULT:      -8.0      3.562      4.339
REMARK  8 active torsions:
REMARK  status: ('A' for Active; 'I' for Inactive)
REMARK       I    between atoms: C_2  and  N_3 
REMARK    1  A    between atoms: N_3  and  C_4 
REMARK    2  A    between atoms: C_6  and  C_7 
REMARK    3  A    between atoms: C_7  and  N_8 
REMARK    4  A    between atoms: C_11  and  C_12 
REMARK    5  A    between atoms: C_14  and  S_15 
REMARK    6  A    between atoms: S_15  and  C_16 
REMARK    7  A    between atoms: C_16  and  C_17 
REMARK    8  A    between atoms: C_17  and  N_18 
ROOT
HETATM    1  N   UNL     1      25.747  44.333  51.046  1.00  0.00    -0.066 N 
HETATM    2  H   UNL     1      26.759  44.200  51.182  1.00  0.00     0.280 HD
HETATM    3  C   UNL     1      25.566  45.511  50.099  1.00  0.00     0.246 C 
HETATM    4  C   UNL     1      26.137  46.790  50.725  1.00  0.00     0.064 C 
HETATM    5  C   UNL     1      25.530  47.051  52.110  1.00  0.00     0.014 C 
HETATM    6  C   UNL     1      25.715  45.839  53.018  1.00  0.00     0.028 C 
HETATM    7  C   UNL     1      25.130  44.577  52.403  1.00  0.00     0.235 C 
ENDROOT
BRANCH   4   8
HETATM    8  C   UNL     1      26.003  47.993  49.815  1.00  0.00     0.044 A 
HETATM    9  N   UNL     1      24.739  48.387  49.555  1.00  0.00    -0.227 NA
HETATM   10  C   UNL     1      24.563  49.419  48.710  1.00  0.00     0.188 A 
HETATM   11  N   UNL     1      25.555  50.090  48.110  1.00  0.00    -0.235 NA
HETATM   12  C   UNL     1      26.804  49.686  48.404  1.00  0.00     0.121 A 
HETATM   13  C   UNL     1      27.089  48.635  49.251  1.00  0.00     0.047 A 
BRANCH  10  14
HETATM   14  S   UNL     1      22.888  49.898  48.378  1.00  0.00    -0.088 SA
BRANCH  14  15
HETATM   15  C   UNL     1      22.091  48.261  48.339  1.00  0.00     0.110 C 
BRANCH  15  16
HETATM   16  C   UNL     1      20.738  48.345  49.051  1.00  0.00     0.245 C 
BRANCH  16  17
HETATM   17  N   UNL     1      19.626  47.744  48.210  1.00  0.00    -0.070 N 
HETATM   18  H   UNL     1      18.738  48.177  48.501  1.00  0.00     0.279 HD
HETATM   19  C   UNL     1      19.462  46.243  48.430  1.00  0.00     0.235 C 
HETATM   20  C   UNL     1      19.832  45.619  47.101  1.00  0.00     0.029 C 
HETATM   21  C   UNL     1      19.346  46.641  46.096  1.00  0.00     0.029 C 
HETATM   22  C   UNL     1      19.783  47.955  46.712  1.00  0.00     0.235 C 
ENDBRANCH  16  17
ENDBRANCH  15  16
ENDBRANCH  14  15
ENDBRANCH  10  14
ENDBRANCH   4   8
BRANCH   1  23
HETATM   23  C   UNL     1      25.242  43.022  50.459  1.00  0.00     0.280 C 
BRANCH  23  24
HETATM   24  C   UNL     1      26.342  42.080  50.101  1.00  0.00     0.010 A 
HETATM   25  S   UNL     1      27.052  41.087  51.309  1.00  0.00    -0.075 SA
HETATM   26  C   UNL     1      28.107  40.372  50.189  1.00  0.00     0.076 A 
HETATM   27  C   UNL     1      27.950  40.873  48.921  1.00  0.00     0.038 A 
HETATM   28  C   UNL     1      26.936  41.876  48.869  1.00  0.00     0.019 A 
BRANCH  26  29
HETATM   29  N   UNL     1      28.945  39.424  50.725  1.00  0.00    -0.322 N 
HETATM   30  C   UNL     1      28.923  38.097  50.339  1.00  0.00     0.218 C 
HETATM   31  C   UNL     1      29.973  37.273  51.038  1.00  0.00     0.117 C 
HETATM   32  O   UNL     1      28.127  37.588  49.556  1.00  0.00    -0.274 OA
HETATM   33  H   UNL     1      29.599  39.726  51.436  1.00  0.00     0.169 HD
ENDBRANCH  26  29
ENDBRANCH  23  24
ENDBRANCH   1  23
TORSDOF 8
ENDMDL
MODEL 9
REMARK VINA RESULT:      -7.9      3.799     10.069
REMARK  8 active torsions:
REMARK  status: ('A' for Active; 'I' for Inactive)
REMARK       I    between atoms: C_2  and  N_3 
REMARK    1  A    between atoms: N_3  and  C_4 
REMARK    2  A    between atoms: C_6  and  C_7 
REMARK    3  A    between atoms: C_7  and  N_8 
REMARK    4  A    between atoms: C_11  and  C_12 
REMARK    5  A    between atoms: C_14  and  S_15 
REMARK    6  A    between atoms: S_15  and  C_16 
REMARK    7  A    between atoms: C_16  and  C_17 
REMARK    8  A    between atoms: C_17  and  N_18 
ROOT
HETATM    1  N   UNL     1      23.481  48.599  49.001  1.00  0.00    -0.066 N 
HETATM    2  H   UNL     1      23.270  49.028  49.913  1.00  0.00     0.280 HD
HETATM    3  C   UNL     1      23.479  47.090  49.196  1.00  0.00     0.246 C 
HETATM    4  C   UNL     1      24.579  46.680  50.183  1.00  0.00     0.064 C 
HETATM    5  C   UNL     1      25.949  47.214  49.744  1.00  0.00     0.014 C 
HETATM    6  C   UNL     1      25.900  48.724  49.539  1.00  0.00     0.028 C 
HETATM    7  C   UNL     1      24.822  49.125  48.545  1.00  0.00     0.235 C 
ENDROOT
BRANCH   4   8
HETATM    8  C   UNL     1      24.609  45.186  50.433  1.00  0.00     0.044 A 
HETATM    9  N   UNL     1      25.799  44.687  50.826  1.00  0.00    -0.227 NA
HETATM   10  C   UNL     1      25.892  43.357  51.011  1.00  0.00     0.188 A 
HETATM   11  N   UNL     1      24.885  42.491  50.838  1.00  0.00    -0.235 NA
HETATM   12  C   UNL     1      23.707  43.022  50.464  1.00  0.00     0.121 A 
HETATM   13  C   UNL     1      23.511  44.369  50.242  1.00  0.00     0.047 A 
BRANCH  10  14
HETATM   14  S   UNL     1      27.475  42.734  51.512  1.00  0.00    -0.088 SA
BRANCH  14  15
HETATM   15  C   UNL     1      27.945  44.002  52.731  1.00  0.00     0.110 C 
BRANCH  15  16
HETATM   16  C   UNL     1      27.155  43.773  54.022  1.00  0.00     0.245 C 
BRANCH  16  17
HETATM   17  N   UNL     1      26.911  45.074  54.766  1.00  0.00    -0.070 N 
HETATM   18  H   UNL     1      26.624  44.842  55.728  1.00  0.00     0.279 HD
HETATM   19  C   UNL     1      25.772  45.895  54.168  1.00  0.00     0.235 C 
HETATM   20  C   UNL     1      26.439  47.150  53.645  1.00  0.00     0.029 C 
HETATM   21  C   UNL     1      27.556  47.382  54.639  1.00  0.00     0.029 C 
HETATM   22  C   UNL     1      28.121  45.992  54.845  1.00  0.00     0.235 C 
ENDBRANCH  16  17
ENDBRANCH  15  16
ENDBRANCH  14  15
ENDBRANCH  10  14
ENDBRANCH   4   8
BRANCH   1  23
HETATM   23  C   UNL     1      22.376  49.074  48.065  1.00  0.00     0.280 C 
BRANCH  23  24
HETATM   24  C   UNL     1      21.128  49.460  48.785  1.00  0.00     0.010 A 
HETATM   25  S   UNL     1      20.598  51.093  48.773  1.00  0.00    -0.075 SA
HETATM   26  C   UNL     1      19.234  50.724  49.712  1.00  0.00     0.076 A 
HETATM   27  C   UNL     1      19.172  49.394  50.051  1.00  0.00     0.038 A 
HETATM   28  C   UNL     1      20.278  48.661  49.527  1.00  0.00     0.019 A 
BRANCH  26  29
HETATM   29  N   UNL     1      18.426  51.799  49.988  1.00  0.00    -0.322 N 
HETATM   30  C   UNL     1      17.143  51.922  49.490  1.00  0.00     0.218 C 
HETATM   31  C   UNL     1      16.448  53.167  49.978  1.00  0.00     0.117 C 
HETATM   32  O   UNL     1      16.601  51.157  48.698  1.00  0.00    -0.274 OA
HETATM   33  H   UNL     1      18.804  52.529  50.578  1.00  0.00     0.169 HD
ENDBRANCH  26  29
ENDBRANCH  23  24
ENDBRANCH   1  23
TORSDOF 8
ENDMDL
MODEL 10
REMARK VINA RESULT:      -7.8      4.694      9.043
REMARK  8 active torsions:
REMARK  status: ('A' for Active; 'I' for Inactive)
REMARK       I    between atoms: C_2  and  N_3 
REMARK    1  A    between atoms: N_3  and  C_4 
REMARK    2  A    between atoms: C_6  and  C_7 
REMARK    3  A    between atoms: C_7  and  N_8 
REMARK    4  A    between atoms: C_11  and  C_12 
REMARK    5  A    between atoms: C_14  and  S_15 
REMARK    6  A    between atoms: S_15  and  C_16 
REMARK    7  A    between atoms: C_16  and  C_17 
REMARK    8  A    between atoms: C_17  and  N_18 
ROOT
HETATM    1  N   UNL     1      24.698  49.844  48.737  1.00  0.00    -0.066 N 
HETATM    2  H   UNL     1      24.777  50.460  49.558  1.00  0.00     0.280 HD
HETATM    3  C   UNL     1      24.307  48.462  49.242  1.00  0.00     0.246 C 
HETATM    4  C   UNL     1      25.402  47.901  50.159  1.00  0.00     0.064 C 
HETATM    5  C   UNL     1      26.769  47.907  49.461  1.00  0.00     0.014 C 
HETATM    6  C   UNL     1      27.111  49.304  48.954  1.00  0.00     0.028 C 
HETATM    7  C   UNL     1      26.033  49.848  48.029  1.00  0.00     0.235 C 
ENDROOT
BRANCH   4   8
HETATM    8  C   UNL     1      25.055  46.533  50.709  1.00  0.00     0.044 A 
HETATM    9  N   UNL     1      24.233  45.790  49.940  1.00  0.00    -0.227 NA
HETATM   10  C   UNL     1      23.852  44.587  50.408  1.00  0.00     0.188 A 
HETATM   11  N   UNL     1      24.236  44.070  51.582  1.00  0.00    -0.235 NA
HETATM   12  C   UNL     1      25.071  44.827  52.317  1.00  0.00     0.121 A 
HETATM   13  C   UNL     1      25.512  46.074  51.930  1.00  0.00     0.047 A 
BRANCH  10  14
HETATM   14  S   UNL     1      22.758  43.645  49.379  1.00  0.00    -0.088 SA
BRANCH  14  15
HETATM   15  C   UNL     1      21.739  44.985  48.687  1.00  0.00     0.110 C 
BRANCH  15  16
HETATM   16  C   UNL     1      22.059  45.140  47.197  1.00  0.00     0.245 C 
BRANCH  16  17
HETATM   17  N   UNL     1      20.797  45.137  46.352  1.00  0.00    -0.070 N 
HETATM   18  H   UNL     1      20.985  44.586  45.501  1.00  0.00     0.279 HD
HETATM   19  C   UNL     1      20.399  46.531  45.877  1.00  0.00     0.235 C 
HETATM   20  C   UNL     1      19.079  46.807  46.566  1.00  0.00     0.029 C 
HETATM   21  C   UNL     1      18.432  45.440  46.625  1.00  0.00     0.029 C 
HETATM   22  C   UNL     1      19.578  44.540  47.039  1.00  0.00     0.235 C 
ENDBRANCH  16  17
ENDBRANCH  15  16
ENDBRANCH  14  15
ENDBRANCH  10  14
ENDBRANCH   4   8
BRANCH   1  23
HETATM   23  C   UNL     1      23.627  50.475  47.858  1.00  0.00     0.280 C 
BRANCH  23  24
HETATM   24  C   UNL     1      22.297  50.558  48.527  1.00  0.00     0.010 A 
HETATM   25  S   UNL     1      20.887  50.018  47.710  1.00  0.00    -0.075 SA
HETATM   26  C   UNL     1      19.896  50.404  49.032  1.00  0.00     0.076 A 
HETATM   27  C   UNL     1      20.600  50.946  50.078  1.00  0.00     0.038 A 
HETATM   28  C   UNL     1      21.992  51.052  49.782  1.00  0.00     0.019 A 
BRANCH  26  29
HETATM   29  N   UNL     1      18.565  50.123  48.844  1.00  0.00    -0.322 N 
HETATM   30  C   UNL     1      17.665  51.049  48.349  1.00  0.00     0.218 C 
HETATM   31  C   UNL     1      16.278  50.481  48.192  1.00  0.00     0.117 C 
HETATM   32  O   UNL     1      17.907  52.225  48.097  1.00  0.00    -0.274 OA
HETATM   33  H   UNL     1      18.243  49.196  49.090  1.00  0.00     0.169 HD
ENDBRANCH  26  29
ENDBRANCH  23  24
ENDBRANCH   1  23
TORSDOF 8
ENDMDL
