MODEL 1
REMARK VINA RESULT:      -9.6      0.000      0.000
REMARK  5 active torsions:
REMARK  status: ('A' for Active; 'I' for Inactive)
REMARK       I    between atoms: C_2  and  N_3 
REMARK    1  A    between atoms: N_3  and  C_4 
REMARK    2  A    between atoms: C_7  and  C_8 
REMARK    3  A    between atoms: C_8  and  N_9 
REMARK    4  A    between atoms: C_12  and  C_13 
REMARK    5  A    between atoms: C_14  and  O_15 
ROOT
HETATM    1  N   UNL     1      25.542  45.904  52.098  1.00  0.00    -0.060 N 
HETATM    2  H   UNL     1      26.397  45.548  51.654  1.00  0.00     0.280 HD
HETATM    3  C   UNL     1      25.061  47.138  51.317  1.00  0.00     0.272 C 
HETATM    4  C   UNL     1      24.701  46.884  49.835  1.00  0.00     0.190 C 
HETATM    5  O   UNL     1      23.544  46.034  49.746  1.00  0.00    -0.339 OA
HETATM    6  C   UNL     1      23.942  44.731  49.636  1.00  0.00     0.077 A 
HETATM    7  C   UNL     1      24.473  44.069  50.747  1.00  0.00     0.001 A 
HETATM    8  C   UNL     1      24.543  44.765  52.075  1.00  0.00     0.276 C 
HETATM    9  C   UNL     1      23.804  44.099  48.404  1.00  0.00     0.037 A 
HETATM   10  C   UNL     1      24.244  42.787  48.256  1.00  0.00     0.003 A 
HETATM   11  C   UNL     1      24.807  42.117  49.342  1.00  0.00     0.001 A 
HETATM   12  C   UNL     1      24.918  42.750  50.584  1.00  0.00     0.012 A 
ENDROOT
BRANCH   1  13
HETATM   13  C   UNL     1      25.909  46.353  53.499  1.00  0.00     0.273 C 
BRANCH  13  14
HETATM   14  C   UNL     1      27.201  45.836  54.070  1.00  0.00    -0.032 A 
HETATM   15  C   UNL     1      27.931  46.565  55.015  1.00  0.00     0.011 A 
HETATM   16  C   UNL     1      29.092  46.024  55.587  1.00  0.00     0.030 A 
HETATM   17  C   UNL     1      29.539  44.748  55.234  1.00  0.00     0.034 A 
HETATM   18  C   UNL     1      28.823  44.030  54.272  1.00  0.00     0.030 A 
HETATM   19  C   UNL     1      27.666  44.566  53.697  1.00  0.00     0.011 A 
BRANCH  17  20
HETATM   20  N   UNL     1      30.657  44.110  55.809  1.00  0.00    -0.328 N 
HETATM   21  C   UNL     1      31.076  44.171  57.126  1.00  0.00     0.218 C 
HETATM   22  C   UNL     1      32.252  43.268  57.410  1.00  0.00     0.117 C 
HETATM   23  O   UNL     1      30.567  44.839  58.020  1.00  0.00    -0.274 OA
HETATM   24  H   UNL     1      31.193  43.508  55.195  1.00  0.00     0.169 HD
ENDBRANCH  17  20
ENDBRANCH  13  14
ENDBRANCH   1  13
BRANCH   4  25
HETATM   25  C   UNL     1      24.340  48.192  49.145  1.00  0.00     0.006 A 
HETATM   26  C   UNL     1      25.339  49.028  48.612  1.00  0.00     0.077 A 
HETATM   27  C   UNL     1      24.991  50.249  48.022  1.00  0.00     0.037 A 
HETATM   28  C   UNL     1      23.653  50.629  47.918  1.00  0.00     0.003 A 
HETATM   29  C   UNL     1      22.653  49.787  48.394  1.00  0.00     0.001 A 
HETATM   30  C   UNL     1      22.993  48.576  48.994  1.00  0.00     0.012 A 
BRANCH  26  31
HETATM   31  O   UNL     1      26.636  48.604  48.739  1.00  0.00    -0.355 OA
HETATM   32  C   UNL     1      27.602  49.645  48.890  1.00  0.00     0.210 C 
ENDBRANCH  26  31
ENDBRANCH   4  25
TORSDOF 5
ENDMDL
MODEL 2
REMARK VINA RESULT:      -9.5      5.121     10.503
REMARK  5 active torsions:
REMARK  status: ('A' for Active; 'I' for Inactive)
REMARK       I    between atoms: C_2  and  N_3 
REMARK    1  A    between atoms: N_3  and  C_4 
REMARK    2  A    between atoms: C_7  and  C_8 
REMARK    3  A    between atoms: C_8  and  N_9 
REMARK    4  A    between atoms: C_12  and  C_13 
REMARK    5  A    between atoms: C_14  and  O_15 
ROOT
HETATM    1  N   UNL     1      21.075  49.597  49.775  1.00  0.00    -0.060 N 
HETATM    2  H   UNL     1      20.918  48.948  50.554  1.00  0.00     0.280 HD
HETATM    3  C   UNL     1      22.591  49.755  49.566  1.00  0.00     0.272 C 
HETATM    4  C   UNL     1      23.346  48.457  49.201  1.00  0.00     0.190 C 
HETATM    5  O   UNL     1      22.936  47.994  47.903  1.00  0.00    -0.339 OA
HETATM    6  C   UNL     1      21.918  47.092  48.040  1.00  0.00     0.077 A 
HETATM    7  C   UNL     1      20.642  47.533  48.402  1.00  0.00     0.001 A 
HETATM    8  C   UNL     1      20.373  49.000  48.573  1.00  0.00     0.276 C 
HETATM    9  C   UNL     1      22.191  45.746  47.812  1.00  0.00     0.037 A 
HETATM   10  C   UNL     1      21.182  44.806  47.990  1.00  0.00     0.003 A 
HETATM   11  C   UNL     1      19.908  45.218  48.383  1.00  0.00     0.001 A 
HETATM   12  C   UNL     1      19.635  46.575  48.583  1.00  0.00     0.012 A 
ENDROOT
BRANCH   1  13
HETATM   13  C   UNL     1      20.519  50.946  50.187  1.00  0.00     0.273 C 
BRANCH  13  14
HETATM   14  C   UNL     1      19.226  51.378  49.553  1.00  0.00    -0.032 A 
HETATM   15  C   UNL     1      17.988  50.938  50.034  1.00  0.00     0.011 A 
HETATM   16  C   UNL     1      16.795  51.418  49.471  1.00  0.00     0.030 A 
HETATM   17  C   UNL     1      16.816  52.347  48.429  1.00  0.00     0.034 A 
HETATM   18  C   UNL     1      18.054  52.768  47.933  1.00  0.00     0.030 A 
HETATM   19  C   UNL     1      19.245  52.291  48.488  1.00  0.00     0.011 A 
BRANCH  17  20
HETATM   20  N   UNL     1      15.666  52.924  47.854  1.00  0.00    -0.328 N 
HETATM   21  C   UNL     1      14.799  53.830  48.437  1.00  0.00     0.218 C 
HETATM   22  C   UNL     1      13.735  54.321  47.484  1.00  0.00     0.117 C 
HETATM   23  O   UNL     1      14.856  54.255  49.586  1.00  0.00    -0.274 OA
HETATM   24  H   UNL     1      15.473  52.674  46.891  1.00  0.00     0.169 HD
ENDBRANCH  17  20
ENDBRANCH  13  14
ENDBRANCH   1  13
BRANCH   4  25
HETATM   25  C   UNL     1      24.845  48.719  49.122  1.00  0.00     0.006 A 
HETATM   26  C   UNL     1      25.763  47.873  49.770  1.00  0.00     0.077 A 
HETATM   27  C   UNL     1      27.132  48.156  49.725  1.00  0.00     0.037 A 
HETATM   28  C   UNL     1      27.604  49.253  49.003  1.00  0.00     0.003 A 
HETATM   29  C   UNL     1      26.712  50.067  48.315  1.00  0.00     0.001 A 
HETATM   30  C   UNL     1      25.344  49.798  48.367  1.00  0.00     0.012 A 
BRANCH  26  31
HETATM   31  O   UNL     1      25.243  46.808  50.462  1.00  0.00    -0.355 OA
HETATM   32  C   UNL     1      25.453  46.844  51.874  1.00  0.00     0.210 C 
ENDBRANCH  26  31
ENDBRANCH   4  25
TORSDOF 5
ENDMDL
MODEL 3
REMARK VINA RESULT:      -9.0      9.663     13.983
REMARK  5 active torsions:
REMARK  status: ('A' for Active; 'I' for Inactive)
REMARK       I    between atoms: C_2  and  N_3 
REMARK    1  A    between atoms: N_3  and  C_4 
REMARK    2  A    between atoms: C_7  and  C_8 
REMARK    3  A    between atoms: C_8  and  N_9 
REMARK    4  A    between atoms: C_12  and  C_13 
REMARK    5  A    between atoms: C_14  and  O_15 
ROOT
HETATM    1  N   UNL     1      15.713  53.548  49.381  1.00  0.00    -0.060 N 
HETATM    2  H   UNL     1      16.413  53.922  48.730  1.00  0.00     0.280 HD
HETATM    3  C   UNL     1      15.585  54.512  50.571  1.00  0.00     0.272 C 
HETATM    4  C   UNL     1      15.117  55.942  50.216  1.00  0.00     0.190 C 
HETATM    5  O   UNL     1      13.761  55.915  49.736  1.00  0.00    -0.339 OA
HETATM    6  C   UNL     1      13.761  55.821  48.373  1.00  0.00     0.077 A 
HETATM    7  C   UNL     1      14.114  54.616  47.758  1.00  0.00     0.001 A 
HETATM    8  C   UNL     1      14.427  53.408  48.592  1.00  0.00     0.276 C 
HETATM    9  C   UNL     1      13.405  56.945  47.633  1.00  0.00     0.037 A 
HETATM   10  C   UNL     1      13.441  56.886  46.243  1.00  0.00     0.003 A 
HETATM   11  C   UNL     1      13.821  55.704  45.607  1.00  0.00     0.001 A 
HETATM   12  C   UNL     1      14.152  54.572  46.357  1.00  0.00     0.012 A 
ENDROOT
BRANCH   1  13
HETATM   13  C   UNL     1      16.241  52.227  49.907  1.00  0.00     0.273 C 
BRANCH  13  14
HETATM   14  C   UNL     1      17.659  51.866  49.559  1.00  0.00    -0.032 A 
HETATM   15  C   UNL     1      18.263  50.704  50.050  1.00  0.00     0.011 A 
HETATM   16  C   UNL     1      19.561  50.353  49.647  1.00  0.00     0.030 A 
HETATM   17  C   UNL     1      20.273  51.148  48.746  1.00  0.00     0.034 A 
HETATM   18  C   UNL     1      19.677  52.322  48.275  1.00  0.00     0.030 A 
HETATM   19  C   UNL     1      18.385  52.677  48.675  1.00  0.00     0.011 A 
BRANCH  17  20
HETATM   20  N   UNL     1      21.552  50.833  48.245  1.00  0.00    -0.328 N 
HETATM   21  C   UNL     1      22.749  50.826  48.939  1.00  0.00     0.218 C 
HETATM   22  C   UNL     1      23.906  50.328  48.107  1.00  0.00     0.117 C 
HETATM   23  O   UNL     1      22.910  51.145  50.112  1.00  0.00    -0.274 OA
HETATM   24  H   UNL     1      21.594  50.543  47.275  1.00  0.00     0.169 HD
ENDBRANCH  17  20
ENDBRANCH  13  14
ENDBRANCH   1  13
BRANCH   4  25
HETATM   25  C   UNL     1      15.128  56.828  51.455  1.00  0.00     0.006 A 
HETATM   26  C   UNL     1      15.072  58.229  51.343  1.00  0.00     0.077 A 
HETATM   27  C   UNL     1      15.130  59.028  52.490  1.00  0.00     0.037 A 
HETATM   28  C   UNL     1      15.201  58.444  53.755  1.00  0.00     0.003 A 
HETATM   29  C   UNL     1      15.205  57.060  53.882  1.00  0.00     0.001 A 
HETATM   30  C   UNL     1      15.160  56.258  52.743  1.00  0.00     0.012 A 
BRANCH  26  31
HETATM   31  O   UNL     1      15.000  58.748  50.075  1.00  0.00    -0.355 OA
HETATM   32  C   UNL     1      14.008  59.758  49.890  1.00  0.00     0.210 C 
ENDBRANCH  26  31
ENDBRANCH   4  25
TORSDOF 5
ENDMDL
MODEL 4
REMARK VINA RESULT:      -8.8      3.302      8.837
REMARK  5 active torsions:
REMARK  status: ('A' for Active; 'I' for Inactive)
REMARK       I    between atoms: C_2  and  N_3 
REMARK    1  A    between atoms: N_3  and  C_4 
REMARK    2  A    between atoms: C_7  and  C_8 
REMARK    3  A    between atoms: C_8  and  N_9 
REMARK    4  A    between atoms: C_12  and  C_13 
REMARK    5  A    between atoms: C_14  and  O_15 
ROOT
HETATM    1  N   UNL     1      26.189  43.473  52.023  1.00  0.00    -0.060 N 
HETATM    2  H   UNL     1      26.783  44.250  51.712  1.00  0.00     0.280 HD
HETATM    3  C   UNL     1      26.696  42.175  51.372  1.00  0.00     0.272 C 
HETATM    4  C   UNL     1      28.146  41.778  51.732  1.00  0.00     0.190 C 
HETATM    5  O   UNL     1      28.234  41.437  53.126  1.00  0.00    -0.339 OA
HETATM    6  C   UNL     1      28.600  42.542  53.844  1.00  0.00     0.077 A 
HETATM    7  C   UNL     1      27.682  43.576  54.046  1.00  0.00     0.001 A 
HETATM    8  C   UNL     1      26.277  43.447  53.536  1.00  0.00     0.276 C 
HETATM    9  C   UNL     1      29.893  42.599  54.355  1.00  0.00     0.037 A 
HETATM   10  C   UNL     1      30.303  43.732  55.050  1.00  0.00     0.003 A 
HETATM   11  C   UNL     1      29.415  44.792  55.237  1.00  0.00     0.001 A 
HETATM   12  C   UNL     1      28.109  44.715  54.743  1.00  0.00     0.012 A 
ENDROOT
BRANCH   1  13
HETATM   13  C   UNL     1      24.787  43.735  51.508  1.00  0.00     0.273 C 
BRANCH  13  14
HETATM   14  C   UNL     1      24.555  45.029  50.778  1.00  0.00    -0.032 A 
HETATM   15  C   UNL     1      23.757  45.093  49.630  1.00  0.00     0.011 A 
HETATM   16  C   UNL     1      23.495  46.326  49.014  1.00  0.00     0.030 A 
HETATM   17  C   UNL     1      24.017  47.513  49.533  1.00  0.00     0.034 A 
HETATM   18  C   UNL     1      24.835  47.446  50.665  1.00  0.00     0.030 A 
HETATM   19  C   UNL     1      25.101  46.219  51.282  1.00  0.00     0.011 A 
BRANCH  17  20
HETATM   20  N   UNL     1      23.750  48.795  49.012  1.00  0.00    -0.328 N 
HETATM   21  C   UNL     1      22.549  49.481  49.039  1.00  0.00     0.218 C 
HETATM   22  C   UNL     1      22.660  50.881  48.484  1.00  0.00     0.117 C 
HETATM   23  O   UNL     1      21.485  49.064  49.484  1.00  0.00    -0.274 OA
HETATM   24  H   UNL     1      24.537  49.286  48.604  1.00  0.00     0.169 HD
ENDBRANCH  17  20
ENDBRANCH  13  14
ENDBRANCH   1  13
BRANCH   4  25
HETATM   25  C   UNL     1      28.567  40.541  50.949  1.00  0.00     0.006 A 
HETATM   26  C   UNL     1      28.375  40.465  49.557  1.00  0.00     0.077 A 
HETATM   27  C   UNL     1      28.726  39.302  48.862  1.00  0.00     0.037 A 
HETATM   28  C   UNL     1      29.308  38.226  49.533  1.00  0.00     0.003 A 
HETATM   29  C   UNL     1      29.551  38.309  50.899  1.00  0.00     0.001 A 
HETATM   30  C   UNL     1      29.193  39.459  51.600  1.00  0.00     0.012 A 
BRANCH  26  31
HETATM   31  O   UNL     1      27.801  41.553  48.950  1.00  0.00    -0.355 OA
HETATM   32  C   UNL     1      27.175  41.286  47.695  1.00  0.00     0.210 C 
ENDBRANCH  26  31
ENDBRANCH   4  25
TORSDOF 5
ENDMDL
MODEL 5
REMARK VINA RESULT:      -8.6      4.508      8.908
REMARK  5 active torsions:
REMARK  status: ('A' for Active; 'I' for Inactive)
REMARK       I    between atoms: C_2  and  N_3 
REMARK    1  A    between atoms: N_3  and  C_4 
REMARK    2  A    between atoms: C_7  and  C_8 
REMARK    3  A    between atoms: C_8  and  N_9 
REMARK    4  A    between atoms: C_12  and  C_13 
REMARK    5  A    between atoms: C_14  and  O_15 
ROOT
HETATM    1  N   UNL     1      28.033  41.592  51.215  1.00  0.00    -0.060 N 
HETATM    2  H   UNL     1      28.240  42.264  50.468  1.00  0.00     0.280 HD
HETATM    3  C   UNL     1      28.743  42.051  52.499  1.00  0.00     0.272 C 
HETATM    4  C   UNL     1      28.311  43.435  53.035  1.00  0.00     0.190 C 
HETATM    5  O   UNL     1      26.944  43.388  53.480  1.00  0.00    -0.339 OA
HETATM    6  C   UNL     1      26.120  43.778  52.461  1.00  0.00     0.077 A 
HETATM    7  C   UNL     1      25.906  42.927  51.374  1.00  0.00     0.001 A 
HETATM    8  C   UNL     1      26.524  41.560  51.355  1.00  0.00     0.276 C 
HETATM    9  C   UNL     1      25.514  45.029  52.544  1.00  0.00     0.037 A 
HETATM   10  C   UNL     1      24.707  45.466  51.498  1.00  0.00     0.003 A 
HETATM   11  C   UNL     1      24.504  44.647  50.387  1.00  0.00     0.001 A 
HETATM   12  C   UNL     1      25.095  43.382  50.325  1.00  0.00     0.012 A 
ENDROOT
BRANCH   1  13
HETATM   13  C   UNL     1      28.626  40.257  50.806  1.00  0.00     0.273 C 
BRANCH  13  14
HETATM   14  C   UNL     1      28.436  39.830  49.377  1.00  0.00    -0.032 A 
HETATM   15  C   UNL     1      28.298  38.483  49.024  1.00  0.00     0.011 A 
HETATM   16  C   UNL     1      28.045  38.120  47.692  1.00  0.00     0.030 A 
HETATM   17  C   UNL     1      27.917  39.089  46.695  1.00  0.00     0.034 A 
HETATM   18  C   UNL     1      28.079  40.433  47.044  1.00  0.00     0.030 A 
HETATM   19  C   UNL     1      28.334  40.801  48.369  1.00  0.00     0.011 A 
BRANCH  17  20
HETATM   20  N   UNL     1      27.601  38.810  45.350  1.00  0.00    -0.328 N 
HETATM   21  C   UNL     1      28.346  38.074  44.447  1.00  0.00     0.218 C 
HETATM   22  C   UNL     1      27.644  37.885  43.123  1.00  0.00     0.117 C 
HETATM   23  O   UNL     1      29.447  37.572  44.650  1.00  0.00    -0.274 OA
HETATM   24  H   UNL     1      26.709  39.157  45.019  1.00  0.00     0.169 HD
ENDBRANCH  17  20
ENDBRANCH  13  14
ENDBRANCH   1  13
BRANCH   4  25
HETATM   25  C   UNL     1      29.154  43.823  54.243  1.00  0.00     0.006 A 
HETATM   26  C   UNL     1      29.000  45.078  54.859  1.00  0.00     0.077 A 
HETATM   27  C   UNL     1      29.815  45.435  55.939  1.00  0.00     0.037 A 
HETATM   28  C   UNL     1      30.756  44.537  56.442  1.00  0.00     0.003 A 
HETATM   29  C   UNL     1      30.883  43.274  55.875  1.00  0.00     0.001 A 
HETATM   30  C   UNL     1      30.083  42.916  54.791  1.00  0.00     0.012 A 
BRANCH  26  31
HETATM   31  O   UNL     1      28.057  45.920  54.325  1.00  0.00    -0.355 OA
HETATM   32  C   UNL     1      27.783  47.089  55.098  1.00  0.00     0.210 C 
ENDBRANCH  26  31
ENDBRANCH   4  25
TORSDOF 5
ENDMDL
MODEL 6
REMARK VINA RESULT:      -8.5      3.523      8.829
REMARK  5 active torsions:
REMARK  status: ('A' for Active; 'I' for Inactive)
REMARK       I    between atoms: C_2  and  N_3 
REMARK    1  A    between atoms: N_3  and  C_4 
REMARK    2  A    between atoms: C_7  and  C_8 
REMARK    3  A    between atoms: C_8  and  N_9 
REMARK    4  A    between atoms: C_12  and  C_13 
REMARK    5  A    between atoms: C_14  and  O_15 
ROOT
HETATM    1  N   UNL     1      25.795  43.122  49.971  1.00  0.00    -0.060 N 
HETATM    2  H   UNL     1      26.516  43.801  49.702  1.00  0.00     0.280 HD
HETATM    3  C   UNL     1      26.155  41.757  49.361  1.00  0.00     0.272 C 
HETATM    4  C   UNL     1      27.502  41.159  49.826  1.00  0.00     0.190 C 
HETATM    5  O   UNL     1      27.439  40.827  51.224  1.00  0.00    -0.339 OA
HETATM    6  C   UNL     1      27.909  41.875  51.964  1.00  0.00     0.077 A 
HETATM    7  C   UNL     1      27.140  43.034  52.097  1.00  0.00     0.001 A 
HETATM    8  C   UNL     1      25.770  43.103  51.486  1.00  0.00     0.276 C 
HETATM    9  C   UNL     1      29.157  41.752  52.568  1.00  0.00     0.037 A 
HETATM   10  C   UNL     1      29.676  42.823  53.288  1.00  0.00     0.003 A 
HETATM   11  C   UNL     1      28.940  44.002  53.407  1.00  0.00     0.001 A 
HETATM   12  C   UNL     1      27.676  44.108  52.820  1.00  0.00     0.012 A 
ENDROOT
BRANCH   1  13
HETATM   13  C   UNL     1      24.487  43.578  49.354  1.00  0.00     0.273 C 
BRANCH  13  14
HETATM   14  C   UNL     1      24.150  45.040  49.460  1.00  0.00    -0.032 A 
HETATM   15  C   UNL     1      24.974  45.935  50.151  1.00  0.00     0.011 A 
HETATM   16  C   UNL     1      24.676  47.306  50.168  1.00  0.00     0.030 A 
HETATM   17  C   UNL     1      23.560  47.807  49.493  1.00  0.00     0.034 A 
HETATM   18  C   UNL     1      22.725  46.908  48.823  1.00  0.00     0.030 A 
HETATM   19  C   UNL     1      23.016  45.541  48.805  1.00  0.00     0.011 A 
BRANCH  17  20
HETATM   20  N   UNL     1      23.228  49.174  49.409  1.00  0.00    -0.328 N 
HETATM   21  C   UNL     1      23.516  50.047  48.375  1.00  0.00     0.218 C 
HETATM   22  C   UNL     1      22.906  51.414  48.575  1.00  0.00     0.117 C 
HETATM   23  O   UNL     1      24.160  49.789  47.363  1.00  0.00    -0.274 OA
HETATM   24  H   UNL     1      22.685  49.551  50.176  1.00  0.00     0.169 HD
ENDBRANCH  17  20
ENDBRANCH  13  14
ENDBRANCH   1  13
BRANCH   4  25
HETATM   25  C   UNL     1      27.794  39.864  49.079  1.00  0.00     0.006 A 
HETATM   26  C   UNL     1      28.192  39.882  47.729  1.00  0.00     0.077 A 
HETATM   27  C   UNL     1      28.412  38.680  47.046  1.00  0.00     0.037 A 
HETATM   28  C   UNL     1      28.281  37.458  47.705  1.00  0.00     0.003 A 
HETATM   29  C   UNL     1      27.939  37.429  49.052  1.00  0.00     0.001 A 
HETATM   30  C   UNL     1      27.706  38.621  49.736  1.00  0.00     0.012 A 
BRANCH  26  31
HETATM   31  O   UNL     1      28.308  41.111  47.133  1.00  0.00    -0.355 OA
HETATM   32  C   UNL     1      28.193  41.107  45.709  1.00  0.00     0.210 C 
ENDBRANCH  26  31
ENDBRANCH   4  25
TORSDOF 5
ENDMDL
MODEL 7
REMARK VINA RESULT:      -8.5      4.401      9.859
REMARK  5 active torsions:
REMARK  status: ('A' for Active; 'I' for Inactive)
REMARK       I    between atoms: C_2  and  N_3 
REMARK    1  A    between atoms: N_3  and  C_4 
REMARK    2  A    between atoms: C_7  and  C_8 
REMARK    3  A    between atoms: C_8  and  N_9 
REMARK    4  A    between atoms: C_12  and  C_13 
REMARK    5  A    between atoms: C_14  and  O_15 
ROOT
HETATM    1  N   UNL     1      22.442  47.840  47.962  1.00  0.00    -0.060 N 
HETATM    2  H   UNL     1      22.977  47.873  47.087  1.00  0.00     0.280 HD
HETATM    3  C   UNL     1      22.632  46.456  48.603  1.00  0.00     0.272 C 
HETATM    4  C   UNL     1      24.088  46.095  48.976  1.00  0.00     0.190 C 
HETATM    5  O   UNL     1      24.555  46.952  50.032  1.00  0.00    -0.339 OA
HETATM    6  C   UNL     1      25.201  48.030  49.493  1.00  0.00     0.077 A 
HETATM    7  C   UNL     1      24.468  49.035  48.858  1.00  0.00     0.001 A 
HETATM    8  C   UNL     1      22.968  48.968  48.827  1.00  0.00     0.276 C 
HETATM    9  C   UNL     1      26.588  48.088  49.596  1.00  0.00     0.037 A 
HETATM   10  C   UNL     1      27.271  49.152  49.015  1.00  0.00     0.003 A 
HETATM   11  C   UNL     1      26.563  50.152  48.348  1.00  0.00     0.001 A 
HETATM   12  C   UNL     1      25.168  50.099  48.272  1.00  0.00     0.012 A 
ENDROOT
BRANCH   1  13
HETATM   13  C   UNL     1      20.975  47.991  47.606  1.00  0.00     0.273 C 
BRANCH  13  14
HETATM   14  C   UNL     1      20.243  49.166  48.194  1.00  0.00    -0.032 A 
HETATM   15  C   UNL     1      20.302  50.436  47.611  1.00  0.00     0.011 A 
HETATM   16  C   UNL     1      19.548  51.496  48.137  1.00  0.00     0.030 A 
HETATM   17  C   UNL     1      18.719  51.306  49.245  1.00  0.00     0.034 A 
HETATM   18  C   UNL     1      18.679  50.043  49.842  1.00  0.00     0.030 A 
HETATM   19  C   UNL     1      19.431  48.984  49.324  1.00  0.00     0.011 A 
BRANCH  17  20
HETATM   20  N   UNL     1      17.883  52.300  49.793  1.00  0.00    -0.328 N 
HETATM   21  C   UNL     1      16.518  52.441  49.619  1.00  0.00     0.218 C 
HETATM   22  C   UNL     1      15.933  53.558  50.450  1.00  0.00     0.117 C 
HETATM   23  O   UNL     1      15.801  51.745  48.908  1.00  0.00    -0.274 OA
HETATM   24  H   UNL     1      18.327  52.964  50.416  1.00  0.00     0.169 HD
ENDBRANCH  17  20
ENDBRANCH  13  14
ENDBRANCH   1  13
BRANCH   4  25
HETATM   25  C   UNL     1      24.163  44.667  49.503  1.00  0.00     0.006 A 
HETATM   26  C   UNL     1      25.402  44.023  49.673  1.00  0.00     0.077 A 
HETATM   27  C   UNL     1      25.449  42.696  50.114  1.00  0.00     0.037 A 
HETATM   28  C   UNL     1      24.274  42.014  50.429  1.00  0.00     0.003 A 
HETATM   29  C   UNL     1      23.046  42.656  50.314  1.00  0.00     0.001 A 
HETATM   30  C   UNL     1      22.991  43.974  49.864  1.00  0.00     0.012 A 
BRANCH  26  31
HETATM   31  O   UNL     1      26.525  44.743  49.351  1.00  0.00    -0.355 OA
HETATM   32  C   UNL     1      27.544  44.753  50.351  1.00  0.00     0.210 C 
ENDBRANCH  26  31
ENDBRANCH   4  25
TORSDOF 5
ENDMDL
MODEL 8
REMARK VINA RESULT:      -8.4      3.450      6.277
REMARK  5 active torsions:
REMARK  status: ('A' for Active; 'I' for Inactive)
REMARK       I    between atoms: C_2  and  N_3 
REMARK    1  A    between atoms: N_3  and  C_4 
REMARK    2  A    between atoms: C_7  and  C_8 
REMARK    3  A    between atoms: C_8  and  N_9 
REMARK    4  A    between atoms: C_12  and  C_13 
REMARK    5  A    between atoms: C_14  and  O_15 
ROOT
HETATM    1  N   UNL     1      23.031  46.773  49.294  1.00  0.00    -0.060 N 
HETATM    2  H   UNL     1      22.582  47.018  50.183  1.00  0.00     0.280 HD
HETATM    3  C   UNL     1      22.023  45.994  48.432  1.00  0.00     0.272 C 
HETATM    4  C   UNL     1      20.735  46.765  48.063  1.00  0.00     0.190 C 
HETATM    5  O   UNL     1      21.049  47.865  47.191  1.00  0.00    -0.339 OA
HETATM    6  C   UNL     1      21.241  48.996  47.934  1.00  0.00     0.077 A 
HETATM    7  C   UNL     1      22.401  49.136  48.702  1.00  0.00     0.001 A 
HETATM    8  C   UNL     1      23.465  48.078  48.659  1.00  0.00     0.276 C 
HETATM    9  C   UNL     1      20.261  49.983  47.900  1.00  0.00     0.037 A 
HETATM   10  C   UNL     1      20.413  51.123  48.684  1.00  0.00     0.003 A 
HETATM   11  C   UNL     1      21.546  51.271  49.483  1.00  0.00     0.001 A 
HETATM   12  C   UNL     1      22.539  50.287  49.491  1.00  0.00     0.012 A 
ENDROOT
BRANCH   1  13
HETATM   13  C   UNL     1      24.189  45.845  49.609  1.00  0.00     0.273 C 
BRANCH  13  14
HETATM   14  C   UNL     1      24.788  45.937  50.985  1.00  0.00    -0.032 A 
HETATM   15  C   UNL     1      24.685  44.887  51.904  1.00  0.00     0.011 A 
HETATM   16  C   UNL     1      25.320  44.971  53.153  1.00  0.00     0.030 A 
HETATM   17  C   UNL     1      26.071  46.095  53.503  1.00  0.00     0.034 A 
HETATM   18  C   UNL     1      26.152  47.154  52.594  1.00  0.00     0.030 A 
HETATM   19  C   UNL     1      25.520  47.077  51.349  1.00  0.00     0.011 A 
BRANCH  17  20
HETATM   20  N   UNL     1      26.789  46.229  54.708  1.00  0.00    -0.328 N 
HETATM   21  C   UNL     1      28.015  45.672  55.023  1.00  0.00     0.218 C 
HETATM   22  C   UNL     1      28.537  46.122  56.366  1.00  0.00     0.117 C 
HETATM   23  O   UNL     1      28.673  44.917  54.315  1.00  0.00    -0.274 OA
HETATM   24  H   UNL     1      26.377  46.832  55.410  1.00  0.00     0.169 HD
ENDBRANCH  17  20
ENDBRANCH  13  14
ENDBRANCH   1  13
BRANCH   4  25
HETATM   25  C   UNL     1      19.775  45.860  47.302  1.00  0.00     0.006 A 
HETATM   26  C   UNL     1      18.394  46.131  47.274  1.00  0.00     0.077 A 
HETATM   27  C   UNL     1      17.521  45.263  46.608  1.00  0.00     0.037 A 
HETATM   28  C   UNL     1      18.014  44.147  45.931  1.00  0.00     0.003 A 
HETATM   29  C   UNL     1      19.381  43.897  45.908  1.00  0.00     0.001 A 
HETATM   30  C   UNL     1      20.256  44.750  46.580  1.00  0.00     0.012 A 
BRANCH  26  31
HETATM   31  O   UNL     1      17.966  47.243  47.954  1.00  0.00    -0.355 OA
HETATM   32  C   UNL     1      16.802  47.051  48.757  1.00  0.00     0.210 C 
ENDBRANCH  26  31
ENDBRANCH   4  25
TORSDOF 5
ENDMDL
MODEL 9
REMARK VINA RESULT:      -8.2      3.284      5.405
REMARK  5 active torsions:
REMARK  status: ('A' for Active; 'I' for Inactive)
REMARK       I    between atoms: C_2  and  N_3 
REMARK    1  A    between atoms: N_3  and  C_4 
REMARK    2  A    between atoms: C_7  and  C_8 
REMARK    3  A    between atoms: C_8  and  N_9 
REMARK    4  A    between atoms: C_12  and  C_13 
REMARK    5  A    between atoms: C_14  and  O_15 
ROOT
HETATM    1  N   UNL     1      25.266  44.516  50.188  1.00  0.00    -0.060 N 
HETATM    2  H   UNL     1      24.504  44.290  50.838  1.00  0.00     0.280 HD
HETATM    3  C   UNL     1      24.907  45.813  49.444  1.00  0.00     0.272 C 
HETATM    4  C   UNL     1      24.721  47.059  50.339  1.00  0.00     0.190 C 
HETATM    5  O   UNL     1      25.975  47.427  50.941  1.00  0.00    -0.339 OA
HETATM    6  C   UNL     1      26.079  46.840  52.171  1.00  0.00     0.077 A 
HETATM    7  C   UNL     1      26.314  45.466  52.270  1.00  0.00     0.001 A 
HETATM    8  C   UNL     1      26.520  44.647  51.029  1.00  0.00     0.276 C 
HETATM    9  C   UNL     1      25.945  47.644  53.300  1.00  0.00     0.037 A 
HETATM   10  C   UNL     1      26.002  47.061  54.563  1.00  0.00     0.003 A 
HETATM   11  C   UNL     1      26.204  45.686  54.685  1.00  0.00     0.001 A 
HETATM   12  C   UNL     1      26.365  44.891  53.547  1.00  0.00     0.012 A 
ENDROOT
BRANCH   1  13
HETATM   13  C   UNL     1      25.342  43.398  49.166  1.00  0.00     0.273 C 
BRANCH  13  14
HETATM   14  C   UNL     1      26.202  42.213  49.508  1.00  0.00    -0.032 A 
HETATM   15  C   UNL     1      27.284  41.835  48.705  1.00  0.00     0.011 A 
HETATM   16  C   UNL     1      28.116  40.772  49.089  1.00  0.00     0.030 A 
HETATM   17  C   UNL     1      27.889  40.075  50.278  1.00  0.00     0.034 A 
HETATM   18  C   UNL     1      26.793  40.438  51.067  1.00  0.00     0.030 A 
HETATM   19  C   UNL     1      25.959  41.495  50.688  1.00  0.00     0.011 A 
BRANCH  17  20
HETATM   20  N   UNL     1      28.713  39.041  50.764  1.00  0.00    -0.328 N 
HETATM   21  C   UNL     1      28.745  37.723  50.343  1.00  0.00     0.218 C 
HETATM   22  C   UNL     1      29.835  36.920  51.011  1.00  0.00     0.117 C 
HETATM   23  O   UNL     1      28.018  37.213  49.497  1.00  0.00    -0.274 OA
HETATM   24  H   UNL     1      29.384  39.300  51.477  1.00  0.00     0.169 HD
ENDBRANCH  17  20
ENDBRANCH  13  14
ENDBRANCH   1  13
BRANCH   4  25
HETATM   25  C   UNL     1      24.268  48.250  49.504  1.00  0.00     0.006 A 
HETATM   26  C   UNL     1      25.188  48.984  48.732  1.00  0.00     0.077 A 
HETATM   27  C   UNL     1      24.762  50.103  48.007  1.00  0.00     0.037 A 
HETATM   28  C   UNL     1      23.417  50.476  48.009  1.00  0.00     0.003 A 
HETATM   29  C   UNL     1      22.490  49.729  48.726  1.00  0.00     0.001 A 
HETATM   30  C   UNL     1      22.910  48.620  49.460  1.00  0.00     0.012 A 
BRANCH  26  31
HETATM   31  O   UNL     1      26.495  48.570  48.765  1.00  0.00    -0.355 OA
HETATM   32  C   UNL     1      27.460  49.619  48.860  1.00  0.00     0.210 C 
ENDBRANCH  26  31
ENDBRANCH   4  25
TORSDOF 5
ENDMDL
MODEL 10
REMARK VINA RESULT:      -8.1      3.338      6.364
REMARK  5 active torsions:
REMARK  status: ('A' for Active; 'I' for Inactive)
REMARK       I    between atoms: C_2  and  N_3 
REMARK    1  A    between atoms: N_3  and  C_4 
REMARK    2  A    between atoms: C_7  and  C_8 
REMARK    3  A    between atoms: C_8  and  N_9 
REMARK    4  A    between atoms: C_12  and  C_13 
REMARK    5  A    between atoms: C_14  and  O_15 
ROOT
HETATM    1  N   UNL     1      23.573  48.086  49.529  1.00  0.00    -0.060 N 
HETATM    2  H   UNL     1      23.088  48.013  50.431  1.00  0.00     0.280 HD
HETATM    3  C   UNL     1      23.055  46.975  48.601  1.00  0.00     0.272 C 
HETATM    4  C   UNL     1      21.544  47.033  48.280  1.00  0.00     0.190 C 
HETATM    5  O   UNL     1      21.249  48.204  47.498  1.00  0.00    -0.339 OA
HETATM    6  C   UNL     1      20.880  49.226  48.328  1.00  0.00     0.077 A 
HETATM    7  C   UNL     1      21.841  49.865  49.116  1.00  0.00     0.001 A 
HETATM    8  C   UNL     1      23.287  49.477  49.001  1.00  0.00     0.276 C 
HETATM    9  C   UNL     1      19.539  49.599  48.361  1.00  0.00     0.037 A 
HETATM   10  C   UNL     1      19.133  50.606  49.231  1.00  0.00     0.003 A 
HETATM   11  C   UNL     1      20.069  51.236  50.051  1.00  0.00     0.001 A 
HETATM   12  C   UNL     1      21.418  50.874  49.992  1.00  0.00     0.012 A 
ENDROOT
BRANCH   1  13
HETATM   13  C   UNL     1      25.046  47.831  49.783  1.00  0.00     0.273 C 
BRANCH  13  14
HETATM   14  C   UNL     1      25.424  46.489  50.346  1.00  0.00    -0.032 A 
HETATM   15  C   UNL     1      26.195  45.577  49.617  1.00  0.00     0.011 A 
HETATM   16  C   UNL     1      26.597  44.363  50.196  1.00  0.00     0.030 A 
HETATM   17  C   UNL     1      26.245  44.044  51.510  1.00  0.00     0.034 A 
HETATM   18  C   UNL     1      25.455  44.945  52.229  1.00  0.00     0.030 A 
HETATM   19  C   UNL     1      25.049  46.154  51.656  1.00  0.00     0.011 A 
BRANCH  17  20
HETATM   20  N   UNL     1      26.662  42.877  52.183  1.00  0.00    -0.328 N 
HETATM   21  C   UNL     1      27.930  42.585  52.653  1.00  0.00     0.218 C 
HETATM   22  C   UNL     1      27.984  41.290  53.427  1.00  0.00     0.117 C 
HETATM   23  O   UNL     1      28.932  43.279  52.518  1.00  0.00    -0.274 OA
HETATM   24  H   UNL     1      25.942  42.192  52.379  1.00  0.00     0.169 HD
ENDBRANCH  17  20
ENDBRANCH  13  14
ENDBRANCH   1  13
BRANCH   4  25
HETATM   25  C   UNL     1      21.133  45.829  47.442  1.00  0.00     0.006 A 
HETATM   26  C   UNL     1      19.831  45.302  47.525  1.00  0.00     0.077 A 
HETATM   27  C   UNL     1      19.485  44.167  46.782  1.00  0.00     0.037 A 
HETATM   28  C   UNL     1      20.411  43.575  45.923  1.00  0.00     0.003 A 
HETATM   29  C   UNL     1      21.684  44.118  45.793  1.00  0.00     0.001 A 
HETATM   30  C   UNL     1      22.040  45.240  46.540  1.00  0.00     0.012 A 
BRANCH  26  31
HETATM   31  O   UNL     1      18.962  45.926  48.383  1.00  0.00    -0.355 OA
HETATM   32  C   UNL     1      17.617  46.028  47.913  1.00  0.00     0.210 C 
ENDBRANCH  26  31
ENDBRANCH   4  25
TORSDOF 5
ENDMDL
