MODEL 1
REMARK VINA RESULT:      -9.0      0.000      0.000
REMARK  8 active torsions:
REMARK  status: ('A' for Active; 'I' for Inactive)
REMARK    1  A    between atoms: C_2  and  O_3 
REMARK    2  A    between atoms: O_3  and  C_4 
REMARK    3  A    between atoms: C_5  and  N_6 
REMARK       I    between atoms: N_6  and  C_7 
REMARK    4  A    between atoms: C_7  and  C_8 
REMARK    5  A    between atoms: C_8  and  C_9 
REMARK    6  A    between atoms: C_9  and  S_10 
REMARK    7  A    between atoms: S_10  and  C_11 
REMARK    8  A    between atoms: N_12  and  C_13 
ROOT
HETATM    1  C   UNL     1      27.310  43.062  50.020  1.00  0.00     0.177 A 
HETATM    2  N   UNL     1      27.600  42.419  51.245  1.00  0.00    -0.274 N 
HETATM    3  C   UNL     1      27.907  41.008  51.208  1.00  0.00     0.124 A 
HETATM    4  N   UNL     1      28.231  40.307  52.277  1.00  0.00    -0.384 N 
HETATM    5  H   UNL     1      28.445  39.323  52.207  1.00  0.00     0.157 HD
HETATM    6  H   UNL     1      28.271  40.745  53.188  1.00  0.00     0.157 HD
HETATM    7  C   UNL     1      27.868  40.384  49.923  1.00  0.00     0.081 A 
HETATM    8  C   UNL     1      27.578  41.168  48.813  1.00  0.00     0.187 A 
HETATM    9  N   UNL     1      27.569  40.472  47.685  1.00  0.00    -0.153 NA
HETATM   10  N   UNL     1      27.856  39.221  48.088  1.00  0.00    -0.280 N 
HETATM   11  H   UNL     1      27.901  38.494  47.380  1.00  0.00     0.189 HD
HETATM   12  C   UNL     1      28.042  39.104  49.452  1.00  0.00     0.042 A 
HETATM   13  C   UNL     1      28.342  37.801  50.081  1.00  0.00     0.071 C 
HETATM   14  N   UNL     1      27.300  42.525  48.835  1.00  0.00    -0.202 NA
ENDROOT
BRANCH   1  15
HETATM   15  S   UNL     1      26.916  44.810  50.032  1.00  0.00    -0.091 SA
BRANCH  15  16
HETATM   16  C   UNL     1      25.174  44.778  49.473  1.00  0.00     0.091 C 
BRANCH  16  17
HETATM   17  C   UNL     1      24.250  45.467  50.469  1.00  0.00     0.113 C 
BRANCH  17  18
HETATM   18  C   UNL     1      24.200  46.968  50.257  1.00  0.00     0.223 C 
HETATM   19  N   UNL     1      23.219  47.356  49.371  1.00  0.00    -0.325 N 
HETATM   20  H   UNL     1      22.635  46.628  48.970  1.00  0.00     0.169 HD
HETATM   21  O   UNL     1      24.997  47.704  50.832  1.00  0.00    -0.273 OA
BRANCH  19  22
HETATM   22  C   UNL     1      22.882  48.664  48.963  1.00  0.00     0.068 A 
HETATM   23  C   UNL     1      21.526  49.031  49.015  1.00  0.00     0.095 A 
HETATM   24  C   UNL     1      21.110  50.323  48.690  1.00  0.00     0.039 A 
HETATM   25  C   UNL     1      22.048  51.259  48.265  1.00  0.00     0.003 A 
HETATM   26  C   UNL     1      23.393  50.901  48.178  1.00  0.00     0.002 A 
HETATM   27  C   UNL     1      23.810  49.610  48.527  1.00  0.00     0.032 A 
BRANCH  23  28
HETATM   28  O   UNL     1      20.571  48.125  49.415  1.00  0.00    -0.349 OA
BRANCH  28  29
HETATM   29  C   UNL     1      19.283  48.756  49.482  1.00  0.00     0.171 C 
HETATM   30  C   UNL     1      18.700  48.516  50.862  1.00  0.00     0.034 C 
ENDBRANCH  28  29
ENDBRANCH  23  28
ENDBRANCH  19  22
ENDBRANCH  17  18
ENDBRANCH  16  17
ENDBRANCH  15  16
ENDBRANCH   1  15
BRANCH   2  31
HETATM   31  C   UNL     1      27.481  43.101  52.496  1.00  0.00     0.065 A 
HETATM   32  C   UNL     1      28.617  43.507  53.226  1.00  0.00     0.061 A 
HETATM   33 CL   UNL     1      30.214  43.144  52.675  1.00  0.00    -0.082 Cl
HETATM   34  C   UNL     1      28.480  44.229  54.413  1.00  0.00     0.026 A 
HETATM   35  C   UNL     1      27.210  44.554  54.888  1.00  0.00     0.002 A 
HETATM   36  C   UNL     1      26.077  44.159  54.178  1.00  0.00     0.002 A 
HETATM   37  C   UNL     1      26.209  43.441  52.986  1.00  0.00     0.032 A 
ENDBRANCH   2  31
TORSDOF 8
ENDMDL
MODEL 2
REMARK VINA RESULT:      -9.0     11.007     13.495
REMARK  8 active torsions:
REMARK  status: ('A' for Active; 'I' for Inactive)
REMARK    1  A    between atoms: C_2  and  O_3 
REMARK    2  A    between atoms: O_3  and  C_4 
REMARK    3  A    between atoms: C_5  and  N_6 
REMARK       I    between atoms: N_6  and  C_7 
REMARK    4  A    between atoms: C_7  and  C_8 
REMARK    5  A    between atoms: C_8  and  C_9 
REMARK    6  A    between atoms: C_9  and  S_10 
REMARK    7  A    between atoms: S_10  and  C_11 
REMARK    8  A    between atoms: N_12  and  C_13 
ROOT
HETATM    1  C   UNL     1      27.420  49.637  39.504  1.00  0.00     0.177 A 
HETATM    2  N   UNL     1      27.798  48.544  40.316  1.00  0.00    -0.274 N 
HETATM    3  C   UNL     1      26.760  47.638  40.750  1.00  0.00     0.124 A 
HETATM    4  N   UNL     1      26.992  46.562  41.477  1.00  0.00    -0.384 N 
HETATM    5  H   UNL     1      26.237  45.951  41.754  1.00  0.00     0.157 HD
HETATM    6  H   UNL     1      27.932  46.331  41.770  1.00  0.00     0.157 HD
HETATM    7  C   UNL     1      25.430  47.948  40.329  1.00  0.00     0.081 A 
HETATM    8  C   UNL     1      25.234  49.059  39.516  1.00  0.00     0.187 A 
HETATM    9  N   UNL     1      23.960  49.240  39.199  1.00  0.00    -0.153 NA
HETATM   10  N   UNL     1      23.335  48.226  39.825  1.00  0.00    -0.280 N 
HETATM   11  H   UNL     1      22.326  48.158  39.727  1.00  0.00     0.189 HD
HETATM   12  C   UNL     1      24.185  47.404  40.540  1.00  0.00     0.042 A 
HETATM   13  C   UNL     1      23.676  46.251  41.311  1.00  0.00     0.071 C 
HETATM   14  N   UNL     1      26.224  49.923  39.080  1.00  0.00    -0.202 NA
ENDROOT
BRANCH   1  15
HETATM   15  S   UNL     1      28.682  50.785  38.956  1.00  0.00    -0.091 SA
BRANCH  15  16
HETATM   16  C   UNL     1      28.482  52.132  40.178  1.00  0.00     0.091 C 
BRANCH  16  17
HETATM   17  C   UNL     1      29.336  53.343  39.826  1.00  0.00     0.113 C 
BRANCH  17  18
HETATM   18  C   UNL     1      30.558  53.458  40.718  1.00  0.00     0.223 C 
HETATM   19  N   UNL     1      30.854  52.288  41.381  1.00  0.00    -0.325 N 
HETATM   20  H   UNL     1      30.257  51.485  41.205  1.00  0.00     0.169 HD
HETATM   21  O   UNL     1      31.163  54.522  40.809  1.00  0.00    -0.273 OA
BRANCH  19  22
HETATM   22  C   UNL     1      31.925  52.035  42.265  1.00  0.00     0.068 A 
HETATM   23  C   UNL     1      33.132  51.579  41.708  1.00  0.00     0.095 A 
HETATM   24  C   UNL     1      34.262  51.363  42.499  1.00  0.00     0.039 A 
HETATM   25  C   UNL     1      34.183  51.563  43.875  1.00  0.00     0.003 A 
HETATM   26  C   UNL     1      32.983  51.985  44.446  1.00  0.00     0.002 A 
HETATM   27  C   UNL     1      31.859  52.223  43.646  1.00  0.00     0.032 A 
BRANCH  23  28
HETATM   28  O   UNL     1      33.239  51.355  40.355  1.00  0.00    -0.349 OA
BRANCH  28  29
HETATM   29  C   UNL     1      34.463  51.911  39.853  1.00  0.00     0.171 C 
HETATM   30  C   UNL     1      34.174  53.290  39.292  1.00  0.00     0.034 C 
ENDBRANCH  28  29
ENDBRANCH  23  28
ENDBRANCH  19  22
ENDBRANCH  17  18
ENDBRANCH  16  17
ENDBRANCH  15  16
ENDBRANCH   1  15
BRANCH   2  31
HETATM   31  C   UNL     1      29.136  48.394  40.797  1.00  0.00     0.065 A 
HETATM   32  C   UNL     1      30.148  47.827  39.996  1.00  0.00     0.061 A 
HETATM   33 CL   UNL     1      29.808  47.224  38.412  1.00  0.00    -0.082 Cl
HETATM   34  C   UNL     1      31.463  47.748  40.459  1.00  0.00     0.026 A 
HETATM   35  C   UNL     1      31.785  48.232  41.727  1.00  0.00     0.002 A 
HETATM   36  C   UNL     1      30.795  48.796  42.530  1.00  0.00     0.002 A 
HETATM   37  C   UNL     1      29.479  48.882  42.069  1.00  0.00     0.032 A 
ENDBRANCH   2  31
TORSDOF 8
ENDMDL
MODEL 3
REMARK VINA RESULT:      -8.9      3.202      5.475
REMARK  8 active torsions:
REMARK  status: ('A' for Active; 'I' for Inactive)
REMARK    1  A    between atoms: C_2  and  O_3 
REMARK    2  A    between atoms: O_3  and  C_4 
REMARK    3  A    between atoms: C_5  and  N_6 
REMARK       I    between atoms: N_6  and  C_7 
REMARK    4  A    between atoms: C_7  and  C_8 
REMARK    5  A    between atoms: C_8  and  C_9 
REMARK    6  A    between atoms: C_9  and  S_10 
REMARK    7  A    between atoms: S_10  and  C_11 
REMARK    8  A    between atoms: N_12  and  C_13 
ROOT
HETATM    1  C   UNL     1      24.689  46.555  51.016  1.00  0.00     0.177 A 
HETATM    2  N   UNL     1      24.805  45.164  51.240  1.00  0.00    -0.274 N 
HETATM    3  C   UNL     1      25.476  44.730  52.443  1.00  0.00     0.124 A 
HETATM    4  N   UNL     1      25.612  43.462  52.782  1.00  0.00    -0.384 N 
HETATM    5  H   UNL     1      26.084  43.202  53.636  1.00  0.00     0.157 HD
HETATM    6  H   UNL     1      25.246  42.728  52.190  1.00  0.00     0.157 HD
HETATM    7  C   UNL     1      25.983  45.761  53.293  1.00  0.00     0.081 A 
HETATM    8  C   UNL     1      25.770  47.085  52.930  1.00  0.00     0.187 A 
HETATM    9  N   UNL     1      26.291  47.942  53.796  1.00  0.00    -0.153 NA
HETATM   10  N   UNL     1      26.849  47.144  54.726  1.00  0.00    -0.280 N 
HETATM   11  H   UNL     1      27.323  47.588  55.508  1.00  0.00     0.189 HD
HETATM   12  C   UNL     1      26.699  45.796  54.467  1.00  0.00     0.042 A 
HETATM   13  C   UNL     1      27.266  44.769  55.366  1.00  0.00     0.071 C 
HETATM   14  N   UNL     1      25.112  47.512  51.788  1.00  0.00    -0.202 NA
ENDROOT
BRANCH   1  15
HETATM   15  S   UNL     1      23.870  47.126  49.528  1.00  0.00    -0.091 SA
BRANCH  15  16
HETATM   16  C   UNL     1      24.748  48.704  49.232  1.00  0.00     0.091 C 
BRANCH  16  17
HETATM   17  C   UNL     1      24.001  49.586  48.239  1.00  0.00     0.113 C 
BRANCH  17  18
HETATM   18  C   UNL     1      22.900  50.390  48.906  1.00  0.00     0.223 C 
HETATM   19  N   UNL     1      21.651  50.128  48.388  1.00  0.00    -0.325 N 
HETATM   20  H   UNL     1      21.586  49.437  47.647  1.00  0.00     0.169 HD
HETATM   21  O   UNL     1      23.169  51.191  49.796  1.00  0.00    -0.273 OA
BRANCH  19  22
HETATM   22  C   UNL     1      20.412  50.676  48.785  1.00  0.00     0.068 A 
HETATM   23  C   UNL     1      19.576  49.877  49.584  1.00  0.00     0.095 A 
HETATM   24  C   UNL     1      18.361  50.361  50.073  1.00  0.00     0.039 A 
HETATM   25  C   UNL     1      17.946  51.645  49.731  1.00  0.00     0.003 A 
HETATM   26  C   UNL     1      18.751  52.438  48.914  1.00  0.00     0.002 A 
HETATM   27  C   UNL     1      19.980  51.957  48.444  1.00  0.00     0.032 A 
BRANCH  23  28
HETATM   28  O   UNL     1      19.948  48.598  49.926  1.00  0.00    -0.349 OA
BRANCH  28  29
HETATM   29  C   UNL     1      19.147  47.640  49.218  1.00  0.00     0.171 C 
HETATM   30  C   UNL     1      20.059  46.806  48.338  1.00  0.00     0.034 C 
ENDBRANCH  28  29
ENDBRANCH  23  28
ENDBRANCH  19  22
ENDBRANCH  17  18
ENDBRANCH  16  17
ENDBRANCH  15  16
ENDBRANCH   1  15
BRANCH   2  31
HETATM   31  C   UNL     1      24.383  44.210  50.262  1.00  0.00     0.065 A 
HETATM   32  C   UNL     1      25.309  43.545  49.432  1.00  0.00     0.061 A 
HETATM   33 CL   UNL     1      26.999  43.896  49.511  1.00  0.00    -0.082 Cl
HETATM   34  C   UNL     1      24.882  42.569  48.528  1.00  0.00     0.026 A 
HETATM   35  C   UNL     1      23.529  42.247  48.439  1.00  0.00     0.002 A 
HETATM   36  C   UNL     1      22.601  42.896  49.253  1.00  0.00     0.002 A 
HETATM   37  C   UNL     1      23.023  43.869  50.163  1.00  0.00     0.032 A 
ENDBRANCH   2  31
TORSDOF 8
ENDMDL
MODEL 4
REMARK VINA RESULT:      -8.8      4.410      9.569
REMARK  8 active torsions:
REMARK  status: ('A' for Active; 'I' for Inactive)
REMARK    1  A    between atoms: C_2  and  O_3 
REMARK    2  A    between atoms: O_3  and  C_4 
REMARK    3  A    between atoms: C_5  and  N_6 
REMARK       I    between atoms: N_6  and  C_7 
REMARK    4  A    between atoms: C_7  and  C_8 
REMARK    5  A    between atoms: C_8  and  C_9 
REMARK    6  A    between atoms: C_9  and  S_10 
REMARK    7  A    between atoms: S_10  and  C_11 
REMARK    8  A    between atoms: N_12  and  C_13 
ROOT
HETATM    1  C   UNL     1      21.567  48.301  47.999  1.00  0.00     0.177 A 
HETATM    2  N   UNL     1      20.231  48.689  47.745  1.00  0.00    -0.274 N 
HETATM    3  C   UNL     1      19.494  47.950  46.746  1.00  0.00     0.124 A 
HETATM    4  N   UNL     1      18.232  48.192  46.449  1.00  0.00    -0.384 N 
HETATM    5  H   UNL     1      17.751  47.647  45.748  1.00  0.00     0.157 HD
HETATM    6  H   UNL     1      17.723  48.929  46.920  1.00  0.00     0.157 HD
HETATM    7  C   UNL     1      20.200  46.898  46.087  1.00  0.00     0.081 A 
HETATM    8  C   UNL     1      21.511  46.637  46.468  1.00  0.00     0.187 A 
HETATM    9  N   UNL     1      22.054  45.643  45.781  1.00  0.00    -0.153 NA
HETATM   10  N   UNL     1      21.069  45.267  44.945  1.00  0.00    -0.280 N 
HETATM   11  H   UNL     1      21.258  44.503  44.301  1.00  0.00     0.189 HD
HETATM   12  C   UNL     1      19.910  46.005  45.081  1.00  0.00     0.042 A 
HETATM   13  C   UNL     1      18.728  45.752  44.231  1.00  0.00     0.071 C 
HETATM   14  N   UNL     1      22.221  47.328  47.437  1.00  0.00    -0.202 NA
ENDROOT
BRANCH   1  15
HETATM   15  S   UNL     1      22.512  49.203  49.225  1.00  0.00    -0.091 SA
BRANCH  15  16
HETATM   16  C   UNL     1      24.101  48.297  49.174  1.00  0.00     0.091 C 
BRANCH  16  17
HETATM   17  C   UNL     1      24.164  47.211  50.240  1.00  0.00     0.113 C 
BRANCH  17  18
HETATM   18  C   UNL     1      25.423  47.309  51.081  1.00  0.00     0.223 C 
HETATM   19  N   UNL     1      25.335  46.616  52.268  1.00  0.00    -0.325 N 
HETATM   20  H   UNL     1      24.474  46.111  52.454  1.00  0.00     0.169 HD
HETATM   21  O   UNL     1      26.379  47.974  50.693  1.00  0.00    -0.273 OA
BRANCH  19  22
HETATM   22  C   UNL     1      26.320  46.476  53.269  1.00  0.00     0.068 A 
HETATM   23  C   UNL     1      26.922  45.214  53.415  1.00  0.00     0.095 A 
HETATM   24  C   UNL     1      27.949  45.002  54.337  1.00  0.00     0.039 A 
HETATM   25  C   UNL     1      28.358  46.047  55.160  1.00  0.00     0.003 A 
HETATM   26  C   UNL     1      27.748  47.296  55.049  1.00  0.00     0.002 A 
HETATM   27  C   UNL     1      26.735  47.511  54.106  1.00  0.00     0.032 A 
BRANCH  23  28
HETATM   28  O   UNL     1      26.530  44.156  52.629  1.00  0.00    -0.349 OA
BRANCH  28  29
HETATM   29  C   UNL     1      27.614  43.728  51.791  1.00  0.00     0.171 C 
HETATM   30  C   UNL     1      27.460  44.382  50.431  1.00  0.00     0.034 C 
ENDBRANCH  28  29
ENDBRANCH  23  28
ENDBRANCH  19  22
ENDBRANCH  17  18
ENDBRANCH  16  17
ENDBRANCH  15  16
ENDBRANCH   1  15
BRANCH   2  31
HETATM   31  C   UNL     1      19.656  49.844  48.362  1.00  0.00     0.065 A 
HETATM   32  C   UNL     1      18.901  49.747  49.548  1.00  0.00     0.061 A 
HETATM   33 CL   UNL     1      18.577  48.218  50.284  1.00  0.00    -0.082 Cl
HETATM   34  C   UNL     1      18.402  50.894  50.171  1.00  0.00     0.026 A 
HETATM   35  C   UNL     1      18.649  52.150  49.617  1.00  0.00     0.002 A 
HETATM   36  C   UNL     1      19.395  52.261  48.444  1.00  0.00     0.002 A 
HETATM   37  C   UNL     1      19.900  51.117  47.821  1.00  0.00     0.032 A 
ENDBRANCH   2  31
TORSDOF 8
ENDMDL
MODEL 5
REMARK VINA RESULT:      -8.7      1.365      2.501
REMARK  8 active torsions:
REMARK  status: ('A' for Active; 'I' for Inactive)
REMARK    1  A    between atoms: C_2  and  O_3 
REMARK    2  A    between atoms: O_3  and  C_4 
REMARK    3  A    between atoms: C_5  and  N_6 
REMARK       I    between atoms: N_6  and  C_7 
REMARK    4  A    between atoms: C_7  and  C_8 
REMARK    5  A    between atoms: C_8  and  C_9 
REMARK    6  A    between atoms: C_9  and  S_10 
REMARK    7  A    between atoms: S_10  and  C_11 
REMARK    8  A    between atoms: N_12  and  C_13 
ROOT
HETATM    1  C   UNL     1      26.472  43.524  49.943  1.00  0.00     0.177 A 
HETATM    2  N   UNL     1      26.716  42.810  51.138  1.00  0.00    -0.274 N 
HETATM    3  C   UNL     1      26.829  41.372  51.052  1.00  0.00     0.124 A 
HETATM    4  N   UNL     1      27.092  40.601  52.089  1.00  0.00    -0.384 N 
HETATM    5  H   UNL     1      27.169  39.600  51.984  1.00  0.00     0.157 HD
HETATM    6  H   UNL     1      27.223  41.000  53.009  1.00  0.00     0.157 HD
HETATM    7  C   UNL     1      26.661  40.800  49.754  1.00  0.00     0.081 A 
HETATM    8  C   UNL     1      26.440  41.651  48.677  1.00  0.00     0.187 A 
HETATM    9  N   UNL     1      26.298  40.998  47.532  1.00  0.00    -0.153 NA
HETATM   10  N   UNL     1      26.428  39.708  47.891  1.00  0.00    -0.280 N 
HETATM   11  H   UNL     1      26.350  39.003  47.162  1.00  0.00     0.189 HD
HETATM   12  C   UNL     1      26.644  39.523  49.242  1.00  0.00     0.042 A 
HETATM   13  C   UNL     1      26.788  38.173  49.824  1.00  0.00     0.071 C 
HETATM   14  N   UNL     1      26.348  43.031  48.746  1.00  0.00    -0.202 NA
ENDROOT
BRANCH   1  15
HETATM   15  S   UNL     1      26.319  45.308  50.017  1.00  0.00    -0.091 SA
BRANCH  15  16
HETATM   16  C   UNL     1      24.524  45.489  50.327  1.00  0.00     0.091 C 
BRANCH  16  17
HETATM   17  C   UNL     1      23.699  45.073  49.116  1.00  0.00     0.113 C 
BRANCH  17  18
HETATM   18  C   UNL     1      22.940  46.242  48.515  1.00  0.00     0.223 C 
HETATM   19  N   UNL     1      22.880  47.335  49.351  1.00  0.00    -0.325 N 
HETATM   20  H   UNL     1      23.345  47.263  50.252  1.00  0.00     0.169 HD
HETATM   21  O   UNL     1      22.437  46.148  47.399  1.00  0.00    -0.273 OA
BRANCH  19  22
HETATM   22  C   UNL     1      22.278  48.587  49.105  1.00  0.00     0.068 A 
HETATM   23  C   UNL     1      23.122  49.709  49.031  1.00  0.00     0.095 A 
HETATM   24  C   UNL     1      22.621  50.976  48.729  1.00  0.00     0.039 A 
HETATM   25  C   UNL     1      21.252  51.145  48.540  1.00  0.00     0.003 A 
HETATM   26  C   UNL     1      20.398  50.047  48.642  1.00  0.00     0.002 A 
HETATM   27  C   UNL     1      20.908  48.773  48.921  1.00  0.00     0.032 A 
BRANCH  23  28
HETATM   28  O   UNL     1      24.477  49.580  49.229  1.00  0.00    -0.349 OA
BRANCH  28  29
HETATM   29  C   UNL     1      25.197  50.074  48.090  1.00  0.00     0.171 C 
HETATM   30  C   UNL     1      26.680  49.866  48.329  1.00  0.00     0.034 C 
ENDBRANCH  28  29
ENDBRANCH  23  28
ENDBRANCH  19  22
ENDBRANCH  17  18
ENDBRANCH  16  17
ENDBRANCH  15  16
ENDBRANCH   1  15
BRANCH   2  31
HETATM   31  C   UNL     1      26.734  43.462  52.411  1.00  0.00     0.065 A 
HETATM   32  C   UNL     1      27.945  43.805  53.046  1.00  0.00     0.061 A 
HETATM   33 CL   UNL     1      29.472  43.398  52.348  1.00  0.00    -0.082 Cl
HETATM   34  C   UNL     1      27.941  44.500  54.258  1.00  0.00     0.026 A 
HETATM   35  C   UNL     1      26.731  44.858  54.852  1.00  0.00     0.002 A 
HETATM   36  C   UNL     1      25.526  44.525  54.235  1.00  0.00     0.002 A 
HETATM   37  C   UNL     1      25.525  43.835  53.020  1.00  0.00     0.032 A 
ENDBRANCH   2  31
TORSDOF 8
ENDMDL
MODEL 6
REMARK VINA RESULT:      -8.6      2.203      3.280
REMARK  8 active torsions:
REMARK  status: ('A' for Active; 'I' for Inactive)
REMARK    1  A    between atoms: C_2  and  O_3 
REMARK    2  A    between atoms: O_3  and  C_4 
REMARK    3  A    between atoms: C_5  and  N_6 
REMARK       I    between atoms: N_6  and  C_7 
REMARK    4  A    between atoms: C_7  and  C_8 
REMARK    5  A    between atoms: C_8  and  C_9 
REMARK    6  A    between atoms: C_9  and  S_10 
REMARK    7  A    between atoms: S_10  and  C_11 
REMARK    8  A    between atoms: N_12  and  C_13 
ROOT
HETATM    1  C   UNL     1      25.040  43.123  50.868  1.00  0.00     0.177 A 
HETATM    2  N   UNL     1      26.119  43.649  51.616  1.00  0.00    -0.274 N 
HETATM    3  C   UNL     1      27.276  42.807  51.810  1.00  0.00     0.124 A 
HETATM    4  N   UNL     1      28.358  43.197  52.455  1.00  0.00    -0.384 N 
HETATM    5  H   UNL     1      29.149  42.578  52.563  1.00  0.00     0.157 HD
HETATM    6  H   UNL     1      28.414  44.125  52.853  1.00  0.00     0.157 HD
HETATM    7  C   UNL     1      27.212  41.499  51.238  1.00  0.00     0.081 A 
HETATM    8  C   UNL     1      26.078  41.145  50.517  1.00  0.00     0.187 A 
HETATM    9  N   UNL     1      26.140  39.909  50.042  1.00  0.00    -0.153 NA
HETATM   10  N   UNL     1      27.336  39.469  50.474  1.00  0.00    -0.280 N 
HETATM   11  H   UNL     1      27.609  38.521  50.229  1.00  0.00     0.189 HD
HETATM   12  C   UNL     1      28.036  40.398  51.218  1.00  0.00     0.042 A 
HETATM   13  C   UNL     1      29.360  40.086  51.796  1.00  0.00     0.071 C 
HETATM   14  N   UNL     1      24.970  41.951  50.310  1.00  0.00    -0.202 NA
ENDROOT
BRANCH   1  15
HETATM   15  S   UNL     1      23.586  44.139  50.616  1.00  0.00    -0.091 SA
BRANCH  15  16
HETATM   16  C   UNL     1      23.906  44.796  48.938  1.00  0.00     0.091 C 
BRANCH  16  17
HETATM   17  C   UNL     1      22.624  44.906  48.123  1.00  0.00     0.113 C 
BRANCH  17  18
HETATM   18  C   UNL     1      22.267  46.348  47.814  1.00  0.00     0.223 C 
HETATM   19  N   UNL     1      22.082  47.112  48.945  1.00  0.00    -0.325 N 
HETATM   20  H   UNL     1      22.212  46.658  49.845  1.00  0.00     0.169 HD
HETATM   21  O   UNL     1      22.151  46.725  46.652  1.00  0.00    -0.273 OA
BRANCH  19  22
HETATM   22  C   UNL     1      21.766  48.486  49.026  1.00  0.00     0.068 A 
HETATM   23  C   UNL     1      22.816  49.377  49.305  1.00  0.00     0.095 A 
HETATM   24  C   UNL     1      22.607  50.757  49.342  1.00  0.00     0.039 A 
HETATM   25  C   UNL     1      21.326  51.262  49.140  1.00  0.00     0.003 A 
HETATM   26  C   UNL     1      20.268  50.387  48.894  1.00  0.00     0.002 A 
HETATM   27  C   UNL     1      20.486  49.005  48.834  1.00  0.00     0.032 A 
BRANCH  23  28
HETATM   28  O   UNL     1      24.091  48.911  49.526  1.00  0.00    -0.349 OA
BRANCH  28  29
HETATM   29  C   UNL     1      24.957  49.295  48.447  1.00  0.00     0.171 C 
HETATM   30  C   UNL     1      26.393  49.215  48.928  1.00  0.00     0.034 C 
ENDBRANCH  28  29
ENDBRANCH  23  28
ENDBRANCH  19  22
ENDBRANCH  17  18
ENDBRANCH  16  17
ENDBRANCH  15  16
ENDBRANCH   1  15
BRANCH   2  31
HETATM   31  C   UNL     1      26.032  44.921  52.262  1.00  0.00     0.065 A 
HETATM   32  C   UNL     1      25.784  45.030  53.646  1.00  0.00     0.061 A 
HETATM   33 CL   UNL     1      25.508  43.630  54.621  1.00  0.00    -0.082 Cl
HETATM   34  C   UNL     1      25.767  46.279  54.270  1.00  0.00     0.026 A 
HETATM   35  C   UNL     1      25.996  47.434  53.523  1.00  0.00     0.002 A 
HETATM   36  C   UNL     1      26.243  47.342  52.154  1.00  0.00     0.002 A 
HETATM   37  C   UNL     1      26.266  46.095  51.526  1.00  0.00     0.032 A 
ENDBRANCH   2  31
TORSDOF 8
ENDMDL
MODEL 7
REMARK VINA RESULT:      -8.4      5.796     11.732
REMARK  8 active torsions:
REMARK  status: ('A' for Active; 'I' for Inactive)
REMARK    1  A    between atoms: C_2  and  O_3 
REMARK    2  A    between atoms: O_3  and  C_4 
REMARK    3  A    between atoms: C_5  and  N_6 
REMARK       I    between atoms: N_6  and  C_7 
REMARK    4  A    between atoms: C_7  and  C_8 
REMARK    5  A    between atoms: C_8  and  C_9 
REMARK    6  A    between atoms: C_9  and  S_10 
REMARK    7  A    between atoms: S_10  and  C_11 
REMARK    8  A    between atoms: N_12  and  C_13 
ROOT
HETATM    1  C   UNL     1      16.173  48.544  47.859  1.00  0.00     0.177 A 
HETATM    2  N   UNL     1      16.457  49.901  47.580  1.00  0.00    -0.274 N 
HETATM    3  C   UNL     1      15.613  50.583  46.626  1.00  0.00     0.124 A 
HETATM    4  N   UNL     1      15.754  51.856  46.313  1.00  0.00    -0.384 N 
HETATM    5  H   UNL     1      15.138  52.296  45.644  1.00  0.00     0.157 HD
HETATM    6  H   UNL     1      16.482  52.414  46.737  1.00  0.00     0.157 HD
HETATM    7  C   UNL     1      14.572  49.806  46.033  1.00  0.00     0.081 A 
HETATM    8  C   UNL     1      14.420  48.483  46.431  1.00  0.00     0.187 A 
HETATM    9  N   UNL     1      13.424  47.872  45.805  1.00  0.00    -0.153 NA
HETATM   10  N   UNL     1      12.936  48.826  44.991  1.00  0.00    -0.280 N 
HETATM   11  H   UNL     1      12.149  48.583  44.395  1.00  0.00     0.189 HD
HETATM   12  C   UNL     1      13.604  50.031  45.081  1.00  0.00     0.042 A 
HETATM   13  C   UNL     1      13.223  51.189  44.246  1.00  0.00     0.071 C 
HETATM   14  N   UNL     1      15.213  47.825  47.358  1.00  0.00    -0.202 NA
ENDROOT
BRANCH   1  15
HETATM   15  S   UNL     1      17.206  47.667  49.031  1.00  0.00    -0.091 SA
BRANCH  15  16
HETATM   16  C   UNL     1      18.388  46.842  47.904  1.00  0.00     0.091 C 
BRANCH  16  17
HETATM   17  C   UNL     1      19.672  46.452  48.623  1.00  0.00     0.113 C 
BRANCH  17  18
HETATM   18  C   UNL     1      20.888  47.144  48.036  1.00  0.00     0.223 C 
HETATM   19  N   UNL     1      21.637  47.813  48.978  1.00  0.00    -0.325 N 
HETATM   20  H   UNL     1      21.324  47.769  49.944  1.00  0.00     0.169 HD
HETATM   21  O   UNL     1      21.111  47.090  46.830  1.00  0.00    -0.273 OA
BRANCH  19  22
HETATM   22  C   UNL     1      22.832  48.539  48.786  1.00  0.00     0.068 A 
HETATM   23  C   UNL     1      23.997  48.043  49.397  1.00  0.00     0.095 A 
HETATM   24  C   UNL     1      25.234  48.661  49.210  1.00  0.00     0.039 A 
HETATM   25  C   UNL     1      25.314  49.816  48.437  1.00  0.00     0.003 A 
HETATM   26  C   UNL     1      24.162  50.337  47.850  1.00  0.00     0.002 A 
HETATM   27  C   UNL     1      22.926  49.701  48.021  1.00  0.00     0.032 A 
BRANCH  23  28
HETATM   28  O   UNL     1      23.950  46.914  50.181  1.00  0.00    -0.349 OA
BRANCH  28  29
HETATM   29  C   UNL     1      25.257  46.605  50.688  1.00  0.00     0.171 C 
HETATM   30  C   UNL     1      25.201  45.254  51.377  1.00  0.00     0.034 C 
ENDBRANCH  28  29
ENDBRANCH  23  28
ENDBRANCH  19  22
ENDBRANCH  17  18
ENDBRANCH  16  17
ENDBRANCH  15  16
ENDBRANCH   1  15
BRANCH   2  31
HETATM   31  C   UNL     1      17.606  50.553  48.126  1.00  0.00     0.065 A 
HETATM   32  C   UNL     1      18.835  50.584  47.435  1.00  0.00     0.061 A 
HETATM   33 CL   UNL     1      19.032  49.780  45.918  1.00  0.00    -0.082 Cl
HETATM   34  C   UNL     1      19.927  51.281  47.955  1.00  0.00     0.026 A 
HETATM   35  C   UNL     1      19.809  51.954  49.171  1.00  0.00     0.002 A 
HETATM   36  C   UNL     1      18.601  51.932  49.866  1.00  0.00     0.002 A 
HETATM   37  C   UNL     1      17.504  51.240  49.347  1.00  0.00     0.032 A 
ENDBRANCH   2  31
TORSDOF 8
ENDMDL
MODEL 8
REMARK VINA RESULT:      -8.4      4.338      9.452
REMARK  8 active torsions:
REMARK  status: ('A' for Active; 'I' for Inactive)
REMARK    1  A    between atoms: C_2  and  O_3 
REMARK    2  A    between atoms: O_3  and  C_4 
REMARK    3  A    between atoms: C_5  and  N_6 
REMARK       I    between atoms: N_6  and  C_7 
REMARK    4  A    between atoms: C_7  and  C_8 
REMARK    5  A    between atoms: C_8  and  C_9 
REMARK    6  A    between atoms: C_9  and  S_10 
REMARK    7  A    between atoms: S_10  and  C_11 
REMARK    8  A    between atoms: N_12  and  C_13 
ROOT
HETATM    1  C   UNL     1      21.604  48.313  48.009  1.00  0.00     0.177 A 
HETATM    2  N   UNL     1      20.255  48.668  47.784  1.00  0.00    -0.274 N 
HETATM    3  C   UNL     1      19.506  47.892  46.822  1.00  0.00     0.124 A 
HETATM    4  N   UNL     1      18.232  48.101  46.555  1.00  0.00    -0.384 N 
HETATM    5  H   UNL     1      17.744  47.532  45.879  1.00  0.00     0.157 HD
HETATM    6  H   UNL     1      17.721  48.838  47.023  1.00  0.00     0.157 HD
HETATM    7  C   UNL     1      20.216  46.840  46.166  1.00  0.00     0.081 A 
HETATM    8  C   UNL     1      21.542  46.615  46.517  1.00  0.00     0.187 A 
HETATM    9  N   UNL     1      22.087  45.617  45.836  1.00  0.00    -0.153 NA
HETATM   10  N   UNL     1      21.088  45.203  45.036  1.00  0.00    -0.280 N 
HETATM   11  H   UNL     1      21.276  44.429  44.404  1.00  0.00     0.189 HD
HETATM   12  C   UNL     1      19.918  45.920  45.188  1.00  0.00     0.042 A 
HETATM   13  C   UNL     1      18.719  45.624  44.377  1.00  0.00     0.071 C 
HETATM   14  N   UNL     1      22.263  47.341  47.450  1.00  0.00    -0.202 NA
ENDROOT
BRANCH   1  15
HETATM   15  S   UNL     1      22.563  49.261  49.189  1.00  0.00    -0.091 SA
BRANCH  15  16
HETATM   16  C   UNL     1      23.782  48.008  49.733  1.00  0.00     0.091 C 
BRANCH  16  17
HETATM   17  C   UNL     1      25.208  48.435  49.411  1.00  0.00     0.113 C 
BRANCH  17  18
HETATM   18  C   UNL     1      26.224  47.387  49.826  1.00  0.00     0.223 C 
HETATM   19  N   UNL     1      25.839  46.672  50.938  1.00  0.00    -0.325 N 
HETATM   20  H   UNL     1      24.938  46.896  51.351  1.00  0.00     0.169 HD
HETATM   21  O   UNL     1      27.273  47.256  49.201  1.00  0.00    -0.273 OA
BRANCH  19  22
HETATM   22  C   UNL     1      26.526  45.616  51.576  1.00  0.00     0.068 A 
HETATM   23  C   UNL     1      26.592  45.640  52.980  1.00  0.00     0.095 A 
HETATM   24  C   UNL     1      27.197  44.606  53.696  1.00  0.00     0.039 A 
HETATM   25  C   UNL     1      27.785  43.548  53.008  1.00  0.00     0.003 A 
HETATM   26  C   UNL     1      27.755  43.527  51.614  1.00  0.00     0.002 A 
HETATM   27  C   UNL     1      27.126  44.554  50.900  1.00  0.00     0.032 A 
BRANCH  23  28
HETATM   28  O   UNL     1      26.036  46.679  53.689  1.00  0.00    -0.349 OA
BRANCH  28  29
HETATM   29  C   UNL     1      26.860  47.009  54.818  1.00  0.00     0.171 C 
HETATM   30  C   UNL     1      26.425  48.360  55.355  1.00  0.00     0.034 C 
ENDBRANCH  28  29
ENDBRANCH  23  28
ENDBRANCH  19  22
ENDBRANCH  17  18
ENDBRANCH  16  17
ENDBRANCH  15  16
ENDBRANCH   1  15
BRANCH   2  31
HETATM   31  C   UNL     1      19.673  49.824  48.392  1.00  0.00     0.065 A 
HETATM   32  C   UNL     1      18.973  49.742  49.613  1.00  0.00     0.061 A 
HETATM   33 CL   UNL     1      18.728  48.227  50.407  1.00  0.00    -0.082 Cl
HETATM   34  C   UNL     1      18.467  50.893  50.222  1.00  0.00     0.026 A 
HETATM   35  C   UNL     1      18.651  52.137  49.621  1.00  0.00     0.002 A 
HETATM   36  C   UNL     1      19.341  52.234  48.414  1.00  0.00     0.002 A 
HETATM   37  C   UNL     1      19.853  51.087  47.803  1.00  0.00     0.032 A 
ENDBRANCH   2  31
TORSDOF 8
ENDMDL
MODEL 9
REMARK VINA RESULT:      -8.4     11.975     14.344
REMARK  8 active torsions:
REMARK  status: ('A' for Active; 'I' for Inactive)
REMARK    1  A    between atoms: C_2  and  O_3 
REMARK    2  A    between atoms: O_3  and  C_4 
REMARK    3  A    between atoms: C_5  and  N_6 
REMARK       I    between atoms: N_6  and  C_7 
REMARK    4  A    between atoms: C_7  and  C_8 
REMARK    5  A    between atoms: C_8  and  C_9 
REMARK    6  A    between atoms: C_9  and  S_10 
REMARK    7  A    between atoms: S_10  and  C_11 
REMARK    8  A    between atoms: N_12  and  C_13 
ROOT
HETATM    1  C   UNL     1      30.358  48.174  39.743  1.00  0.00     0.177 A 
HETATM    2  N   UNL     1      29.155  48.807  39.355  1.00  0.00    -0.274 N 
HETATM    3  C   UNL     1      28.058  47.967  38.935  1.00  0.00     0.124 A 
HETATM    4  N   UNL     1      26.875  48.436  38.588  1.00  0.00    -0.384 N 
HETATM    5  H   UNL     1      26.133  47.813  38.306  1.00  0.00     0.157 HD
HETATM    6  H   UNL     1      26.692  49.431  38.598  1.00  0.00     0.157 HD
HETATM    7  C   UNL     1      28.303  46.559  38.932  1.00  0.00     0.081 A 
HETATM    8  C   UNL     1      29.543  46.100  39.359  1.00  0.00     0.187 A 
HETATM    9  N   UNL     1      29.644  44.780  39.305  1.00  0.00    -0.153 NA
HETATM   10  N   UNL     1      28.445  44.394  38.832  1.00  0.00    -0.280 N 
HETATM   11  H   UNL     1      28.286  43.399  38.699  1.00  0.00     0.189 HD
HETATM   12  C   UNL     1      27.583  45.442  38.577  1.00  0.00     0.042 A 
HETATM   13  C   UNL     1      26.229  45.213  38.031  1.00  0.00     0.071 C 
HETATM   14  N   UNL     1      30.595  46.896  39.781  1.00  0.00    -0.202 NA
ENDROOT
BRANCH   1  15
HETATM   15  S   UNL     1      31.741  49.188  40.262  1.00  0.00    -0.091 SA
BRANCH  15  16
HETATM   16  C   UNL     1      31.825  48.778  42.043  1.00  0.00     0.091 C 
BRANCH  16  17
HETATM   17  C   UNL     1      31.444  49.969  42.913  1.00  0.00     0.113 C 
BRANCH  17  18
HETATM   18  C   UNL     1      32.419  51.122  42.760  1.00  0.00     0.223 C 
HETATM   19  N   UNL     1      33.730  50.750  42.954  1.00  0.00    -0.325 N 
HETATM   20  H   UNL     1      33.915  49.772  43.160  1.00  0.00     0.169 HD
HETATM   21  O   UNL     1      32.010  52.252  42.508  1.00  0.00    -0.273 OA
BRANCH  19  22
HETATM   22  C   UNL     1      34.886  51.555  42.867  1.00  0.00     0.068 A 
HETATM   23  C   UNL     1      35.469  51.717  41.598  1.00  0.00     0.095 A 
HETATM   24  C   UNL     1      36.577  52.545  41.408  1.00  0.00     0.039 A 
HETATM   25  C   UNL     1      37.144  53.193  42.502  1.00  0.00     0.003 A 
HETATM   26  C   UNL     1      36.596  53.017  43.772  1.00  0.00     0.002 A 
HETATM   27  C   UNL     1      35.471  52.203  43.955  1.00  0.00     0.032 A 
BRANCH  23  28
HETATM   28  O   UNL     1      34.943  51.078  40.499  1.00  0.00    -0.349 OA
BRANCH  28  29
HETATM   29  C   UNL     1      34.821  51.995  39.401  1.00  0.00     0.171 C 
HETATM   30  C   UNL     1      33.369  52.418  39.285  1.00  0.00     0.034 C 
ENDBRANCH  28  29
ENDBRANCH  23  28
ENDBRANCH  19  22
ENDBRANCH  17  18
ENDBRANCH  16  17
ENDBRANCH  15  16
ENDBRANCH   1  15
BRANCH   2  31
HETATM   31  C   UNL     1      29.053  50.230  39.264  1.00  0.00     0.065 A 
HETATM   32  C   UNL     1      28.537  51.003  40.325  1.00  0.00     0.061 A 
HETATM   33 CL   UNL     1      27.942  50.261  41.768  1.00  0.00    -0.082 Cl
HETATM   34  C   UNL     1      28.506  52.396  40.241  1.00  0.00     0.026 A 
HETATM   35  C   UNL     1      28.986  53.037  39.100  1.00  0.00     0.002 A 
HETATM   36  C   UNL     1      29.499  52.287  38.043  1.00  0.00     0.002 A 
HETATM   37  C   UNL     1      29.537  50.892  38.123  1.00  0.00     0.032 A 
ENDBRANCH   2  31
TORSDOF 8
ENDMDL
MODEL 10
REMARK VINA RESULT:      -8.4     12.095     14.241
REMARK  8 active torsions:
REMARK  status: ('A' for Active; 'I' for Inactive)
REMARK    1  A    between atoms: C_2  and  O_3 
REMARK    2  A    between atoms: O_3  and  C_4 
REMARK    3  A    between atoms: C_5  and  N_6 
REMARK       I    between atoms: N_6  and  C_7 
REMARK    4  A    between atoms: C_7  and  C_8 
REMARK    5  A    between atoms: C_8  and  C_9 
REMARK    6  A    between atoms: C_9  and  S_10 
REMARK    7  A    between atoms: S_10  and  C_11 
REMARK    8  A    between atoms: N_12  and  C_13 
ROOT
HETATM    1  C   UNL     1      28.015  48.409  38.584  1.00  0.00     0.177 A 
HETATM    2  N   UNL     1      27.236  49.503  39.025  1.00  0.00    -0.274 N 
HETATM    3  C   UNL     1      25.798  49.368  38.978  1.00  0.00     0.124 A 
HETATM    4  N   UNL     1      24.967  50.303  39.398  1.00  0.00    -0.384 N 
HETATM    5  H   UNL     1      23.968  50.166  39.353  1.00  0.00     0.157 HD
HETATM    6  H   UNL     1      25.318  51.174  39.772  1.00  0.00     0.157 HD
HETATM    7  C   UNL     1      25.294  48.134  38.465  1.00  0.00     0.081 A 
HETATM    8  C   UNL     1      26.201  47.152  38.086  1.00  0.00     0.187 A 
HETATM    9  N   UNL     1      25.609  46.061  37.624  1.00  0.00    -0.153 NA
HETATM   10  N   UNL     1      24.299  46.357  37.710  1.00  0.00    -0.280 N 
HETATM   11  H   UNL     1      23.633  45.655  37.401  1.00  0.00     0.189 HD
HETATM   12  C   UNL     1      24.044  47.618  38.211  1.00  0.00     0.042 A 
HETATM   13  C   UNL     1      22.665  48.128  38.355  1.00  0.00     0.071 C 
HETATM   14  N   UNL     1      27.581  47.265  38.143  1.00  0.00    -0.202 NA
ENDROOT
BRANCH   1  15
HETATM   15  S   UNL     1      29.800  48.547  38.621  1.00  0.00    -0.091 SA
BRANCH  15  16
HETATM   16  C   UNL     1      30.190  47.613  40.145  1.00  0.00     0.091 C 
BRANCH  16  17
HETATM   17  C   UNL     1      31.640  47.146  40.164  1.00  0.00     0.113 C 
BRANCH  17  18
HETATM   18  C   UNL     1      32.442  47.820  41.261  1.00  0.00     0.223 C 
HETATM   19  N   UNL     1      32.165  49.163  41.386  1.00  0.00    -0.325 N 
HETATM   20  H   UNL     1      31.466  49.557  40.763  1.00  0.00     0.169 HD
HETATM   21  O   UNL     1      33.254  47.177  41.921  1.00  0.00    -0.273 OA
BRANCH  19  22
HETATM   22  C   UNL     1      32.708  50.082  42.310  1.00  0.00     0.068 A 
HETATM   23  C   UNL     1      34.014  50.544  42.074  1.00  0.00     0.095 A 
HETATM   24  C   UNL     1      34.606  51.500  42.901  1.00  0.00     0.039 A 
HETATM   25  C   UNL     1      33.908  51.977  44.007  1.00  0.00     0.003 A 
HETATM   26  C   UNL     1      32.624  51.504  44.271  1.00  0.00     0.002 A 
HETATM   27  C   UNL     1      32.024  50.562  43.426  1.00  0.00     0.032 A 
BRANCH  23  28
HETATM   28  O   UNL     1      34.737  50.081  41.000  1.00  0.00    -0.349 OA
BRANCH  28  29
HETATM   29  C   UNL     1      35.131  51.173  40.155  1.00  0.00     0.171 C 
HETATM   30  C   UNL     1      33.905  51.681  39.419  1.00  0.00     0.034 C 
ENDBRANCH  28  29
ENDBRANCH  23  28
ENDBRANCH  19  22
ENDBRANCH  17  18
ENDBRANCH  16  17
ENDBRANCH  15  16
ENDBRANCH   1  15
BRANCH   2  31
HETATM   31  C   UNL     1      27.834  50.748  39.396  1.00  0.00     0.065 A 
HETATM   32  C   UNL     1      28.228  51.011  40.724  1.00  0.00     0.061 A 
HETATM   33 CL   UNL     1      27.949  49.865  41.986  1.00  0.00    -0.082 Cl
HETATM   34  C   UNL     1      28.870  52.207  41.053  1.00  0.00     0.026 A 
HETATM   35  C   UNL     1      29.125  53.156  40.063  1.00  0.00     0.002 A 
HETATM   36  C   UNL     1      28.741  52.910  38.746  1.00  0.00     0.002 A 
HETATM   37  C   UNL     1      28.104  51.712  38.410  1.00  0.00     0.032 A 
ENDBRANCH   2  31
TORSDOF 8
ENDMDL
