MODEL 1
REMARK VINA RESULT:      -9.7      0.000      0.000
REMARK  3 active torsions:
REMARK  status: ('A' for Active; 'I' for Inactive)
REMARK    1  A    between atoms: N_3  and  C_4 
REMARK    2  A    between atoms: C_6  and  C_7 
REMARK       I    between atoms: C_7  and  N_8 
REMARK    3  A    between atoms: N_8  and  C_9 
ROOT
HETATM    1  C   UNL     1      25.477  46.963  52.944  1.00  0.00     0.072 C 
HETATM    2  C   UNL     1      25.805  45.653  52.198  1.00  0.00     0.149 C 
HETATM    3  N   UNL     1      25.539  45.753  50.741  1.00  0.00    -0.267 N 
HETATM    4  C   UNL     1      25.112  44.654  50.001  1.00  0.00     0.326 C 
HETATM    5  O   UNL     1      24.922  44.637  48.787  1.00  0.00    -0.247 OA
HETATM    6  N   UNL     1      24.892  43.499  50.695  1.00  0.00    -0.334 N 
HETATM    7  O   UNL     1      27.207  45.398  52.433  1.00  0.00    -0.319 OA
HETATM    8  C   UNL     1      27.617  44.095  52.375  1.00  0.00     0.080 A 
HETATM    9  C   UNL     1      26.733  43.026  52.198  1.00  0.00    -0.002 A 
HETATM   10  C   UNL     1      28.983  43.866  52.526  1.00  0.00     0.037 A 
HETATM   11  C   UNL     1      29.478  42.563  52.484  1.00  0.00     0.003 A 
HETATM   12  C   UNL     1      28.607  41.493  52.286  1.00  0.00     0.001 A 
HETATM   13  C   UNL     1      27.237  41.721  52.139  1.00  0.00     0.012 A 
HETATM   14  C   UNL     1      24.930  44.567  52.836  1.00  0.00     0.092 C 
HETATM   15  C   UNL     1      25.262  43.309  52.071  1.00  0.00     0.127 C 
HETATM   16  H   UNL     1      24.717  42.698  50.102  1.00  0.00     0.165 HD
ENDROOT
BRANCH   3  17
HETATM   17  C   UNL     1      25.880  46.947  50.036  1.00  0.00     0.043 A 
HETATM   18  C   UNL     1      24.895  47.822  49.566  1.00  0.00     0.047 A 
HETATM   19  C   UNL     1      25.268  48.990  48.889  1.00  0.00     0.034 A 
HETATM   20  C   UNL     1      26.612  49.263  48.624  1.00  0.00     0.017 A 
HETATM   21  C   UNL     1      27.595  48.398  49.096  1.00  0.00     0.003 A 
HETATM   22  C   UNL     1      27.231  47.259  49.819  1.00  0.00     0.030 A 
BRANCH  19  23
HETATM   23  C   UNL     1      24.254  49.991  48.489  1.00  0.00     0.252 C 
HETATM   24  N   UNL     1      23.128  50.017  49.281  1.00  0.00    -0.352 N 
HETATM   25  H   UNL     1      23.051  49.360  50.048  1.00  0.00     0.163 HD
HETATM   26  O   UNL     1      24.475  50.755  47.558  1.00  0.00    -0.268 OA
BRANCH  24  27
HETATM   27  C   UNL     1      22.057  50.966  49.071  1.00  0.00     0.084 C 
HETATM   28  C   UNL     1      21.131  50.553  47.933  1.00  0.00     0.025 C 
HETATM   29  C   UNL     1      19.880  51.371  48.206  1.00  0.00     0.002 C 
HETATM   30  C   UNL     1      19.726  51.320  49.721  1.00  0.00     0.002 C 
HETATM   31  C   UNL     1      21.128  51.082  50.283  1.00  0.00     0.025 C 
ENDBRANCH  24  27
ENDBRANCH  19  23
ENDBRANCH   3  17
TORSDOF 3
ENDMDL
MODEL 2
REMARK VINA RESULT:      -9.2     11.150     14.055
REMARK  3 active torsions:
REMARK  status: ('A' for Active; 'I' for Inactive)
REMARK    1  A    between atoms: N_3  and  C_4 
REMARK    2  A    between atoms: C_6  and  C_7 
REMARK       I    between atoms: C_7  and  N_8 
REMARK    3  A    between atoms: N_8  and  C_9 
ROOT
HETATM    1  C   UNL     1      31.889  52.107  39.684  1.00  0.00     0.072 C 
HETATM    2  C   UNL     1      31.339  50.698  39.988  1.00  0.00     0.149 C 
HETATM    3  N   UNL     1      32.179  49.965  40.968  1.00  0.00    -0.267 N 
HETATM    4  C   UNL     1      32.325  48.583  40.912  1.00  0.00     0.326 C 
HETATM    5  O   UNL     1      32.955  47.895  41.713  1.00  0.00    -0.247 OA
HETATM    6  N   UNL     1      31.709  47.944  39.875  1.00  0.00    -0.334 N 
HETATM    7  O   UNL     1      30.010  50.892  40.516  1.00  0.00    -0.319 OA
HETATM    8  C   UNL     1      29.123  49.865  40.351  1.00  0.00     0.080 A 
HETATM    9  C   UNL     1      29.423  48.709  39.623  1.00  0.00    -0.002 A 
HETATM   10  C   UNL     1      27.866  50.029  40.931  1.00  0.00     0.037 A 
HETATM   11  C   UNL     1      26.904  49.028  40.801  1.00  0.00     0.003 A 
HETATM   12  C   UNL     1      27.203  47.863  40.096  1.00  0.00     0.001 A 
HETATM   13  C   UNL     1      28.460  47.699  39.511  1.00  0.00     0.012 A 
HETATM   14  C   UNL     1      31.300  49.956  38.646  1.00  0.00     0.092 C 
HETATM   15  C   UNL     1      30.777  48.582  38.984  1.00  0.00     0.127 C 
HETATM   16  H   UNL     1      31.727  46.935  39.952  1.00  0.00     0.165 HD
ENDROOT
BRANCH   3  17
HETATM   17  C   UNL     1      32.721  50.653  42.095  1.00  0.00     0.043 A 
HETATM   18  C   UNL     1      34.081  50.975  42.168  1.00  0.00     0.047 A 
HETATM   19  C   UNL     1      34.575  51.663  43.284  1.00  0.00     0.034 A 
HETATM   20  C   UNL     1      33.737  51.978  44.356  1.00  0.00     0.017 A 
HETATM   21  C   UNL     1      32.382  51.666  44.284  1.00  0.00     0.003 A 
HETATM   22  C   UNL     1      31.874  51.028  43.149  1.00  0.00     0.030 A 
BRANCH  19  23
HETATM   23  C   UNL     1      35.981  52.121  43.331  1.00  0.00     0.252 C 
HETATM   24  N   UNL     1      36.194  53.242  44.103  1.00  0.00    -0.352 N 
HETATM   25  H   UNL     1      35.404  53.684  44.557  1.00  0.00     0.163 HD
HETATM   26  O   UNL     1      36.858  51.483  42.765  1.00  0.00    -0.268 OA
BRANCH  24  27
HETATM   27  C   UNL     1      37.512  53.800  44.308  1.00  0.00     0.084 C 
HETATM   28  C   UNL     1      37.900  54.789  43.213  1.00  0.00     0.025 C 
HETATM   29  C   UNL     1      39.027  55.577  43.858  1.00  0.00     0.002 C 
HETATM   30  C   UNL     1      38.569  55.772  45.299  1.00  0.00     0.002 C 
HETATM   31  C   UNL     1      37.610  54.618  45.599  1.00  0.00     0.025 C 
ENDBRANCH  24  27
ENDBRANCH  19  23
ENDBRANCH   3  17
TORSDOF 3
ENDMDL
MODEL 3
REMARK VINA RESULT:      -9.2      2.562      9.039
REMARK  3 active torsions:
REMARK  status: ('A' for Active; 'I' for Inactive)
REMARK    1  A    between atoms: N_3  and  C_4 
REMARK    2  A    between atoms: C_6  and  C_7 
REMARK       I    between atoms: C_7  and  N_8 
REMARK    3  A    between atoms: N_8  and  C_9 
ROOT
HETATM    1  C   UNL     1      20.683  47.153  47.935  1.00  0.00     0.072 C 
HETATM    2  C   UNL     1      20.025  48.519  48.220  1.00  0.00     0.149 C 
HETATM    3  N   UNL     1      20.882  49.391  49.061  1.00  0.00    -0.267 N 
HETATM    4  C   UNL     1      20.335  50.294  49.968  1.00  0.00     0.326 C 
HETATM    5  O   UNL     1      20.967  51.088  50.660  1.00  0.00    -0.247 OA
HETATM    6  N   UNL     1      18.975  50.289  50.089  1.00  0.00    -0.334 N 
HETATM    7  O   UNL     1      19.800  49.131  46.932  1.00  0.00    -0.319 OA
HETATM    8  C   UNL     1      18.779  50.037  46.848  1.00  0.00     0.080 A 
HETATM    9  C   UNL     1      17.911  50.306  47.912  1.00  0.00    -0.002 A 
HETATM   10  C   UNL     1      18.617  50.680  45.623  1.00  0.00     0.037 A 
HETATM   11  C   UNL     1      17.593  51.613  45.457  1.00  0.00     0.003 A 
HETATM   12  C   UNL     1      16.738  51.904  46.519  1.00  0.00     0.001 A 
HETATM   13  C   UNL     1      16.896  51.257  47.746  1.00  0.00     0.012 A 
HETATM   14  C   UNL     1      18.700  48.214  48.929  1.00  0.00     0.092 C 
HETATM   15  C   UNL     1      18.096  49.569  49.208  1.00  0.00     0.127 C 
HETATM   16  H   UNL     1      18.616  51.049  50.653  1.00  0.00     0.165 HD
ENDROOT
BRANCH   3  17
HETATM   17  C   UNL     1      22.290  49.441  48.831  1.00  0.00     0.043 A 
HETATM   18  C   UNL     1      23.171  48.606  49.525  1.00  0.00     0.047 A 
HETATM   19  C   UNL     1      24.546  48.673  49.264  1.00  0.00     0.034 A 
HETATM   20  C   UNL     1      25.056  49.608  48.360  1.00  0.00     0.017 A 
HETATM   21  C   UNL     1      24.181  50.436  47.662  1.00  0.00     0.003 A 
HETATM   22  C   UNL     1      22.804  50.336  47.879  1.00  0.00     0.030 A 
BRANCH  19  23
HETATM   23  C   UNL     1      25.486  47.720  49.895  1.00  0.00     0.252 C 
HETATM   24  N   UNL     1      25.045  47.179  51.083  1.00  0.00    -0.352 N 
HETATM   25  H   UNL     1      24.149  47.471  51.453  1.00  0.00     0.163 HD
HETATM   26  O   UNL     1      26.531  47.421  49.333  1.00  0.00    -0.268 OA
BRANCH  24  27
HETATM   27  C   UNL     1      25.808  46.190  51.812  1.00  0.00     0.084 C 
HETATM   28  C   UNL     1      26.268  46.701  53.173  1.00  0.00     0.025 C 
HETATM   29  C   UNL     1      26.588  45.417  53.920  1.00  0.00     0.002 C 
HETATM   30  C   UNL     1      25.477  44.459  53.508  1.00  0.00     0.002 C 
HETATM   31  C   UNL     1      24.987  44.940  52.142  1.00  0.00     0.025 C 
ENDBRANCH  24  27
ENDBRANCH  19  23
ENDBRANCH   3  17
TORSDOF 3
ENDMDL
MODEL 4
REMARK VINA RESULT:      -9.1      2.055      2.957
REMARK  3 active torsions:
REMARK  status: ('A' for Active; 'I' for Inactive)
REMARK    1  A    between atoms: N_3  and  C_4 
REMARK    2  A    between atoms: C_6  and  C_7 
REMARK       I    between atoms: C_7  and  N_8 
REMARK    3  A    between atoms: N_8  and  C_9 
ROOT
HETATM    1  C   UNL     1      27.305  46.026  49.569  1.00  0.00     0.072 C 
HETATM    2  C   UNL     1      26.844  44.676  50.157  1.00  0.00     0.149 C 
HETATM    3  N   UNL     1      25.417  44.698  50.566  1.00  0.00    -0.267 N 
HETATM    4  C   UNL     1      24.959  43.955  51.649  1.00  0.00     0.326 C 
HETATM    5  O   UNL     1      23.790  43.873  52.020  1.00  0.00    -0.247 OA
HETATM    6  N   UNL     1      25.898  43.257  52.353  1.00  0.00    -0.334 N 
HETATM    7  O   UNL     1      27.051  43.696  49.118  1.00  0.00    -0.319 OA
HETATM    8  C   UNL     1      27.254  42.404  49.518  1.00  0.00     0.080 A 
HETATM    9  C   UNL     1      27.364  42.032  50.861  1.00  0.00    -0.002 A 
HETATM   10  C   UNL     1      27.376  41.452  48.507  1.00  0.00     0.037 A 
HETATM   11  C   UNL     1      27.591  40.114  48.836  1.00  0.00     0.003 A 
HETATM   12  C   UNL     1      27.679  39.730  50.173  1.00  0.00     0.001 A 
HETATM   13  C   UNL     1      27.562  40.684  51.186  1.00  0.00     0.012 A 
HETATM   14  C   UNL     1      27.750  44.405  51.364  1.00  0.00     0.092 C 
HETATM   15  C   UNL     1      27.260  43.091  51.922  1.00  0.00     0.127 C 
HETATM   16  H   UNL     1      25.503  42.628  53.041  1.00  0.00     0.165 HD
ENDROOT
BRANCH   3  17
HETATM   17  C   UNL     1      24.451  45.355  49.745  1.00  0.00     0.043 A 
HETATM   18  C   UNL     1      24.089  46.687  49.971  1.00  0.00     0.047 A 
HETATM   19  C   UNL     1      23.147  47.303  49.137  1.00  0.00     0.034 A 
HETATM   20  C   UNL     1      22.519  46.585  48.117  1.00  0.00     0.017 A 
HETATM   21  C   UNL     1      22.883  45.261  47.884  1.00  0.00     0.003 A 
HETATM   22  C   UNL     1      23.861  44.658  48.679  1.00  0.00     0.030 A 
BRANCH  19  23
HETATM   23  C   UNL     1      22.836  48.743  49.278  1.00  0.00     0.252 C 
HETATM   24  N   UNL     1      21.491  49.037  49.341  1.00  0.00    -0.352 N 
HETATM   25  H   UNL     1      20.819  48.282  49.268  1.00  0.00     0.163 HD
HETATM   26  O   UNL     1      23.738  49.562  49.389  1.00  0.00    -0.268 OA
BRANCH  24  27
HETATM   27  C   UNL     1      21.003  50.384  49.532  1.00  0.00     0.084 C 
HETATM   28  C   UNL     1      20.621  51.054  48.217  1.00  0.00     0.025 C 
HETATM   29  C   UNL     1      19.720  52.191  48.670  1.00  0.00     0.002 C 
HETATM   30  C   UNL     1      18.884  51.580  49.788  1.00  0.00     0.002 C 
HETATM   31  C   UNL     1      19.715  50.431  50.360  1.00  0.00     0.025 C 
ENDBRANCH  24  27
ENDBRANCH  19  23
ENDBRANCH   3  17
TORSDOF 3
ENDMDL
MODEL 5
REMARK VINA RESULT:      -9.0     10.714     12.260
REMARK  3 active torsions:
REMARK  status: ('A' for Active; 'I' for Inactive)
REMARK    1  A    between atoms: N_3  and  C_4 
REMARK    2  A    between atoms: C_6  and  C_7 
REMARK       I    between atoms: C_7  and  N_8 
REMARK    3  A    between atoms: N_8  and  C_9 
ROOT
HETATM    1  C   UNL     1      30.831  48.599  42.327  1.00  0.00     0.072 C 
HETATM    2  C   UNL     1      31.920  49.610  41.912  1.00  0.00     0.149 C 
HETATM    3  N   UNL     1      31.499  50.451  40.764  1.00  0.00    -0.267 N 
HETATM    4  C   UNL     1      32.414  50.909  39.822  1.00  0.00     0.326 C 
HETATM    5  O   UNL     1      32.160  51.652  38.876  1.00  0.00    -0.247 OA
HETATM    6  N   UNL     1      33.706  50.492  39.971  1.00  0.00    -0.334 N 
HETATM    7  O   UNL     1      32.166  50.434  43.072  1.00  0.00    -0.319 OA
HETATM    8  C   UNL     1      33.403  51.007  43.173  1.00  0.00     0.080 A 
HETATM    9  C   UNL     1      34.437  50.748  42.267  1.00  0.00    -0.002 A 
HETATM   10  C   UNL     1      33.606  51.862  44.254  1.00  0.00     0.037 A 
HETATM   11  C   UNL     1      34.844  52.480  44.429  1.00  0.00     0.003 A 
HETATM   12  C   UNL     1      35.874  52.246  43.519  1.00  0.00     0.001 A 
HETATM   13  C   UNL     1      35.673  51.386  42.437  1.00  0.00     0.012 A 
HETATM   14  C   UNL     1      33.158  48.779  41.550  1.00  0.00     0.092 C 
HETATM   15  C   UNL     1      34.191  49.796  41.132  1.00  0.00     0.127 C 
HETATM   16  H   UNL     1      34.356  50.956  39.349  1.00  0.00     0.165 HD
ENDROOT
BRANCH   3  17
HETATM   17  C   UNL     1      30.162  50.951  40.701  1.00  0.00     0.043 A 
HETATM   18  C   UNL     1      29.223  50.407  39.818  1.00  0.00     0.047 A 
HETATM   19  C   UNL     1      27.918  50.913  39.792  1.00  0.00     0.034 A 
HETATM   20  C   UNL     1      27.557  51.997  40.596  1.00  0.00     0.017 A 
HETATM   21  C   UNL     1      28.487  52.536  41.480  1.00  0.00     0.003 A 
HETATM   22  C   UNL     1      29.775  51.999  41.549  1.00  0.00     0.030 A 
BRANCH  19  23
HETATM   23  C   UNL     1      26.874  50.279  38.956  1.00  0.00     0.252 C 
HETATM   24  N   UNL     1      25.732  49.919  39.638  1.00  0.00    -0.352 N 
HETATM   25  H   UNL     1      25.684  50.082  40.637  1.00  0.00     0.163 HD
HETATM   26  O   UNL     1      27.035  50.164  37.749  1.00  0.00    -0.268 OA
BRANCH  24  27
HETATM   27  C   UNL     1      24.588  49.335  38.974  1.00  0.00     0.084 C 
HETATM   28  C   UNL     1      23.964  48.203  39.782  1.00  0.00     0.025 C 
HETATM   29  C   UNL     1      22.574  48.088  39.179  1.00  0.00     0.002 C 
HETATM   30  C   UNL     1      22.150  49.532  38.943  1.00  0.00     0.002 C 
HETATM   31  C   UNL     1      23.442  50.335  38.790  1.00  0.00     0.025 C 
ENDBRANCH  24  27
ENDBRANCH  19  23
ENDBRANCH   3  17
TORSDOF 3
ENDMDL
MODEL 6
REMARK VINA RESULT:      -8.8     11.694     14.870
REMARK  3 active torsions:
REMARK  status: ('A' for Active; 'I' for Inactive)
REMARK    1  A    between atoms: N_3  and  C_4 
REMARK    2  A    between atoms: C_6  and  C_7 
REMARK       I    between atoms: C_7  and  N_8 
REMARK    3  A    between atoms: N_8  and  C_9 
ROOT
HETATM    1  C   UNL     1      30.655  52.925  41.731  1.00  0.00     0.072 C 
HETATM    2  C   UNL     1      30.103  52.189  40.493  1.00  0.00     0.149 C 
HETATM    3  N   UNL     1      31.182  51.620  39.648  1.00  0.00    -0.267 N 
HETATM    4  C   UNL     1      31.053  51.527  38.266  1.00  0.00     0.326 C 
HETATM    5  O   UNL     1      31.872  51.022  37.501  1.00  0.00    -0.247 OA
HETATM    6  N   UNL     1      29.912  52.043  37.722  1.00  0.00    -0.334 N 
HETATM    7  O   UNL     1      29.256  51.134  40.998  1.00  0.00    -0.319 OA
HETATM    8  C   UNL     1      28.247  50.706  40.181  1.00  0.00     0.080 A 
HETATM    9  C   UNL     1      27.958  51.305  38.951  1.00  0.00    -0.002 A 
HETATM   10  C   UNL     1      27.483  49.636  40.644  1.00  0.00     0.037 A 
HETATM   11  C   UNL     1      26.432  49.145  39.869  1.00  0.00     0.003 A 
HETATM   12  C   UNL     1      26.151  49.722  38.632  1.00  0.00     0.001 A 
HETATM   13  C   UNL     1      26.912  50.797  38.169  1.00  0.00     0.012 A 
HETATM   14  C   UNL     1      29.289  53.225  39.708  1.00  0.00     0.092 C 
HETATM   15  C   UNL     1      28.782  52.477  38.499  1.00  0.00     0.127 C 
HETATM   16  H   UNL     1      29.800  51.832  36.739  1.00  0.00     0.165 HD
ENDROOT
BRANCH   3  17
HETATM   17  C   UNL     1      32.312  50.997  40.261  1.00  0.00     0.043 A 
HETATM   18  C   UNL     1      33.546  51.651  40.346  1.00  0.00     0.047 A 
HETATM   19  C   UNL     1      34.629  51.015  40.966  1.00  0.00     0.034 A 
HETATM   20  C   UNL     1      34.509  49.709  41.447  1.00  0.00     0.017 A 
HETATM   21  C   UNL     1      33.281  49.058  41.370  1.00  0.00     0.003 A 
HETATM   22  C   UNL     1      32.183  49.709  40.801  1.00  0.00     0.030 A 
BRANCH  19  23
HETATM   23  C   UNL     1      35.908  51.728  41.178  1.00  0.00     0.252 C 
HETATM   24  N   UNL     1      35.996  52.409  42.372  1.00  0.00    -0.352 N 
HETATM   25  H   UNL     1      35.202  52.402  43.002  1.00  0.00     0.163 HD
HETATM   26  O   UNL     1      36.810  51.636  40.355  1.00  0.00    -0.268 OA
BRANCH  24  27
HETATM   27  C   UNL     1      37.191  53.118  42.771  1.00  0.00     0.084 C 
HETATM   28  C   UNL     1      37.306  54.484  42.102  1.00  0.00     0.025 C 
HETATM   29  C   UNL     1      38.299  55.210  42.994  1.00  0.00     0.002 C 
HETATM   30  C   UNL     1      37.908  54.791  44.406  1.00  0.00     0.002 C 
HETATM   31  C   UNL     1      37.214  53.435  44.269  1.00  0.00     0.025 C 
ENDBRANCH  24  27
ENDBRANCH  19  23
ENDBRANCH   3  17
TORSDOF 3
ENDMDL
MODEL 7
REMARK VINA RESULT:      -8.5     18.876     21.315
REMARK  3 active torsions:
REMARK  status: ('A' for Active; 'I' for Inactive)
REMARK    1  A    between atoms: N_3  and  C_4 
REMARK    2  A    between atoms: C_6  and  C_7 
REMARK       I    between atoms: C_7  and  N_8 
REMARK    3  A    between atoms: N_8  and  C_9 
ROOT
HETATM    1  C   UNL     1      39.695  46.367  67.190  1.00  0.00     0.072 C 
HETATM    2  C   UNL     1      38.917  47.536  66.551  1.00  0.00     0.149 C 
HETATM    3  N   UNL     1      37.835  47.066  65.650  1.00  0.00    -0.267 N 
HETATM    4  C   UNL     1      37.467  47.785  64.517  1.00  0.00     0.326 C 
HETATM    5  O   UNL     1      36.550  47.497  63.751  1.00  0.00    -0.247 OA
HETATM    6  N   UNL     1      38.193  48.909  64.244  1.00  0.00    -0.334 N 
HETATM    7  O   UNL     1      38.360  48.292  67.647  1.00  0.00    -0.319 OA
HETATM    8  C   UNL     1      38.115  49.619  67.422  1.00  0.00     0.080 A 
HETATM    9  C   UNL     1      38.467  50.266  66.233  1.00  0.00    -0.002 A 
HETATM   10  C   UNL     1      37.506  50.324  68.458  1.00  0.00     0.037 A 
HETATM   11  C   UNL     1      37.229  51.682  68.306  1.00  0.00     0.003 A 
HETATM   12  C   UNL     1      37.557  52.331  67.116  1.00  0.00     0.001 A 
HETATM   13  C   UNL     1      38.171  51.626  66.078  1.00  0.00     0.012 A 
HETATM   14  C   UNL     1      39.949  48.362  65.775  1.00  0.00     0.092 C 
HETATM   15  C   UNL     1      39.152  49.481  65.150  1.00  0.00     0.127 C 
HETATM   16  H   UNL     1      37.805  49.469  63.496  1.00  0.00     0.165 HD
ENDROOT
BRANCH   3  17
HETATM   17  C   UNL     1      37.033  45.945  66.024  1.00  0.00     0.043 A 
HETATM   18  C   UNL     1      37.170  44.707  65.388  1.00  0.00     0.047 A 
HETATM   19  C   UNL     1      36.375  43.626  65.791  1.00  0.00     0.034 A 
HETATM   20  C   UNL     1      35.403  43.785  66.781  1.00  0.00     0.017 A 
HETATM   21  C   UNL     1      35.269  45.015  67.421  1.00  0.00     0.003 A 
HETATM   22  C   UNL     1      36.097  46.081  67.061  1.00  0.00     0.030 A 
BRANCH  19  23
HETATM   23  C   UNL     1      36.582  42.277  65.219  1.00  0.00     0.252 C 
HETATM   24  N   UNL     1      37.802  42.094  64.606  1.00  0.00    -0.352 N 
HETATM   25  H   UNL     1      38.452  42.869  64.563  1.00  0.00     0.163 HD
HETATM   26  O   UNL     1      35.732  41.409  65.362  1.00  0.00    -0.268 OA
BRANCH  24  27
HETATM   27  C   UNL     1      38.199  40.824  64.039  1.00  0.00     0.084 C 
HETATM   28  C   UNL     1      38.971  40.988  62.735  1.00  0.00     0.025 C 
HETATM   29  C   UNL     1      39.678  39.650  62.595  1.00  0.00     0.002 C 
HETATM   30  C   UNL     1      40.122  39.313  64.013  1.00  0.00     0.002 C 
HETATM   31  C   UNL     1      39.159  40.050  64.946  1.00  0.00     0.025 C 
ENDBRANCH  24  27
ENDBRANCH  19  23
ENDBRANCH   3  17
TORSDOF 3
ENDMDL
MODEL 8
REMARK VINA RESULT:      -8.3     18.651     21.897
REMARK  3 active torsions:
REMARK  status: ('A' for Active; 'I' for Inactive)
REMARK    1  A    between atoms: N_3  and  C_4 
REMARK    2  A    between atoms: C_6  and  C_7 
REMARK       I    between atoms: C_7  and  N_8 
REMARK    3  A    between atoms: N_8  and  C_9 
ROOT
HETATM    1  C   UNL     1      36.356  45.639  64.220  1.00  0.00     0.072 C 
HETATM    2  C   UNL     1      36.941  46.407  65.423  1.00  0.00     0.149 C 
HETATM    3  N   UNL     1      38.093  45.701  66.035  1.00  0.00    -0.267 N 
HETATM    4  C   UNL     1      38.352  45.775  67.401  1.00  0.00     0.326 C 
HETATM    5  O   UNL     1      39.311  45.268  67.978  1.00  0.00    -0.247 OA
HETATM    6  N   UNL     1      37.456  46.477  68.155  1.00  0.00    -0.334 N 
HETATM    7  O   UNL     1      37.356  47.693  64.914  1.00  0.00    -0.319 OA
HETATM    8  C   UNL     1      37.384  48.730  65.804  1.00  0.00     0.080 A 
HETATM    9  C   UNL     1      36.944  48.611  67.126  1.00  0.00    -0.002 A 
HETATM   10  C   UNL     1      37.859  49.949  65.324  1.00  0.00     0.037 A 
HETATM   11  C   UNL     1      37.913  51.057  66.170  1.00  0.00     0.003 A 
HETATM   12  C   UNL     1      37.497  50.941  67.496  1.00  0.00     0.001 A 
HETATM   13  C   UNL     1      37.017  49.722  67.977  1.00  0.00     0.012 A 
HETATM   14  C   UNL     1      35.796  46.554  66.433  1.00  0.00     0.092 C 
HETATM   15  C   UNL     1      36.407  47.290  67.600  1.00  0.00     0.127 C 
HETATM   16  H   UNL     1      37.756  46.620  69.111  1.00  0.00     0.165 HD
ENDROOT
BRANCH   3  17
HETATM   17  C   UNL     1      39.063  45.065  65.202  1.00  0.00     0.043 A 
HETATM   18  C   UNL     1      39.017  43.690  64.950  1.00  0.00     0.047 A 
HETATM   19  C   UNL     1      39.977  43.103  64.116  1.00  0.00     0.034 A 
HETATM   20  C   UNL     1      41.019  43.864  63.581  1.00  0.00     0.017 A 
HETATM   21  C   UNL     1      41.064  45.234  63.824  1.00  0.00     0.003 A 
HETATM   22  C   UNL     1      40.077  45.834  64.611  1.00  0.00     0.030 A 
BRANCH  19  23
HETATM   23  C   UNL     1      39.882  41.676  63.736  1.00  0.00     0.252 C 
HETATM   24  N   UNL     1      40.620  40.820  64.524  1.00  0.00    -0.352 N 
HETATM   25  H   UNL     1      41.183  41.204  65.274  1.00  0.00     0.163 HD
HETATM   26  O   UNL     1      39.141  41.327  62.826  1.00  0.00    -0.268 OA
BRANCH  24  27
HETATM   27  C   UNL     1      40.606  39.387  64.333  1.00  0.00     0.084 C 
HETATM   28  C   UNL     1      41.972  38.756  64.574  1.00  0.00     0.025 C 
HETATM   29  C   UNL     1      41.629  37.293  64.801  1.00  0.00     0.002 C 
HETATM   30  C   UNL     1      40.358  37.334  65.640  1.00  0.00     0.002 C 
HETATM   31  C   UNL     1      39.685  38.671  65.325  1.00  0.00     0.025 C 
ENDBRANCH  24  27
ENDBRANCH  19  23
ENDBRANCH   3  17
TORSDOF 3
ENDMDL
MODEL 9
REMARK VINA RESULT:      -8.3     11.061     12.806
REMARK  3 active torsions:
REMARK  status: ('A' for Active; 'I' for Inactive)
REMARK    1  A    between atoms: N_3  and  C_4 
REMARK    2  A    between atoms: C_6  and  C_7 
REMARK       I    between atoms: C_7  and  N_8 
REMARK    3  A    between atoms: N_8  and  C_9 
ROOT
HETATM    1  C   UNL     1      28.393  52.860  38.114  1.00  0.00     0.072 C 
HETATM    2  C   UNL     1      29.321  52.324  39.224  1.00  0.00     0.149 C 
HETATM    3  N   UNL     1      28.690  51.232  40.006  1.00  0.00    -0.267 N 
HETATM    4  C   UNL     1      28.965  51.052  41.358  1.00  0.00     0.326 C 
HETATM    5  O   UNL     1      28.530  50.145  42.065  1.00  0.00    -0.247 OA
HETATM    6  N   UNL     1      29.792  51.968  41.941  1.00  0.00    -0.334 N 
HETATM    7  O   UNL     1      30.506  51.839  38.555  1.00  0.00    -0.319 OA
HETATM    8  C   UNL     1      31.665  51.831  39.280  1.00  0.00     0.080 A 
HETATM    9  C   UNL     1      31.757  52.352  40.574  1.00  0.00    -0.002 A 
HETATM   10  C   UNL     1      32.786  51.290  38.653  1.00  0.00     0.037 A 
HETATM   11  C   UNL     1      34.007  51.251  39.326  1.00  0.00     0.003 A 
HETATM   12  C   UNL     1      34.103  51.748  40.625  1.00  0.00     0.001 A 
HETATM   13  C   UNL     1      32.981  52.294  41.252  1.00  0.00     0.012 A 
HETATM   14  C   UNL     1      29.644  53.521  40.126  1.00  0.00     0.092 C 
HETATM   15  C   UNL     1      30.534  52.957  41.205  1.00  0.00     0.127 C 
HETATM   16  H   UNL     1      30.071  51.722  42.882  1.00  0.00     0.165 HD
ENDROOT
BRANCH   3  17
HETATM   17  C   UNL     1      27.914  50.235  39.340  1.00  0.00     0.043 A 
HETATM   18  C   UNL     1      26.518  50.304  39.302  1.00  0.00     0.047 A 
HETATM   19  C   UNL     1      25.790  49.315  38.628  1.00  0.00     0.034 A 
HETATM   20  C   UNL     1      26.439  48.226  38.043  1.00  0.00     0.017 A 
HETATM   21  C   UNL     1      27.829  48.158  38.072  1.00  0.00     0.003 A 
HETATM   22  C   UNL     1      28.563  49.170  38.697  1.00  0.00     0.030 A 
BRANCH  19  23
HETATM   23  C   UNL     1      24.323  49.428  38.470  1.00  0.00     0.252 C 
HETATM   24  N   UNL     1      23.685  50.101  39.489  1.00  0.00    -0.352 N 
HETATM   25  H   UNL     1      24.232  50.446  40.268  1.00  0.00     0.163 HD
HETATM   26  O   UNL     1      23.776  48.997  37.464  1.00  0.00    -0.268 OA
BRANCH  24  27
HETATM   27  C   UNL     1      22.261  50.352  39.475  1.00  0.00     0.084 C 
HETATM   28  C   UNL     1      21.468  49.235  40.145  1.00  0.00     0.025 C 
HETATM   29  C   UNL     1      20.138  49.904  40.448  1.00  0.00     0.002 C 
HETATM   30  C   UNL     1      20.523  51.305  40.909  1.00  0.00     0.002 C 
HETATM   31  C   UNL     1      21.878  51.606  40.268  1.00  0.00     0.025 C 
ENDBRANCH  24  27
ENDBRANCH  19  23
ENDBRANCH   3  17
TORSDOF 3
ENDMDL
MODEL 10
REMARK VINA RESULT:      -8.1     10.608     13.269
REMARK  3 active torsions:
REMARK  status: ('A' for Active; 'I' for Inactive)
REMARK    1  A    between atoms: N_3  and  C_4 
REMARK    2  A    between atoms: C_6  and  C_7 
REMARK       I    between atoms: C_7  and  N_8 
REMARK    3  A    between atoms: N_8  and  C_9 
ROOT
HETATM    1  C   UNL     1      29.835  52.071  37.890  1.00  0.00     0.072 C 
HETATM    2  C   UNL     1      29.978  51.804  39.403  1.00  0.00     0.149 C 
HETATM    3  N   UNL     1      28.794  51.109  39.967  1.00  0.00    -0.267 N 
HETATM    4  C   UNL     1      28.368  51.338  41.271  1.00  0.00     0.326 C 
HETATM    5  O   UNL     1      27.435  50.767  41.832  1.00  0.00    -0.247 OA
HETATM    6  N   UNL     1      29.055  52.280  41.983  1.00  0.00    -0.334 N 
HETATM    7  O   UNL     1      31.157  50.985  39.555  1.00  0.00    -0.319 OA
HETATM    8  C   UNL     1      31.813  51.062  40.753  1.00  0.00     0.080 A 
HETATM    9  C   UNL     1      31.446  51.954  41.766  1.00  0.00    -0.002 A 
HETATM   10  C   UNL     1      32.905  50.211  40.920  1.00  0.00     0.037 A 
HETATM   11  C   UNL     1      33.629  50.235  42.112  1.00  0.00     0.003 A 
HETATM   12  C   UNL     1      33.256  51.105  43.135  1.00  0.00     0.001 A 
HETATM   13  C   UNL     1      32.166  51.961  42.968  1.00  0.00     0.012 A 
HETATM   14  C   UNL     1      30.167  53.176  40.063  1.00  0.00     0.092 C 
HETATM   15  C   UNL     1      30.284  52.878  41.537  1.00  0.00     0.127 C 
HETATM   16  H   UNL     1      28.800  52.314  42.961  1.00  0.00     0.165 HD
ENDROOT
BRANCH   3  17
HETATM   17  C   UNL     1      28.168  50.059  39.230  1.00  0.00     0.043 A 
HETATM   18  C   UNL     1      28.686  48.759  39.231  1.00  0.00     0.047 A 
HETATM   19  C   UNL     1      28.037  47.751  38.507  1.00  0.00     0.034 A 
HETATM   20  C   UNL     1      26.911  48.040  37.733  1.00  0.00     0.017 A 
HETATM   21  C   UNL     1      26.389  49.331  37.735  1.00  0.00     0.003 A 
HETATM   22  C   UNL     1      27.001  50.328  38.499  1.00  0.00     0.030 A 
BRANCH  19  23
HETATM   23  C   UNL     1      28.493  46.346  38.587  1.00  0.00     0.252 C 
HETATM   24  N   UNL     1      27.715  45.534  39.383  1.00  0.00    -0.352 N 
HETATM   25  H   UNL     1      26.920  45.935  39.866  1.00  0.00     0.163 HD
HETATM   26  O   UNL     1      29.454  45.969  37.930  1.00  0.00    -0.268 OA
BRANCH  24  27
HETATM   27  C   UNL     1      27.979  44.120  39.537  1.00  0.00     0.084 C 
HETATM   28  C   UNL     1      27.547  43.595  40.901  1.00  0.00     0.025 C 
HETATM   29  C   UNL     1      27.455  42.096  40.668  1.00  0.00     0.002 C 
HETATM   30  C   UNL     1      26.837  41.972  39.281  1.00  0.00     0.002 C 
HETATM   31  C   UNL     1      27.190  43.263  38.542  1.00  0.00     0.025 C 
ENDBRANCH  24  27
ENDBRANCH  19  23
ENDBRANCH   3  17
TORSDOF 3
ENDMDL
