MODEL 1
REMARK VINA RESULT:      -9.0      0.000      0.000
REMARK  8 active torsions:
REMARK  status: ('A' for Active; 'I' for Inactive)
REMARK    1  A    between atoms: C_2  and  C_3 
REMARK    2  A    between atoms: C_4  and  O_5 
REMARK    3  A    between atoms: O_5  and  C_6 
REMARK    4  A    between atoms: C_6  and  C_7 
REMARK    5  A    between atoms: C_15  and  O_16 
REMARK    6  A    between atoms: C_17  and  C_18 
REMARK    7  A    between atoms: C_22  and  N_23 
REMARK    8  A    between atoms: C_24  and  C_25 
ROOT
HETATM    1  C   UNL     1      26.085  46.131  52.999  1.00  0.00    -0.024 A 
HETATM    2  C   UNL     1      26.443  44.843  52.576  1.00  0.00     0.078 A 
HETATM    3  C   UNL     1      26.654  44.567  51.222  1.00  0.00     0.074 A 
HETATM    4  C   UNL     1      26.575  45.598  50.283  1.00  0.00     0.081 A 
HETATM    5  C   UNL     1      26.282  46.907  50.686  1.00  0.00     0.029 A 
HETATM    6  C   UNL     1      26.025  47.159  52.043  1.00  0.00     0.026 A 
ENDROOT
BRANCH   5   7
HETATM    7  C   UNL     1      26.286  48.021  49.740  1.00  0.00     0.107 A 
HETATM    8  N   UNL     1      27.432  48.686  49.504  1.00  0.00    -0.172 NA
HETATM    9  N   UNL     1      27.089  49.623  48.614  1.00  0.00    -0.262 N 
HETATM   10  H   UNL     1      27.811  50.244  48.274  1.00  0.00     0.191 HD
HETATM   11  C   UNL     1      25.762  49.635  48.287  1.00  0.00     0.131 A 
HETATM   12  C   UNL     1      25.196  48.606  49.019  1.00  0.00     0.076 A 
BRANCH  11  13
HETATM   13  N   UNL     1      25.276  50.547  47.416  1.00  0.00    -0.384 N 
HETATM   14  H   UNL     1      25.831  50.948  46.665  1.00  0.00     0.157 HD
HETATM   15  H   UNL     1      24.273  50.619  47.258  1.00  0.00     0.157 HD
ENDBRANCH  11  13
BRANCH  12  16
HETATM   16  C   UNL     1      23.752  48.201  49.045  1.00  0.00     0.114 A 
HETATM   17  S   UNL     1      23.201  46.581  48.827  1.00  0.00    -0.079 SA
HETATM   18  C   UNL     1      21.581  47.105  48.973  1.00  0.00     0.078 A 
HETATM   19  C   UNL     1      21.544  48.468  49.186  1.00  0.00     0.038 A 
HETATM   20  C   UNL     1      20.334  49.310  49.365  1.00  0.00     0.071 C 
HETATM   21  N   UNL     1      22.784  49.079  49.223  1.00  0.00    -0.245 NA
ENDBRANCH  12  16
ENDBRANCH   5   7
BRANCH   4  22
HETATM   22  O   UNL     1      26.770  45.313  48.957  1.00  0.00    -0.360 OA
HETATM   23  H   UNL     1      27.453  44.629  48.875  1.00  0.00     0.217 HD
ENDBRANCH   4  22
BRANCH   1  24
HETATM   24  C   UNL     1      25.759  46.437  54.440  1.00  0.00     0.037 C 
HETATM   25  C   UNL     1      26.439  47.709  54.927  1.00  0.00     0.010 C 
ENDBRANCH   1  24
BRANCH   2  26
HETATM   26  O   UNL     1      26.526  43.840  53.510  1.00  0.00    -0.346 OA
BRANCH  26  27
HETATM   27  C   UNL     1      27.723  43.067  53.339  1.00  0.00     0.214 C 
BRANCH  27  28
HETATM   28  C   UNL     1      28.773  43.498  54.339  1.00  0.00    -0.034 A 
HETATM   29  C   UNL     1      28.542  44.571  55.214  1.00  0.00     0.016 A 
HETATM   30  C   UNL     1      29.533  45.006  56.105  1.00  0.00    -0.061 A 
HETATM   31  C   UNL     1      29.284  46.166  57.023  1.00  0.00     0.048 C 
HETATM   32  C   UNL     1      30.779  44.369  56.102  1.00  0.00     0.007 A 
HETATM   33  C   UNL     1      31.025  43.307  55.231  1.00  0.00     0.001 A 
HETATM   34  C   UNL     1      30.030  42.878  54.352  1.00  0.00     0.009 A 
ENDBRANCH  27  28
ENDBRANCH  26  27
ENDBRANCH   2  26
TORSDOF 8
ENDMDL
MODEL 2
REMARK VINA RESULT:      -8.6      3.105      8.520
REMARK  8 active torsions:
REMARK  status: ('A' for Active; 'I' for Inactive)
REMARK    1  A    between atoms: C_2  and  C_3 
REMARK    2  A    between atoms: C_4  and  O_5 
REMARK    3  A    between atoms: O_5  and  C_6 
REMARK    4  A    between atoms: C_6  and  C_7 
REMARK    5  A    between atoms: C_15  and  O_16 
REMARK    6  A    between atoms: C_17  and  C_18 
REMARK    7  A    between atoms: C_22  and  N_23 
REMARK    8  A    between atoms: C_24  and  C_25 
ROOT
HETATM    1  C   UNL     1      25.801  48.431  49.232  1.00  0.00    -0.024 A 
HETATM    2  C   UNL     1      24.400  48.500  49.250  1.00  0.00     0.078 A 
HETATM    3  C   UNL     1      23.631  47.375  49.559  1.00  0.00     0.074 A 
HETATM    4  C   UNL     1      24.262  46.182  49.923  1.00  0.00     0.081 A 
HETATM    5  C   UNL     1      25.659  46.102  49.975  1.00  0.00     0.029 A 
HETATM    6  C   UNL     1      26.417  47.227  49.614  1.00  0.00     0.026 A 
ENDROOT
BRANCH   5   7
HETATM    7  C   UNL     1      26.343  44.898  50.441  1.00  0.00     0.107 A 
HETATM    8  N   UNL     1      26.482  43.851  49.607  1.00  0.00    -0.172 NA
HETATM    9  N   UNL     1      27.134  42.938  50.334  1.00  0.00    -0.262 N 
HETATM   10  H   UNL     1      27.365  42.056  49.896  1.00  0.00     0.191 HD
HETATM   11  C   UNL     1      27.391  43.317  51.622  1.00  0.00     0.131 A 
HETATM   12  C   UNL     1      26.872  44.595  51.736  1.00  0.00     0.076 A 
BRANCH  11  13
HETATM   13  N   UNL     1      28.023  42.480  52.473  1.00  0.00    -0.384 N 
HETATM   14  H   UNL     1      29.035  42.394  52.518  1.00  0.00     0.157 HD
HETATM   15  H   UNL     1      27.553  42.160  53.319  1.00  0.00     0.157 HD
ENDBRANCH  11  13
BRANCH  12  16
HETATM   16  C   UNL     1      26.868  45.465  52.959  1.00  0.00     0.114 A 
HETATM   17  S   UNL     1      25.731  46.732  53.237  1.00  0.00    -0.079 SA
HETATM   18  C   UNL     1      26.503  47.108  54.715  1.00  0.00     0.078 A 
HETATM   19  C   UNL     1      27.567  46.255  54.922  1.00  0.00     0.038 A 
HETATM   20  C   UNL     1      28.492  46.249  56.083  1.00  0.00     0.071 C 
HETATM   21  N   UNL     1      27.766  45.327  53.915  1.00  0.00    -0.245 NA
ENDBRANCH  12  16
ENDBRANCH   5   7
BRANCH   4  22
HETATM   22  O   UNL     1      23.498  45.081  50.210  1.00  0.00    -0.360 OA
HETATM   23  H   UNL     1      23.831  44.322  49.708  1.00  0.00     0.217 HD
ENDBRANCH   4  22
BRANCH   1  24
HETATM   24  C   UNL     1      26.654  49.601  48.810  1.00  0.00     0.037 C 
HETATM   25  C   UNL     1      28.109  49.431  49.222  1.00  0.00     0.010 C 
ENDBRANCH   1  24
BRANCH   2  26
HETATM   26  O   UNL     1      23.793  49.681  48.900  1.00  0.00    -0.346 OA
BRANCH  26  27
HETATM   27  C   UNL     1      22.653  49.450  48.060  1.00  0.00     0.214 C 
BRANCH  27  28
HETATM   28  C   UNL     1      21.406  50.022  48.698  1.00  0.00    -0.034 A 
HETATM   29  C   UNL     1      20.622  49.253  49.571  1.00  0.00     0.016 A 
HETATM   30  C   UNL     1      19.438  49.763  50.122  1.00  0.00    -0.061 A 
HETATM   31  C   UNL     1      18.596  48.927  51.039  1.00  0.00     0.048 C 
HETATM   32  C   UNL     1      19.026  51.054  49.773  1.00  0.00     0.007 A 
HETATM   33  C   UNL     1      19.791  51.826  48.899  1.00  0.00     0.001 A 
HETATM   34  C   UNL     1      20.971  51.311  48.361  1.00  0.00     0.009 A 
ENDBRANCH  27  28
ENDBRANCH  26  27
ENDBRANCH   2  26
TORSDOF 8
ENDMDL
MODEL 3
REMARK VINA RESULT:      -8.6      2.556      3.314
REMARK  8 active torsions:
REMARK  status: ('A' for Active; 'I' for Inactive)
REMARK    1  A    between atoms: C_2  and  C_3 
REMARK    2  A    between atoms: C_4  and  O_5 
REMARK    3  A    between atoms: O_5  and  C_6 
REMARK    4  A    between atoms: C_6  and  C_7 
REMARK    5  A    between atoms: C_15  and  O_16 
REMARK    6  A    between atoms: C_17  and  C_18 
REMARK    7  A    between atoms: C_22  and  N_23 
REMARK    8  A    between atoms: C_24  and  C_25 
ROOT
HETATM    1  C   UNL     1      26.563  44.152  53.435  1.00  0.00    -0.024 A 
HETATM    2  C   UNL     1      27.679  43.613  52.780  1.00  0.00     0.078 A 
HETATM    3  C   UNL     1      27.857  43.789  51.405  1.00  0.00     0.074 A 
HETATM    4  C   UNL     1      26.951  44.569  50.682  1.00  0.00     0.081 A 
HETATM    5  C   UNL     1      25.862  45.174  51.323  1.00  0.00     0.029 A 
HETATM    6  C   UNL     1      25.670  44.947  52.695  1.00  0.00     0.026 A 
ENDROOT
BRANCH   5   7
HETATM    7  C   UNL     1      24.952  46.069  50.612  1.00  0.00     0.107 A 
HETATM    8  N   UNL     1      24.941  47.380  50.917  1.00  0.00    -0.172 NA
HETATM    9  N   UNL     1      24.015  47.897  50.103  1.00  0.00    -0.262 N 
HETATM   10  H   UNL     1      23.844  48.893  50.148  1.00  0.00     0.191 HD
HETATM   11  C   UNL     1      23.384  46.981  49.309  1.00  0.00     0.131 A 
HETATM   12  C   UNL     1      23.961  45.764  49.625  1.00  0.00     0.076 A 
BRANCH  11  13
HETATM   13  N   UNL     1      22.409  47.366  48.456  1.00  0.00    -0.384 N 
HETATM   14  H   UNL     1      22.528  48.114  47.777  1.00  0.00     0.157 HD
HETATM   15  H   UNL     1      21.654  46.725  48.219  1.00  0.00     0.157 HD
ENDBRANCH  11  13
BRANCH  12  16
HETATM   16  C   UNL     1      23.615  44.422  49.052  1.00  0.00     0.114 A 
HETATM   17  S   UNL     1      23.152  43.058  50.003  1.00  0.00    -0.079 SA
HETATM   18  C   UNL     1      23.017  42.110  48.587  1.00  0.00     0.078 A 
HETATM   19  C   UNL     1      23.319  42.872  47.478  1.00  0.00     0.038 A 
HETATM   20  C   UNL     1      23.320  42.426  46.062  1.00  0.00     0.071 C 
HETATM   21  N   UNL     1      23.659  44.184  47.756  1.00  0.00    -0.245 NA
ENDBRANCH  12  16
ENDBRANCH   5   7
BRANCH   4  22
HETATM   22  O   UNL     1      27.128  44.724  49.332  1.00  0.00    -0.360 OA
HETATM   23  H   UNL     1      26.553  44.100  48.862  1.00  0.00     0.217 HD
ENDBRANCH   4  22
BRANCH   1  24
HETATM   24  C   UNL     1      26.294  43.900  54.898  1.00  0.00     0.037 C 
HETATM   25  C   UNL     1      24.810  43.959  55.230  1.00  0.00     0.010 C 
ENDBRANCH   1  24
BRANCH   2  26
HETATM   26  O   UNL     1      28.567  42.856  53.504  1.00  0.00    -0.346 OA
BRANCH  26  27
HETATM   27  C   UNL     1      29.848  43.497  53.589  1.00  0.00     0.214 C 
BRANCH  27  28
HETATM   28  C   UNL     1      30.186  43.803  55.032  1.00  0.00    -0.034 A 
HETATM   29  C   UNL     1      29.576  44.870  55.708  1.00  0.00     0.016 A 
HETATM   30  C   UNL     1      29.926  45.188  57.027  1.00  0.00    -0.061 A 
HETATM   31  C   UNL     1      29.283  46.343  57.736  1.00  0.00     0.048 C 
HETATM   32  C   UNL     1      30.918  44.437  57.668  1.00  0.00     0.007 A 
HETATM   33  C   UNL     1      31.539  43.379  57.005  1.00  0.00     0.001 A 
HETATM   34  C   UNL     1      31.179  43.067  55.694  1.00  0.00     0.009 A 
ENDBRANCH  27  28
ENDBRANCH  26  27
ENDBRANCH   2  26
TORSDOF 8
ENDMDL
MODEL 4
REMARK VINA RESULT:      -8.5      2.499      3.702
REMARK  8 active torsions:
REMARK  status: ('A' for Active; 'I' for Inactive)
REMARK    1  A    between atoms: C_2  and  C_3 
REMARK    2  A    between atoms: C_4  and  O_5 
REMARK    3  A    between atoms: O_5  and  C_6 
REMARK    4  A    between atoms: C_6  and  C_7 
REMARK    5  A    between atoms: C_15  and  O_16 
REMARK    6  A    between atoms: C_17  and  C_18 
REMARK    7  A    between atoms: C_22  and  N_23 
REMARK    8  A    between atoms: C_24  and  C_25 
ROOT
HETATM    1  C   UNL     1      25.814  46.707  50.660  1.00  0.00    -0.024 A 
HETATM    2  C   UNL     1      25.701  45.844  51.758  1.00  0.00     0.078 A 
HETATM    3  C   UNL     1      24.689  44.880  51.811  1.00  0.00     0.074 A 
HETATM    4  C   UNL     1      23.821  44.726  50.728  1.00  0.00     0.081 A 
HETATM    5  C   UNL     1      23.951  45.532  49.590  1.00  0.00     0.029 A 
HETATM    6  C   UNL     1      24.941  46.528  49.573  1.00  0.00     0.026 A 
ENDROOT
BRANCH   5   7
HETATM    7  C   UNL     1      23.119  45.331  48.406  1.00  0.00     0.107 A 
HETATM    8  N   UNL     1      23.157  44.149  47.763  1.00  0.00    -0.172 NA
HETATM    9  N   UNL     1      22.299  44.301  46.749  1.00  0.00    -0.262 N 
HETATM   10  H   UNL     1      22.152  43.518  46.127  1.00  0.00     0.191 HD
HETATM   11  C   UNL     1      21.733  45.543  46.667  1.00  0.00     0.131 A 
HETATM   12  C   UNL     1      22.259  46.255  47.730  1.00  0.00     0.076 A 
BRANCH  11  13
HETATM   13  N   UNL     1      20.866  45.840  45.674  1.00  0.00    -0.384 N 
HETATM   14  H   UNL     1      20.261  45.148  45.240  1.00  0.00     0.157 HD
HETATM   15  H   UNL     1      20.537  46.796  45.551  1.00  0.00     0.157 HD
ENDBRANCH  11  13
BRANCH  12  16
HETATM   16  C   UNL     1      21.982  47.685  48.088  1.00  0.00     0.114 A 
HETATM   17  S   UNL     1      20.519  48.229  48.823  1.00  0.00    -0.079 SA
HETATM   18  C   UNL     1      21.096  49.838  48.796  1.00  0.00     0.078 A 
HETATM   19  C   UNL     1      22.359  49.876  48.244  1.00  0.00     0.038 A 
HETATM   20  C   UNL     1      23.207  51.078  48.039  1.00  0.00     0.071 C 
HETATM   21  N   UNL     1      22.851  48.646  47.844  1.00  0.00    -0.245 NA
ENDBRANCH  12  16
ENDBRANCH   5   7
BRANCH   4  22
HETATM   22  O   UNL     1      22.825  43.788  50.796  1.00  0.00    -0.360 OA
HETATM   23  H   UNL     1      21.974  44.235  50.924  1.00  0.00     0.217 HD
ENDBRANCH   4  22
BRANCH   1  24
HETATM   24  C   UNL     1      26.834  47.817  50.617  1.00  0.00     0.037 C 
HETATM   25  C   UNL     1      26.876  48.510  49.262  1.00  0.00     0.010 C 
ENDBRANCH   1  24
BRANCH   2  26
HETATM   26  O   UNL     1      26.566  46.000  52.813  1.00  0.00    -0.346 OA
BRANCH  26  27
HETATM   27  C   UNL     1      26.513  44.873  53.700  1.00  0.00     0.214 C 
BRANCH  27  28
HETATM   28  C   UNL     1      27.843  44.151  53.711  1.00  0.00    -0.034 A 
HETATM   29  C   UNL     1      28.707  44.243  54.813  1.00  0.00     0.016 A 
HETATM   30  C   UNL     1      29.962  43.619  54.805  1.00  0.00    -0.061 A 
HETATM   31  C   UNL     1      30.887  43.739  55.979  1.00  0.00     0.048 C 
HETATM   32  C   UNL     1      30.362  42.911  53.666  1.00  0.00     0.007 A 
HETATM   33  C   UNL     1      29.518  42.819  52.561  1.00  0.00     0.001 A 
HETATM   34  C   UNL     1      28.268  43.439  52.581  1.00  0.00     0.009 A 
ENDBRANCH  27  28
ENDBRANCH  26  27
ENDBRANCH   2  26
TORSDOF 8
ENDMDL
MODEL 5
REMARK VINA RESULT:      -8.5      3.441      8.634
REMARK  8 active torsions:
REMARK  status: ('A' for Active; 'I' for Inactive)
REMARK    1  A    between atoms: C_2  and  C_3 
REMARK    2  A    between atoms: C_4  and  O_5 
REMARK    3  A    between atoms: O_5  and  C_6 
REMARK    4  A    between atoms: C_6  and  C_7 
REMARK    5  A    between atoms: C_15  and  O_16 
REMARK    6  A    between atoms: C_17  and  C_18 
REMARK    7  A    between atoms: C_22  and  N_23 
REMARK    8  A    between atoms: C_24  and  C_25 
ROOT
HETATM    1  C   UNL     1      26.108  47.087  49.948  1.00  0.00    -0.024 A 
HETATM    2  C   UNL     1      24.710  47.114  49.840  1.00  0.00     0.078 A 
HETATM    3  C   UNL     1      23.985  45.938  49.630  1.00  0.00     0.074 A 
HETATM    4  C   UNL     1      24.649  44.710  49.597  1.00  0.00     0.081 A 
HETATM    5  C   UNL     1      26.038  44.646  49.767  1.00  0.00     0.029 A 
HETATM    6  C   UNL     1      26.758  45.841  49.927  1.00  0.00     0.026 A 
ENDROOT
BRANCH   5   7
HETATM    7  C   UNL     1      26.747  43.370  49.830  1.00  0.00     0.107 A 
HETATM    8  N   UNL     1      26.762  42.567  48.750  1.00  0.00    -0.172 NA
HETATM    9  N   UNL     1      27.477  41.507  49.141  1.00  0.00    -0.262 N 
HETATM   10  H   UNL     1      27.635  40.766  48.472  1.00  0.00     0.191 HD
HETATM   11  C   UNL     1      27.895  41.554  50.442  1.00  0.00     0.131 A 
HETATM   12  C   UNL     1      27.421  42.757  50.934  1.00  0.00     0.076 A 
BRANCH  11  13
HETATM   13  N   UNL     1      28.606  40.535  50.973  1.00  0.00    -0.384 N 
HETATM   14  H   UNL     1      28.624  39.602  50.571  1.00  0.00     0.157 HD
HETATM   15  H   UNL     1      29.404  40.729  51.577  1.00  0.00     0.157 HD
ENDBRANCH  11  13
BRANCH  12  16
HETATM   16  C   UNL     1      27.583  43.293  52.326  1.00  0.00     0.114 A 
HETATM   17  S   UNL     1      26.299  43.982  53.250  1.00  0.00    -0.079 SA
HETATM   18  C   UNL     1      27.382  44.291  54.536  1.00  0.00     0.078 A 
HETATM   19  C   UNL     1      28.647  43.852  54.203  1.00  0.00     0.038 A 
HETATM   20  C   UNL     1      29.869  43.933  55.043  1.00  0.00     0.071 C 
HETATM   21  N   UNL     1      28.748  43.287  52.944  1.00  0.00    -0.245 NA
ENDBRANCH  12  16
ENDBRANCH   5   7
BRANCH   4  22
HETATM   22  O   UNL     1      23.929  43.565  49.377  1.00  0.00    -0.360 OA
HETATM   23  H   UNL     1      24.110  42.933  50.090  1.00  0.00     0.217 HD
ENDBRANCH   4  22
BRANCH   1  24
HETATM   24  C   UNL     1      26.925  48.348  50.080  1.00  0.00     0.037 C 
HETATM   25  C   UNL     1      27.268  48.956  48.727  1.00  0.00     0.010 C 
ENDBRANCH   1  24
BRANCH   2  26
HETATM   26  O   UNL     1      24.068  48.328  49.883  1.00  0.00    -0.346 OA
BRANCH  26  27
HETATM   27  C   UNL     1      23.492  48.656  48.611  1.00  0.00     0.214 C 
BRANCH  27  28
HETATM   28  C   UNL     1      22.183  49.391  48.801  1.00  0.00    -0.034 A 
HETATM   29  C   UNL     1      21.026  48.712  49.216  1.00  0.00     0.016 A 
HETATM   30  C   UNL     1      19.800  49.379  49.342  1.00  0.00    -0.061 A 
HETATM   31  C   UNL     1      18.565  48.642  49.766  1.00  0.00     0.048 C 
HETATM   32  C   UNL     1      19.731  50.741  49.028  1.00  0.00     0.007 A 
HETATM   33  C   UNL     1      20.870  51.426  48.606  1.00  0.00     0.001 A 
HETATM   34  C   UNL     1      22.087  50.753  48.489  1.00  0.00     0.009 A 
ENDBRANCH  27  28
ENDBRANCH  26  27
ENDBRANCH   2  26
TORSDOF 8
ENDMDL
MODEL 6
REMARK VINA RESULT:      -8.5      2.687      3.541
REMARK  8 active torsions:
REMARK  status: ('A' for Active; 'I' for Inactive)
REMARK    1  A    between atoms: C_2  and  C_3 
REMARK    2  A    between atoms: C_4  and  O_5 
REMARK    3  A    between atoms: O_5  and  C_6 
REMARK    4  A    between atoms: C_6  and  C_7 
REMARK    5  A    between atoms: C_15  and  O_16 
REMARK    6  A    between atoms: C_17  and  C_18 
REMARK    7  A    between atoms: C_22  and  N_23 
REMARK    8  A    between atoms: C_24  and  C_25 
ROOT
HETATM    1  C   UNL     1      25.980  44.415  52.882  1.00  0.00    -0.024 A 
HETATM    2  C   UNL     1      27.315  44.428  52.454  1.00  0.00     0.078 A 
HETATM    3  C   UNL     1      27.655  44.036  51.156  1.00  0.00     0.074 A 
HETATM    4  C   UNL     1      26.649  43.694  50.248  1.00  0.00     0.081 A 
HETATM    5  C   UNL     1      25.301  43.735  50.630  1.00  0.00     0.029 A 
HETATM    6  C   UNL     1      24.980  44.083  51.951  1.00  0.00     0.026 A 
ENDROOT
BRANCH   5   7
HETATM    7  C   UNL     1      24.225  43.473  49.677  1.00  0.00     0.107 A 
HETATM    8  N   UNL     1      23.954  42.205  49.317  1.00  0.00    -0.172 NA
HETATM    9  N   UNL     1      22.940  42.320  48.452  1.00  0.00    -0.262 N 
HETATM   10  H   UNL     1      22.554  41.475  48.055  1.00  0.00     0.191 HD
HETATM   11  C   UNL     1      22.562  43.608  48.191  1.00  0.00     0.131 A 
HETATM   12  C   UNL     1      23.394  44.397  48.966  1.00  0.00     0.076 A 
BRANCH  11  13
HETATM   13  N   UNL     1      21.566  43.869  47.317  1.00  0.00    -0.384 N 
HETATM   14  H   UNL     1      21.450  44.769  46.860  1.00  0.00     0.157 HD
HETATM   15  H   UNL     1      21.105  43.105  46.825  1.00  0.00     0.157 HD
ENDBRANCH  11  13
BRANCH  12  16
HETATM   16  C   UNL     1      23.413  45.895  49.037  1.00  0.00     0.114 A 
HETATM   17  S   UNL     1      24.626  46.806  49.860  1.00  0.00    -0.079 SA
HETATM   18  C   UNL     1      23.828  48.259  49.440  1.00  0.00     0.078 A 
HETATM   19  C   UNL     1      22.699  47.979  48.699  1.00  0.00     0.038 A 
HETATM   20  C   UNL     1      21.733  48.959  48.142  1.00  0.00     0.071 C 
HETATM   21  N   UNL     1      22.473  46.632  48.478  1.00  0.00    -0.245 NA
ENDBRANCH  12  16
ENDBRANCH   5   7
BRANCH   4  22
HETATM   22  O   UNL     1      26.994  43.298  48.983  1.00  0.00    -0.360 OA
HETATM   23  H   UNL     1      26.342  43.640  48.353  1.00  0.00     0.217 HD
ENDBRANCH   4  22
BRANCH   1  24
HETATM   24  C   UNL     1      25.593  44.741  54.303  1.00  0.00     0.037 C 
HETATM   25  C   UNL     1      25.629  43.516  55.206  1.00  0.00     0.010 C 
ENDBRANCH   1  24
BRANCH   2  26
HETATM   26  O   UNL     1      28.293  44.775  53.352  1.00  0.00    -0.346 OA
BRANCH  26  27
HETATM   27  C   UNL     1      29.114  43.647  53.689  1.00  0.00     0.214 C 
BRANCH  27  28
HETATM   28  C   UNL     1      29.781  43.863  55.030  1.00  0.00    -0.034 A 
HETATM   29  C   UNL     1      29.406  44.931  55.859  1.00  0.00     0.016 A 
HETATM   30  C   UNL     1      30.058  45.166  57.077  1.00  0.00    -0.061 A 
HETATM   31  C   UNL     1      29.664  46.322  57.949  1.00  0.00     0.048 C 
HETATM   32  C   UNL     1      31.114  44.330  57.456  1.00  0.00     0.007 A 
HETATM   33  C   UNL     1      31.503  43.271  56.637  1.00  0.00     0.001 A 
HETATM   34  C   UNL     1      30.844  43.042  55.429  1.00  0.00     0.009 A 
ENDBRANCH  27  28
ENDBRANCH  26  27
ENDBRANCH   2  26
TORSDOF 8
ENDMDL
MODEL 7
REMARK VINA RESULT:      -8.4     17.232     19.886
REMARK  8 active torsions:
REMARK  status: ('A' for Active; 'I' for Inactive)
REMARK    1  A    between atoms: C_2  and  C_3 
REMARK    2  A    between atoms: C_4  and  O_5 
REMARK    3  A    between atoms: O_5  and  C_6 
REMARK    4  A    between atoms: C_6  and  C_7 
REMARK    5  A    between atoms: C_15  and  O_16 
REMARK    6  A    between atoms: C_17  and  C_18 
REMARK    7  A    between atoms: C_22  and  N_23 
REMARK    8  A    between atoms: C_24  and  C_25 
ROOT
HETATM    1  C   UNL     1      36.632  43.015  64.741  1.00  0.00    -0.024 A 
HETATM    2  C   UNL     1      36.928  44.161  63.989  1.00  0.00     0.078 A 
HETATM    3  C   UNL     1      38.054  44.204  63.162  1.00  0.00     0.074 A 
HETATM    4  C   UNL     1      38.858  43.070  63.025  1.00  0.00     0.081 A 
HETATM    5  C   UNL     1      38.550  41.890  63.714  1.00  0.00     0.029 A 
HETATM    6  C   UNL     1      37.444  41.879  64.579  1.00  0.00     0.026 A 
ENDROOT
BRANCH   5   7
HETATM    7  C   UNL     1      39.318  40.663  63.519  1.00  0.00     0.107 A 
HETATM    8  N   UNL     1      39.186  39.976  62.369  1.00  0.00    -0.172 NA
HETATM    9  N   UNL     1      40.006  38.930  62.517  1.00  0.00    -0.262 N 
HETATM   10  H   UNL     1      40.082  38.272  61.754  1.00  0.00     0.191 HD
HETATM   11  C   UNL     1      40.636  38.872  63.729  1.00  0.00     0.131 A 
HETATM   12  C   UNL     1      40.197  39.986  64.422  1.00  0.00     0.076 A 
BRANCH  11  13
HETATM   13  N   UNL     1      41.475  37.853  64.020  1.00  0.00    -0.384 N 
HETATM   14  H   UNL     1      41.968  37.320  63.310  1.00  0.00     0.157 HD
HETATM   15  H   UNL     1      41.908  37.794  64.941  1.00  0.00     0.157 HD
ENDBRANCH  11  13
BRANCH  12  16
HETATM   16  C   UNL     1      40.569  40.388  65.819  1.00  0.00     0.114 A 
HETATM   17  S   UNL     1      40.868  42.016  66.307  1.00  0.00    -0.079 SA
HETATM   18  C   UNL     1      41.214  41.483  67.894  1.00  0.00     0.078 A 
HETATM   19  C   UNL     1      41.078  40.112  67.972  1.00  0.00     0.038 A 
HETATM   20  C   UNL     1      41.288  39.262  69.170  1.00  0.00     0.071 C 
HETATM   21  N   UNL     1      40.713  39.501  66.785  1.00  0.00    -0.245 NA
ENDBRANCH  12  16
ENDBRANCH   5   7
BRANCH   4  22
HETATM   22  O   UNL     1      39.967  43.128  62.222  1.00  0.00    -0.360 OA
HETATM   23  H   UNL     1      40.034  42.307  61.711  1.00  0.00     0.217 HD
ENDBRANCH   4  22
BRANCH   1  24
HETATM   24  C   UNL     1      35.480  42.972  65.713  1.00  0.00     0.037 C 
HETATM   25  C   UNL     1      34.584  41.762  65.492  1.00  0.00     0.010 C 
ENDBRANCH   1  24
BRANCH   2  26
HETATM   26  O   UNL     1      36.125  45.266  64.126  1.00  0.00    -0.346 OA
BRANCH  26  27
HETATM   27  C   UNL     1      36.846  46.472  63.835  1.00  0.00     0.214 C 
BRANCH  27  28
HETATM   28  C   UNL     1      36.791  47.415  65.018  1.00  0.00    -0.034 A 
HETATM   29  C   UNL     1      37.458  48.649  64.991  1.00  0.00     0.016 A 
HETATM   30  C   UNL     1      37.454  49.500  66.104  1.00  0.00    -0.061 A 
HETATM   31  C   UNL     1      38.186  50.809  66.074  1.00  0.00     0.048 C 
HETATM   32  C   UNL     1      36.787  49.097  67.267  1.00  0.00     0.007 A 
HETATM   33  C   UNL     1      36.128  47.869  67.311  1.00  0.00     0.001 A 
HETATM   34  C   UNL     1      36.134  47.031  66.195  1.00  0.00     0.009 A 
ENDBRANCH  27  28
ENDBRANCH  26  27
ENDBRANCH   2  26
TORSDOF 8
ENDMDL
MODEL 8
REMARK VINA RESULT:      -8.4      2.874      4.715
REMARK  8 active torsions:
REMARK  status: ('A' for Active; 'I' for Inactive)
REMARK    1  A    between atoms: C_2  and  C_3 
REMARK    2  A    between atoms: C_4  and  O_5 
REMARK    3  A    between atoms: O_5  and  C_6 
REMARK    4  A    between atoms: C_6  and  C_7 
REMARK    5  A    between atoms: C_15  and  O_16 
REMARK    6  A    between atoms: C_17  and  C_18 
REMARK    7  A    between atoms: C_22  and  N_23 
REMARK    8  A    between atoms: C_24  and  C_25 
ROOT
HETATM    1  C   UNL     1      25.469  45.137  53.750  1.00  0.00    -0.024 A 
HETATM    2  C   UNL     1      26.156  46.336  53.986  1.00  0.00     0.078 A 
HETATM    3  C   UNL     1      26.401  47.238  52.948  1.00  0.00     0.074 A 
HETATM    4  C   UNL     1      25.895  46.980  51.671  1.00  0.00     0.081 A 
HETATM    5  C   UNL     1      25.149  45.821  51.421  1.00  0.00     0.029 A 
HETATM    6  C   UNL     1      24.955  44.901  52.464  1.00  0.00     0.026 A 
ENDROOT
BRANCH   5   7
HETATM    7  C   UNL     1      24.530  45.571  50.122  1.00  0.00     0.107 A 
HETATM    8  N   UNL     1      23.747  46.516  49.569  1.00  0.00    -0.172 NA
HETATM    9  N   UNL     1      23.349  45.975  48.412  1.00  0.00    -0.262 N 
HETATM   10  H   UNL     1      22.751  46.525  47.810  1.00  0.00     0.191 HD
HETATM   11  C   UNL     1      23.796  44.701  48.199  1.00  0.00     0.131 A 
HETATM   12  C   UNL     1      24.564  44.394  49.309  1.00  0.00     0.076 A 
BRANCH  11  13
HETATM   13  N   UNL     1      23.449  44.028  47.081  1.00  0.00    -0.384 N 
HETATM   14  H   UNL     1      22.575  43.517  46.989  1.00  0.00     0.157 HD
HETATM   15  H   UNL     1      23.866  44.275  46.185  1.00  0.00     0.157 HD
ENDBRANCH  11  13
BRANCH  12  16
HETATM   16  C   UNL     1      25.273  43.101  49.589  1.00  0.00     0.114 A 
HETATM   17  S   UNL     1      24.635  41.547  49.197  1.00  0.00    -0.079 SA
HETATM   18  C   UNL     1      26.018  40.802  49.873  1.00  0.00     0.078 A 
HETATM   19  C   UNL     1      26.885  41.764  50.349  1.00  0.00     0.038 A 
HETATM   20  C   UNL     1      28.196  41.534  51.008  1.00  0.00     0.071 C 
HETATM   21  N   UNL     1      26.450  43.066  50.183  1.00  0.00    -0.245 NA
ENDBRANCH  12  16
ENDBRANCH   5   7
BRANCH   4  22
HETATM   22  O   UNL     1      26.153  47.865  50.657  1.00  0.00    -0.360 OA
HETATM   23  H   UNL     1      25.514  48.593  50.700  1.00  0.00     0.217 HD
ENDBRANCH   4  22
BRANCH   1  24
HETATM   24  C   UNL     1      25.273  44.101  54.829  1.00  0.00     0.037 C 
HETATM   25  C   UNL     1      26.379  43.056  54.833  1.00  0.00     0.010 C 
ENDBRANCH   1  24
BRANCH   2  26
HETATM   26  O   UNL     1      26.641  46.582  55.248  1.00  0.00    -0.346 OA
BRANCH  26  27
HETATM   27  C   UNL     1      27.979  47.098  55.199  1.00  0.00     0.214 C 
BRANCH  27  28
HETATM   28  C   UNL     1      28.977  45.994  55.473  1.00  0.00    -0.034 A 
HETATM   29  C   UNL     1      29.148  44.933  54.570  1.00  0.00     0.016 A 
HETATM   30  C   UNL     1      30.033  43.882  54.846  1.00  0.00    -0.061 A 
HETATM   31  C   UNL     1      30.195  42.742  53.885  1.00  0.00     0.048 C 
HETATM   32  C   UNL     1      30.740  43.886  56.054  1.00  0.00     0.007 A 
HETATM   33  C   UNL     1      30.573  44.930  56.964  1.00  0.00     0.001 A 
HETATM   34  C   UNL     1      29.693  45.974  56.677  1.00  0.00     0.009 A 
ENDBRANCH  27  28
ENDBRANCH  26  27
ENDBRANCH   2  26
TORSDOF 8
ENDMDL
MODEL 9
REMARK VINA RESULT:      -8.3      2.518      4.321
REMARK  8 active torsions:
REMARK  status: ('A' for Active; 'I' for Inactive)
REMARK    1  A    between atoms: C_2  and  C_3 
REMARK    2  A    between atoms: C_4  and  O_5 
REMARK    3  A    between atoms: O_5  and  C_6 
REMARK    4  A    between atoms: C_6  and  C_7 
REMARK    5  A    between atoms: C_15  and  O_16 
REMARK    6  A    between atoms: C_17  and  C_18 
REMARK    7  A    between atoms: C_22  and  N_23 
REMARK    8  A    between atoms: C_24  and  C_25 
ROOT
HETATM    1  C   UNL     1      27.464  42.291  52.003  1.00  0.00    -0.024 A 
HETATM    2  C   UNL     1      27.571  42.859  53.280  1.00  0.00     0.078 A 
HETATM    3  C   UNL     1      26.653  43.818  53.717  1.00  0.00     0.074 A 
HETATM    4  C   UNL     1      25.573  44.166  52.901  1.00  0.00     0.081 A 
HETATM    5  C   UNL     1      25.405  43.566  51.647  1.00  0.00     0.029 A 
HETATM    6  C   UNL     1      26.363  42.642  51.203  1.00  0.00     0.026 A 
ENDROOT
BRANCH   5   7
HETATM    7  C   UNL     1      24.237  43.842  50.814  1.00  0.00     0.107 A 
HETATM    8  N   UNL     1      23.254  42.926  50.728  1.00  0.00    -0.172 NA
HETATM    9  N   UNL     1      22.360  43.481  49.903  1.00  0.00    -0.262 N 
HETATM   10  H   UNL     1      21.514  42.966  49.701  1.00  0.00     0.191 HD
HETATM   11  C   UNL     1      22.730  44.699  49.405  1.00  0.00     0.131 A 
HETATM   12  C   UNL     1      23.966  44.964  49.968  1.00  0.00     0.076 A 
BRANCH  11  13
HETATM   13  N   UNL     1      21.930  45.360  48.539  1.00  0.00    -0.384 N 
HETATM   14  H   UNL     1      21.441  46.218  48.780  1.00  0.00     0.157 HD
HETATM   15  H   UNL     1      22.044  45.229  47.536  1.00  0.00     0.157 HD
ENDBRANCH  11  13
BRANCH  12  16
HETATM   16  C   UNL     1      24.827  46.170  49.735  1.00  0.00     0.114 A 
HETATM   17  S   UNL     1      26.543  46.178  49.912  1.00  0.00    -0.079 SA
HETATM   18  C   UNL     1      26.583  47.839  49.508  1.00  0.00     0.078 A 
HETATM   19  C   UNL     1      25.306  48.293  49.254  1.00  0.00     0.038 A 
HETATM   20  C   UNL     1      24.910  49.672  48.871  1.00  0.00     0.071 C 
HETATM   21  N   UNL     1      24.316  47.336  49.389  1.00  0.00    -0.245 NA
ENDBRANCH  12  16
ENDBRANCH   5   7
BRANCH   4  22
HETATM   22  O   UNL     1      24.687  45.117  53.334  1.00  0.00    -0.360 OA
HETATM   23  H   UNL     1      25.022  45.516  54.152  1.00  0.00     0.217 HD
ENDBRANCH   4  22
BRANCH   1  24
HETATM   24  C   UNL     1      28.492  41.325  51.468  1.00  0.00     0.037 C 
HETATM   25  C   UNL     1      27.883  40.298  50.524  1.00  0.00     0.010 C 
ENDBRANCH   1  24
BRANCH   2  26
HETATM   26  O   UNL     1      28.633  42.502  54.075  1.00  0.00    -0.346 OA
BRANCH  26  27
HETATM   27  C   UNL     1      29.687  43.472  54.001  1.00  0.00     0.214 C 
BRANCH  27  28
HETATM   28  C   UNL     1      30.207  43.788  55.387  1.00  0.00    -0.034 A 
HETATM   29  C   UNL     1      29.714  44.885  56.111  1.00  0.00     0.016 A 
HETATM   30  C   UNL     1      30.231  45.212  57.372  1.00  0.00    -0.061 A 
HETATM   31  C   UNL     1      29.712  46.397  58.131  1.00  0.00     0.048 C 
HETATM   32  C   UNL     1      31.271  44.440  57.903  1.00  0.00     0.007 A 
HETATM   33  C   UNL     1      31.776  43.353  57.190  1.00  0.00     0.001 A 
HETATM   34  C   UNL     1      31.251  43.032  55.937  1.00  0.00     0.009 A 
ENDBRANCH  27  28
ENDBRANCH  26  27
ENDBRANCH   2  26
TORSDOF 8
ENDMDL
MODEL 10
REMARK VINA RESULT:      -8.3      4.578      6.555
REMARK  8 active torsions:
REMARK  status: ('A' for Active; 'I' for Inactive)
REMARK    1  A    between atoms: C_2  and  C_3 
REMARK    2  A    between atoms: C_4  and  O_5 
REMARK    3  A    between atoms: O_5  and  C_6 
REMARK    4  A    between atoms: C_6  and  C_7 
REMARK    5  A    between atoms: C_15  and  O_16 
REMARK    6  A    between atoms: C_17  and  C_18 
REMARK    7  A    between atoms: C_22  and  N_23 
REMARK    8  A    between atoms: C_24  and  C_25 
ROOT
HETATM    1  C   UNL     1      27.564  42.112  52.001  1.00  0.00    -0.024 A 
HETATM    2  C   UNL     1      28.018  43.432  51.871  1.00  0.00     0.078 A 
HETATM    3  C   UNL     1      27.500  44.274  50.883  1.00  0.00     0.074 A 
HETATM    4  C   UNL     1      26.468  43.822  50.057  1.00  0.00     0.081 A 
HETATM    5  C   UNL     1      25.950  42.529  50.208  1.00  0.00     0.029 A 
HETATM    6  C   UNL     1      26.515  41.679  51.172  1.00  0.00     0.026 A 
ENDROOT
BRANCH   5   7
HETATM    7  C   UNL     1      24.810  42.062  49.423  1.00  0.00     0.107 A 
HETATM    8  N   UNL     1      23.574  42.505  49.722  1.00  0.00    -0.172 NA
HETATM    9  N   UNL     1      22.784  41.893  48.834  1.00  0.00    -0.262 N 
HETATM   10  H   UNL     1      21.793  42.092  48.861  1.00  0.00     0.191 HD
HETATM   11  C   UNL     1      23.435  41.032  47.995  1.00  0.00     0.131 A 
HETATM   12  C   UNL     1      24.767  41.103  48.361  1.00  0.00     0.076 A 
BRANCH  11  13
HETATM   13  N   UNL     1      22.751  40.329  47.065  1.00  0.00    -0.384 N 
HETATM   14  H   UNL     1      21.976  40.718  46.535  1.00  0.00     0.157 HD
HETATM   15  H   UNL     1      23.181  39.522  46.617  1.00  0.00     0.157 HD
ENDBRANCH  11  13
BRANCH  12  16
HETATM   16  C   UNL     1      25.912  40.336  47.767  1.00  0.00     0.114 A 
HETATM   17  S   UNL     1      26.448  40.514  46.136  1.00  0.00    -0.079 SA
HETATM   18  C   UNL     1      27.642  39.318  46.392  1.00  0.00     0.078 A 
HETATM   19  C   UNL     1      27.577  38.857  47.691  1.00  0.00     0.038 A 
HETATM   20  C   UNL     1      28.438  37.820  48.313  1.00  0.00     0.071 C 
HETATM   21  N   UNL     1      26.588  39.443  48.462  1.00  0.00    -0.245 NA
ENDBRANCH  12  16
ENDBRANCH   5   7
BRANCH   4  22
HETATM   22  O   UNL     1      25.977  44.651  49.083  1.00  0.00    -0.360 OA
HETATM   23  H   UNL     1      25.429  44.135  48.472  1.00  0.00     0.217 HD
ENDBRANCH   4  22
BRANCH   1  24
HETATM   24  C   UNL     1      28.170  41.153  52.994  1.00  0.00     0.037 C 
HETATM   25  C   UNL     1      29.137  40.177  52.338  1.00  0.00     0.010 C 
ENDBRANCH   1  24
BRANCH   2  26
HETATM   26  O   UNL     1      29.028  43.868  52.694  1.00  0.00    -0.346 OA
BRANCH  26  27
HETATM   27  C   UNL     1      28.504  44.549  53.843  1.00  0.00     0.214 C 
BRANCH  27  28
HETATM   28  C   UNL     1      29.428  44.370  55.027  1.00  0.00    -0.034 A 
HETATM   29  C   UNL     1      29.477  45.322  56.057  1.00  0.00     0.016 A 
HETATM   30  C   UNL     1      30.371  45.186  57.128  1.00  0.00    -0.061 A 
HETATM   31  C   UNL     1      30.431  46.219  58.214  1.00  0.00     0.048 C 
HETATM   32  C   UNL     1      31.241  44.090  57.154  1.00  0.00     0.007 A 
HETATM   33  C   UNL     1      31.209  43.141  56.132  1.00  0.00     0.001 A 
HETATM   34  C   UNL     1      30.312  43.283  55.073  1.00  0.00     0.009 A 
ENDBRANCH  27  28
ENDBRANCH  26  27
ENDBRANCH   2  26
TORSDOF 8
ENDMDL
