MODEL 1
REMARK VINA RESULT:      -7.5      0.000      0.000
REMARK  10 active torsions:
REMARK  status: ('A' for Active; 'I' for Inactive)
REMARK    1  A    between atoms: C_6  and  C_7 
REMARK    2  A    between atoms: C_7  and  C_8 
REMARK       I    between atoms: C_8  and  N_9 
REMARK    3  A    between atoms: N_9  and  C_10 
REMARK    4  A    between atoms: C_10  and  C_11 
REMARK    5  A    between atoms: C_11  and  N_12 
REMARK    6  A    between atoms: C_19  and  C_20 
REMARK    7  A    between atoms: C_29  and  C_30 
REMARK    8  A    between atoms: C_30  and  O_31 
REMARK    9  A    between atoms: O_31  and  C_32 
REMARK   10  A    between atoms: C_32  and  C_33 
ROOT
HETATM    1  C   UNL     1      13.922  49.433  44.998  1.00  0.00     0.071 C 
HETATM    2  C   UNL     1      14.876  50.515  45.438  1.00  0.00     0.048 C 
HETATM    3  N   UNL     1      14.478  51.807  45.074  1.00  0.00    -0.229 NA
HETATM    4  C   UNL     1      14.776  52.746  45.916  1.00  0.00     0.170 C 
HETATM    5  N   UNL     1      15.754  52.508  47.116  1.00  0.00    -0.319 N 
HETATM    6  C   UNL     1      15.221  53.020  48.179  1.00  0.00     0.011 C 
HETATM    7  C   UNL     1      16.734  51.505  46.663  1.00  0.00     0.166 C 
HETATM    8  S   UNL     1      13.964  54.253  46.088  1.00  0.00    -0.086 SA
HETATM    9  C   UNL     1      14.217  54.137  47.906  1.00  0.00     0.135 C 
HETATM   10  C   UNL     1      15.907  50.314  46.296  1.00  0.00     0.069 C 
ENDROOT
BRANCH   6  11
HETATM   11  C   UNL     1      15.531  52.487  49.548  1.00  0.00     0.156 C 
BRANCH  11  12
HETATM   12  C   UNL     1      14.758  53.198  50.635  1.00  0.00     0.223 C 
HETATM   13  N   UNL     1      15.373  54.254  51.273  1.00  0.00    -0.359 N 
HETATM   14  H   UNL     1      16.333  54.511  51.043  1.00  0.00     0.162 HD
HETATM   15  O   UNL     1      13.646  52.794  50.965  1.00  0.00    -0.273 OA
BRANCH  13  16
HETATM   16  C   UNL     1      14.617  54.986  52.287  1.00  0.00     0.150 C 
BRANCH  16  17
HETATM   17  C   UNL     1      15.074  56.429  52.560  1.00  0.00     0.254 C 
BRANCH  17  18
HETATM   18  N   UNL     1      14.941  56.779  54.033  1.00  0.00    -0.070 N 
HETATM   19  H   UNL     1      15.002  55.911  54.585  1.00  0.00     0.279 HD
HETATM   20  C   UNL     1      13.623  57.454  54.399  1.00  0.00     0.235 C 
HETATM   21  C   UNL     1      14.007  58.886  54.704  1.00  0.00     0.029 C 
HETATM   22  C   UNL     1      15.347  58.732  55.390  1.00  0.00     0.029 C 
HETATM   23  C   UNL     1      16.055  57.694  54.541  1.00  0.00     0.235 C 
ENDBRANCH  17  18
ENDBRANCH  16  17
ENDBRANCH  13  16
ENDBRANCH  11  12
ENDBRANCH   6  11
BRANCH   7  24
HETATM   24  C   UNL     1      18.071  51.336  47.369  1.00  0.00    -0.030 A 
HETATM   25  C   UNL     1      18.478  52.097  48.476  1.00  0.00     0.011 A 
HETATM   26  C   UNL     1      19.776  51.985  48.998  1.00  0.00     0.024 A 
HETATM   27  C   UNL     1      20.709  51.151  48.392  1.00  0.00     0.034 A 
HETATM   28 CL   UNL     1      22.304  51.045  49.017  1.00  0.00    -0.084 Cl
HETATM   29  C   UNL     1      20.357  50.432  47.259  1.00  0.00     0.024 A 
HETATM   30  C   UNL     1      19.059  50.534  46.750  1.00  0.00     0.011 A 
ENDBRANCH   7  24
BRANCH  10  31
HETATM   31  C   UNL     1      15.772  49.268  47.321  1.00  0.00     0.294 C 
HETATM   32  O   UNL     1      15.093  49.485  48.319  1.00  0.00    -0.259 OA
BRANCH  31  33
HETATM   33  O   UNL     1      16.607  48.239  47.105  1.00  0.00    -0.314 OA
BRANCH  33  34
HETATM   34  C   UNL     1      16.726  47.372  48.242  1.00  0.00     0.206 C 
BRANCH  34  35
HETATM   35  C   UNL     1      18.079  47.554  48.844  1.00  0.00    -0.011 C 
HETATM   36  C   UNL     1      18.361  48.451  49.798  1.00  0.00     0.009 C 
ENDBRANCH  34  35
ENDBRANCH  33  34
ENDBRANCH  31  33
ENDBRANCH  10  31
TORSDOF 10
ENDMDL
MODEL 2
REMARK VINA RESULT:      -7.4      8.885     12.466
REMARK  10 active torsions:
REMARK  status: ('A' for Active; 'I' for Inactive)
REMARK    1  A    between atoms: C_6  and  C_7 
REMARK    2  A    between atoms: C_7  and  C_8 
REMARK       I    between atoms: C_8  and  N_9 
REMARK    3  A    between atoms: N_9  and  C_10 
REMARK    4  A    between atoms: C_10  and  C_11 
REMARK    5  A    between atoms: C_11  and  N_12 
REMARK    6  A    between atoms: C_19  and  C_20 
REMARK    7  A    between atoms: C_29  and  C_30 
REMARK    8  A    between atoms: C_30  and  O_31 
REMARK    9  A    between atoms: O_31  and  C_32 
REMARK   10  A    between atoms: C_32  and  C_33 
ROOT
HETATM    1  C   UNL     1      27.716  43.212  54.254  1.00  0.00     0.071 C 
HETATM    2  C   UNL     1      27.440  43.630  52.832  1.00  0.00     0.048 C 
HETATM    3  N   UNL     1      27.802  42.671  51.877  1.00  0.00    -0.229 NA
HETATM    4  C   UNL     1      27.040  42.604  50.830  1.00  0.00     0.170 C 
HETATM    5  N   UNL     1      25.963  43.696  50.513  1.00  0.00    -0.319 N 
HETATM    6  C   UNL     1      24.863  43.095  50.189  1.00  0.00     0.011 C 
HETATM    7  C   UNL     1      26.495  44.969  51.030  1.00  0.00     0.166 C 
HETATM    8  S   UNL     1      26.827  41.232  49.814  1.00  0.00    -0.086 SA
HETATM    9  C   UNL     1      25.052  41.681  49.646  1.00  0.00     0.135 C 
HETATM   10  C   UNL     1      26.710  44.720  52.489  1.00  0.00     0.069 C 
ENDROOT
BRANCH   6  11
HETATM   11  C   UNL     1      23.523  43.736  50.411  1.00  0.00     0.156 C 
BRANCH  11  12
HETATM   12  C   UNL     1      22.930  44.296  49.139  1.00  0.00     0.223 C 
HETATM   13  N   UNL     1      21.658  44.825  49.204  1.00  0.00    -0.359 N 
HETATM   14  H   UNL     1      21.128  44.794  50.074  1.00  0.00     0.162 HD
HETATM   15  O   UNL     1      23.552  44.219  48.083  1.00  0.00    -0.273 OA
BRANCH  13  16
HETATM   16  C   UNL     1      21.094  45.422  47.995  1.00  0.00     0.150 C 
BRANCH  16  17
HETATM   17  C   UNL     1      21.157  46.956  47.906  1.00  0.00     0.254 C 
BRANCH  17  18
HETATM   18  N   UNL     1      20.539  47.603  49.134  1.00  0.00    -0.070 N 
HETATM   19  H   UNL     1      20.951  47.174  49.977  1.00  0.00     0.279 HD
HETATM   20  C   UNL     1      19.027  47.433  49.237  1.00  0.00     0.235 C 
HETATM   21  C   UNL     1      18.474  48.815  48.963  1.00  0.00     0.029 C 
HETATM   22  C   UNL     1      19.488  49.718  49.631  1.00  0.00     0.029 C 
HETATM   23  C   UNL     1      20.816  49.102  49.233  1.00  0.00     0.235 C 
ENDBRANCH  17  18
ENDBRANCH  16  17
ENDBRANCH  13  16
ENDBRANCH  11  12
ENDBRANCH   6  11
BRANCH   7  24
HETATM   24  C   UNL     1      25.954  46.305  50.540  1.00  0.00    -0.030 A 
HETATM   25  C   UNL     1      24.594  46.653  50.545  1.00  0.00     0.011 A 
HETATM   26  C   UNL     1      24.147  47.846  49.956  1.00  0.00     0.024 A 
HETATM   27  C   UNL     1      25.041  48.687  49.304  1.00  0.00     0.034 A 
HETATM   28 CL   UNL     1      24.480  50.127  48.556  1.00  0.00    -0.084 Cl
HETATM   29  C   UNL     1      26.382  48.340  49.226  1.00  0.00     0.024 A 
HETATM   30  C   UNL     1      26.828  47.160  49.826  1.00  0.00     0.011 A 
ENDBRANCH   7  24
BRANCH  10  31
HETATM   31  C   UNL     1      25.636  45.158  53.394  1.00  0.00     0.294 C 
HETATM   32  O   UNL     1      24.665  44.430  53.573  1.00  0.00    -0.259 OA
BRANCH  31  33
HETATM   33  O   UNL     1      25.782  46.438  53.769  1.00  0.00    -0.314 OA
BRANCH  33  34
HETATM   34  C   UNL     1      27.138  46.767  54.105  1.00  0.00     0.206 C 
BRANCH  34  35
HETATM   35  C   UNL     1      27.145  47.496  55.407  1.00  0.00    -0.011 C 
HETATM   36  C   UNL     1      26.424  48.597  55.653  1.00  0.00     0.009 C 
ENDBRANCH  34  35
ENDBRANCH  33  34
ENDBRANCH  31  33
ENDBRANCH  10  31
TORSDOF 10
ENDMDL
MODEL 3
REMARK VINA RESULT:      -6.8      5.005      9.081
REMARK  10 active torsions:
REMARK  status: ('A' for Active; 'I' for Inactive)
REMARK    1  A    between atoms: C_6  and  C_7 
REMARK    2  A    between atoms: C_7  and  C_8 
REMARK       I    between atoms: C_8  and  N_9 
REMARK    3  A    between atoms: N_9  and  C_10 
REMARK    4  A    between atoms: C_10  and  C_11 
REMARK    5  A    between atoms: C_11  and  N_12 
REMARK    6  A    between atoms: C_19  and  C_20 
REMARK    7  A    between atoms: C_29  and  C_30 
REMARK    8  A    between atoms: C_30  and  O_31 
REMARK    9  A    between atoms: O_31  and  C_32 
REMARK   10  A    between atoms: C_32  and  C_33 
ROOT
HETATM    1  C   UNL     1      17.754  52.272  49.908  1.00  0.00     0.071 C 
HETATM    2  C   UNL     1      18.556  51.742  48.747  1.00  0.00     0.048 C 
HETATM    3  N   UNL     1      19.902  52.127  48.763  1.00  0.00    -0.229 NA
HETATM    4  C   UNL     1      20.743  51.253  48.304  1.00  0.00     0.170 C 
HETATM    5  N   UNL     1      20.275  49.976  47.528  1.00  0.00    -0.319 N 
HETATM    6  C   UNL     1      20.922  48.958  47.998  1.00  0.00     0.011 C 
HETATM    7  C   UNL     1      19.045  50.352  46.807  1.00  0.00     0.166 C 
HETATM    8  S   UNL     1      22.411  51.137  48.708  1.00  0.00    -0.086 SA
HETATM    9  C   UNL     1      22.258  49.306  48.650  1.00  0.00     0.135 C 
HETATM   10  C   UNL     1      18.106  50.800  47.881  1.00  0.00     0.069 C 
ENDROOT
BRANCH   6  11
HETATM   11  C   UNL     1      20.346  47.573  47.956  1.00  0.00     0.156 C 
BRANCH  11  12
HETATM   12  C   UNL     1      21.405  46.507  47.788  1.00  0.00     0.223 C 
HETATM   13  N   UNL     1      21.677  45.697  48.871  1.00  0.00    -0.359 N 
HETATM   14  H   UNL     1      21.206  45.849  49.763  1.00  0.00     0.162 HD
HETATM   15  O   UNL     1      22.031  46.422  46.735  1.00  0.00    -0.273 OA
BRANCH  13  16
HETATM   16  C   UNL     1      22.658  44.627  48.705  1.00  0.00     0.150 C 
BRANCH  16  17
HETATM   17  C   UNL     1      24.070  44.916  49.242  1.00  0.00     0.254 C 
BRANCH  17  18
HETATM   18  N   UNL     1      24.016  45.776  50.494  1.00  0.00    -0.070 N 
HETATM   19  H   UNL     1      23.029  45.934  50.744  1.00  0.00     0.279 HD
HETATM   20  C   UNL     1      24.668  47.146  50.341  1.00  0.00     0.235 C 
HETATM   21  C   UNL     1      25.928  47.058  51.173  1.00  0.00     0.029 C 
HETATM   22  C   UNL     1      25.490  46.217  52.353  1.00  0.00     0.029 C 
HETATM   23  C   UNL     1      24.669  45.117  51.709  1.00  0.00     0.235 C 
ENDBRANCH  17  18
ENDBRANCH  16  17
ENDBRANCH  13  16
ENDBRANCH  11  12
ENDBRANCH   6  11
BRANCH   7  24
HETATM   24  C   UNL     1      18.544  49.535  45.625  1.00  0.00    -0.030 A 
HETATM   25  C   UNL     1      18.509  48.132  45.597  1.00  0.00     0.011 A 
HETATM   26  C   UNL     1      18.162  47.436  44.429  1.00  0.00     0.024 A 
HETATM   27  C   UNL     1      17.896  48.127  43.252  1.00  0.00     0.034 A 
HETATM   28 CL   UNL     1      17.506  47.267  41.818  1.00  0.00    -0.084 Cl
HETATM   29  C   UNL     1      17.984  49.511  43.230  1.00  0.00     0.024 A 
HETATM   30  C   UNL     1      18.315  50.202  44.399  1.00  0.00     0.011 A 
ENDBRANCH   7  24
BRANCH  10  31
HETATM   31  C   UNL     1      17.144  49.800  48.370  1.00  0.00     0.294 C 
HETATM   32  O   UNL     1      17.546  48.854  49.040  1.00  0.00    -0.259 OA
BRANCH  31  33
HETATM   33  O   UNL     1      15.927  49.964  47.829  1.00  0.00    -0.314 OA
BRANCH  33  34
HETATM   34  C   UNL     1      15.311  48.721  47.462  1.00  0.00     0.206 C 
BRANCH  34  35
HETATM   35  C   UNL     1      14.833  48.821  46.052  1.00  0.00    -0.011 C 
HETATM   36  C   UNL     1      14.760  49.969  45.366  1.00  0.00     0.009 C 
ENDBRANCH  34  35
ENDBRANCH  33  34
ENDBRANCH  31  33
ENDBRANCH  10  31
TORSDOF 10
ENDMDL
MODEL 4
REMARK VINA RESULT:      -6.7      9.885     13.481
REMARK  10 active torsions:
REMARK  status: ('A' for Active; 'I' for Inactive)
REMARK    1  A    between atoms: C_6  and  C_7 
REMARK    2  A    between atoms: C_7  and  C_8 
REMARK       I    between atoms: C_8  and  N_9 
REMARK    3  A    between atoms: N_9  and  C_10 
REMARK    4  A    between atoms: C_10  and  C_11 
REMARK    5  A    between atoms: C_11  and  N_12 
REMARK    6  A    between atoms: C_19  and  C_20 
REMARK    7  A    between atoms: C_29  and  C_30 
REMARK    8  A    between atoms: C_30  and  O_31 
REMARK    9  A    between atoms: O_31  and  C_32 
REMARK   10  A    between atoms: C_32  and  C_33 
ROOT
HETATM    1  C   UNL     1      27.545  43.142  54.181  1.00  0.00     0.071 C 
HETATM    2  C   UNL     1      27.416  43.620  52.757  1.00  0.00     0.048 C 
HETATM    3  N   UNL     1      28.019  42.774  51.817  1.00  0.00    -0.229 NA
HETATM    4  C   UNL     1      27.420  42.691  50.670  1.00  0.00     0.170 C 
HETATM    5  N   UNL     1      26.272  43.671  50.257  1.00  0.00    -0.319 N 
HETATM    6  C   UNL     1      25.308  42.973  49.750  1.00  0.00     0.011 C 
HETATM    7  C   UNL     1      26.569  44.960  50.908  1.00  0.00     0.166 C 
HETATM    8  S   UNL     1      27.517  41.373  49.567  1.00  0.00    -0.086 SA
HETATM    9  C   UNL     1      25.740  41.628  49.169  1.00  0.00     0.135 C 
HETATM   10  C   UNL     1      26.612  44.640  52.368  1.00  0.00     0.069 C 
ENDROOT
BRANCH   6  11
HETATM   11  C   UNL     1      23.882  43.440  49.809  1.00  0.00     0.156 C 
BRANCH  11  12
HETATM   12  C   UNL     1      23.182  43.341  48.473  1.00  0.00     0.223 C 
HETATM   13  N   UNL     1      23.688  44.085  47.428  1.00  0.00    -0.359 N 
HETATM   14  H   UNL     1      24.480  44.711  47.573  1.00  0.00     0.162 HD
HETATM   15  O   UNL     1      22.165  42.662  48.360  1.00  0.00    -0.273 OA
BRANCH  13  16
HETATM   16  C   UNL     1      23.056  43.954  46.116  1.00  0.00     0.150 C 
BRANCH  16  17
HETATM   17  C   UNL     1      22.117  45.101  45.703  1.00  0.00     0.254 C 
BRANCH  17  18
HETATM   18  N   UNL     1      20.726  44.583  45.380  1.00  0.00    -0.070 N 
HETATM   19  H   UNL     1      20.809  43.636  44.982  1.00  0.00     0.279 HD
HETATM   20  C   UNL     1      19.961  45.431  44.369  1.00  0.00     0.235 C 
HETATM   21  C   UNL     1      18.877  46.101  45.184  1.00  0.00     0.029 C 
HETATM   22  C   UNL     1      18.490  45.024  46.173  1.00  0.00     0.029 C 
HETATM   23  C   UNL     1      19.827  44.456  46.609  1.00  0.00     0.235 C 
ENDBRANCH  17  18
ENDBRANCH  16  17
ENDBRANCH  13  16
ENDBRANCH  11  12
ENDBRANCH   6  11
BRANCH   7  24
HETATM   24  C   UNL     1      25.942  46.255  50.412  1.00  0.00    -0.030 A 
HETATM   25  C   UNL     1      24.569  46.422  50.170  1.00  0.00     0.011 A 
HETATM   26  C   UNL     1      24.071  47.597  49.587  1.00  0.00     0.024 A 
HETATM   27  C   UNL     1      24.940  48.606  49.186  1.00  0.00     0.034 A 
HETATM   28 CL   UNL     1      24.325  50.026  48.442  1.00  0.00    -0.084 Cl
HETATM   29  C   UNL     1      26.307  48.445  49.353  1.00  0.00     0.024 A 
HETATM   30  C   UNL     1      26.800  47.280  49.948  1.00  0.00     0.011 A 
ENDBRANCH   7  24
BRANCH  10  31
HETATM   31  C   UNL     1      25.380  44.891  53.131  1.00  0.00     0.294 C 
HETATM   32  O   UNL     1      24.306  44.495  52.690  1.00  0.00    -0.259 OA
BRANCH  31  33
HETATM   33  O   UNL     1      25.586  45.728  54.161  1.00  0.00    -0.314 OA
BRANCH  33  34
HETATM   34  C   UNL     1      25.810  47.081  53.740  1.00  0.00     0.206 C 
BRANCH  34  35
HETATM   35  C   UNL     1      26.698  47.751  54.734  1.00  0.00    -0.011 C 
HETATM   36  C   UNL     1      27.995  47.458  54.897  1.00  0.00     0.009 C 
ENDBRANCH  34  35
ENDBRANCH  33  34
ENDBRANCH  31  33
ENDBRANCH  10  31
TORSDOF 10
ENDMDL
MODEL 5
REMARK VINA RESULT:      -6.7     10.879     14.671
REMARK  10 active torsions:
REMARK  status: ('A' for Active; 'I' for Inactive)
REMARK    1  A    between atoms: C_6  and  C_7 
REMARK    2  A    between atoms: C_7  and  C_8 
REMARK       I    between atoms: C_8  and  N_9 
REMARK    3  A    between atoms: N_9  and  C_10 
REMARK    4  A    between atoms: C_10  and  C_11 
REMARK    5  A    between atoms: C_11  and  N_12 
REMARK    6  A    between atoms: C_19  and  C_20 
REMARK    7  A    between atoms: C_29  and  C_30 
REMARK    8  A    between atoms: C_30  and  O_31 
REMARK    9  A    between atoms: O_31  and  C_32 
REMARK   10  A    between atoms: C_32  and  C_33 
ROOT
HETATM    1  C   UNL     1      27.606  43.224  54.122  1.00  0.00     0.071 C 
HETATM    2  C   UNL     1      27.420  43.697  52.702  1.00  0.00     0.048 C 
HETATM    3  N   UNL     1      27.984  42.847  51.742  1.00  0.00    -0.229 NA
HETATM    4  C   UNL     1      27.340  42.761  50.620  1.00  0.00     0.170 C 
HETATM    5  N   UNL     1      26.176  43.740  50.250  1.00  0.00    -0.319 N 
HETATM    6  C   UNL     1      25.192  43.041  49.785  1.00  0.00     0.011 C 
HETATM    7  C   UNL     1      26.500  45.031  50.884  1.00  0.00     0.166 C 
HETATM    8  S   UNL     1      27.391  41.440  49.518  1.00  0.00    -0.086 SA
HETATM    9  C   UNL     1      25.600  41.694  49.192  1.00  0.00     0.135 C 
HETATM   10  C   UNL     1      26.601  44.716  52.343  1.00  0.00     0.069 C 
ENDROOT
BRANCH   6  11
HETATM   11  C   UNL     1      23.771  43.509  49.900  1.00  0.00     0.156 C 
BRANCH  11  12
HETATM   12  C   UNL     1      23.074  43.585  48.561  1.00  0.00     0.223 C 
HETATM   13  N   UNL     1      23.828  43.949  47.465  1.00  0.00    -0.359 N 
HETATM   14  H   UNL     1      24.811  44.199  47.573  1.00  0.00     0.162 HD
HETATM   15  O   UNL     1      21.864  43.385  48.483  1.00  0.00    -0.273 OA
BRANCH  13  16
HETATM   16  C   UNL     1      23.181  43.971  46.155  1.00  0.00     0.150 C 
BRANCH  16  17
HETATM   17  C   UNL     1      23.230  42.658  45.355  1.00  0.00     0.254 C 
BRANCH  17  18
HETATM   18  N   UNL     1      24.622  42.406  44.798  1.00  0.00    -0.070 N 
HETATM   19  H   UNL     1      25.255  43.140  45.147  1.00  0.00     0.279 HD
HETATM   20  C   UNL     1      24.699  42.431  43.275  1.00  0.00     0.235 C 
HETATM   21  C   UNL     1      24.929  40.986  42.888  1.00  0.00     0.029 C 
HETATM   22  C   UNL     1      25.839  40.486  43.989  1.00  0.00     0.029 C 
HETATM   23  C   UNL     1      25.220  41.072  45.243  1.00  0.00     0.235 C 
ENDBRANCH  17  18
ENDBRANCH  16  17
ENDBRANCH  13  16
ENDBRANCH  11  12
ENDBRANCH   6  11
BRANCH   7  24
HETATM   24  C   UNL     1      25.853  46.325  50.411  1.00  0.00    -0.030 A 
HETATM   25  C   UNL     1      24.470  46.501  50.252  1.00  0.00     0.011 A 
HETATM   26  C   UNL     1      23.947  47.673  49.684  1.00  0.00     0.024 A 
HETATM   27  C   UNL     1      24.797  48.668  49.215  1.00  0.00     0.034 A 
HETATM   28 CL   UNL     1      24.149  50.083  48.491  1.00  0.00    -0.084 Cl
HETATM   29  C   UNL     1      26.170  48.497  49.300  1.00  0.00     0.024 A 
HETATM   30  C   UNL     1      26.690  47.336  49.879  1.00  0.00     0.011 A 
ENDBRANCH   7  24
BRANCH  10  31
HETATM   31  C   UNL     1      25.401  44.971  53.154  1.00  0.00     0.294 C 
HETATM   32  O   UNL     1      24.314  44.550  52.771  1.00  0.00    -0.259 OA
BRANCH  31  33
HETATM   33  O   UNL     1      25.641  45.834  54.154  1.00  0.00    -0.314 OA
BRANCH  33  34
HETATM   34  C   UNL     1      26.129  47.100  53.688  1.00  0.00     0.206 C 
BRANCH  34  35
HETATM   35  C   UNL     1      27.180  47.585  54.630  1.00  0.00    -0.011 C 
HETATM   36  C   UNL     1      28.235  46.855  55.014  1.00  0.00     0.009 C 
ENDBRANCH  34  35
ENDBRANCH  33  34
ENDBRANCH  31  33
ENDBRANCH  10  31
TORSDOF 10
ENDMDL
MODEL 6
REMARK VINA RESULT:      -6.5     26.752     29.676
REMARK  10 active torsions:
REMARK  status: ('A' for Active; 'I' for Inactive)
REMARK    1  A    between atoms: C_6  and  C_7 
REMARK    2  A    between atoms: C_7  and  C_8 
REMARK       I    between atoms: C_8  and  N_9 
REMARK    3  A    between atoms: N_9  and  C_10 
REMARK    4  A    between atoms: C_10  and  C_11 
REMARK    5  A    between atoms: C_11  and  N_12 
REMARK    6  A    between atoms: C_19  and  C_20 
REMARK    7  A    between atoms: C_29  and  C_30 
REMARK    8  A    between atoms: C_30  and  O_31 
REMARK    9  A    between atoms: O_31  and  C_32 
REMARK   10  A    between atoms: C_32  and  C_33 
ROOT
HETATM    1  C   UNL     1      36.282  45.121  69.313  1.00  0.00     0.071 C 
HETATM    2  C   UNL     1      37.229  46.292  69.249  1.00  0.00     0.048 C 
HETATM    3  N   UNL     1      38.449  46.073  69.902  1.00  0.00    -0.229 NA
HETATM    4  C   UNL     1      39.485  46.632  69.359  1.00  0.00     0.170 C 
HETATM    5  N   UNL     1      39.355  47.702  68.224  1.00  0.00    -0.319 N 
HETATM    6  C   UNL     1      40.201  47.405  67.290  1.00  0.00     0.011 C 
HETATM    7  C   UNL     1      38.101  48.433  68.480  1.00  0.00     0.166 C 
HETATM    8  S   UNL     1      41.118  46.114  69.518  1.00  0.00    -0.086 SA
HETATM    9  C   UNL     1      41.394  46.576  67.760  1.00  0.00     0.135 C 
HETATM   10  C   UNL     1      37.042  47.377  68.456  1.00  0.00     0.069 C 
ENDROOT
BRANCH   6  11
HETATM   11  C   UNL     1      39.962  47.794  65.860  1.00  0.00     0.156 C 
BRANCH  11  12
HETATM   12  C   UNL     1      40.431  46.739  64.885  1.00  0.00     0.223 C 
HETATM   13  N   UNL     1      39.770  45.529  64.882  1.00  0.00    -0.359 N 
HETATM   14  H   UNL     1      39.021  45.346  65.550  1.00  0.00     0.162 HD
HETATM   15  O   UNL     1      41.407  46.952  64.170  1.00  0.00    -0.273 OA
BRANCH  13  16
HETATM   16  C   UNL     1      40.176  44.521  63.905  1.00  0.00     0.150 C 
BRANCH  16  17
HETATM   17  C   UNL     1      39.153  44.198  62.803  1.00  0.00     0.254 C 
BRANCH  17  18
HETATM   18  N   UNL     1      38.624  42.780  62.941  1.00  0.00    -0.070 N 
HETATM   19  H   UNL     1      38.554  42.360  62.003  1.00  0.00     0.279 HD
HETATM   20  C   UNL     1      37.242  42.687  63.580  1.00  0.00     0.235 C 
HETATM   21  C   UNL     1      37.500  42.091  64.947  1.00  0.00     0.029 C 
HETATM   22  C   UNL     1      38.612  41.101  64.675  1.00  0.00     0.029 C 
HETATM   23  C   UNL     1      39.542  41.869  63.756  1.00  0.00     0.235 C 
ENDBRANCH  17  18
ENDBRANCH  16  17
ENDBRANCH  13  16
ENDBRANCH  11  12
ENDBRANCH   6  11
BRANCH   7  24
HETATM   24  C   UNL     1      37.848  49.802  67.867  1.00  0.00    -0.030 A 
HETATM   25  C   UNL     1      37.955  50.082  66.495  1.00  0.00     0.011 A 
HETATM   26  C   UNL     1      37.840  51.394  66.010  1.00  0.00     0.024 A 
HETATM   27  C   UNL     1      37.670  52.457  66.890  1.00  0.00     0.034 A 
HETATM   28 CL   UNL     1      37.565  54.062  66.290  1.00  0.00    -0.084 Cl
HETATM   29  C   UNL     1      37.624  52.221  68.255  1.00  0.00     0.024 A 
HETATM   30  C   UNL     1      37.723  50.912  68.736  1.00  0.00     0.011 A 
ENDBRANCH   7  24
BRANCH  10  31
HETATM   31  C   UNL     1      36.319  47.201  67.187  1.00  0.00     0.294 C 
HETATM   32  O   UNL     1      35.191  47.667  67.066  1.00  0.00    -0.259 OA
BRANCH  31  33
HETATM   33  O   UNL     1      36.947  46.348  66.363  1.00  0.00    -0.314 OA
BRANCH  33  34
HETATM   34  C   UNL     1      36.179  46.043  65.190  1.00  0.00     0.206 C 
BRANCH  34  35
HETATM   35  C   UNL     1      36.789  46.744  64.022  1.00  0.00    -0.011 C 
HETATM   36  C   UNL     1      36.677  48.060  63.798  1.00  0.00     0.009 C 
ENDBRANCH  34  35
ENDBRANCH  33  34
ENDBRANCH  31  33
ENDBRANCH  10  31
TORSDOF 10
ENDMDL
MODEL 7
REMARK VINA RESULT:      -6.4     27.244     30.232
REMARK  10 active torsions:
REMARK  status: ('A' for Active; 'I' for Inactive)
REMARK    1  A    between atoms: C_6  and  C_7 
REMARK    2  A    between atoms: C_7  and  C_8 
REMARK       I    between atoms: C_8  and  N_9 
REMARK    3  A    between atoms: N_9  and  C_10 
REMARK    4  A    between atoms: C_10  and  C_11 
REMARK    5  A    between atoms: C_11  and  N_12 
REMARK    6  A    between atoms: C_19  and  C_20 
REMARK    7  A    between atoms: C_29  and  C_30 
REMARK    8  A    between atoms: C_30  and  O_31 
REMARK    9  A    between atoms: O_31  and  C_32 
REMARK   10  A    between atoms: C_32  and  C_33 
ROOT
HETATM    1  C   UNL     1      35.385  47.848  66.807  1.00  0.00     0.071 C 
HETATM    2  C   UNL     1      36.566  47.358  66.007  1.00  0.00     0.048 C 
HETATM    3  N   UNL     1      37.577  48.312  65.843  1.00  0.00    -0.229 NA
HETATM    4  C   UNL     1      38.789  47.850  65.824  1.00  0.00     0.170 C 
HETATM    5  N   UNL     1      39.094  46.319  65.709  1.00  0.00    -0.319 N 
HETATM    6  C   UNL     1      39.999  46.021  66.586  1.00  0.00     0.011 C 
HETATM    7  C   UNL     1      38.008  45.736  64.901  1.00  0.00     0.166 C 
HETATM    8  S   UNL     1      40.215  48.722  66.231  1.00  0.00    -0.086 SA
HETATM    9  C   UNL     1      40.881  47.194  67.006  1.00  0.00     0.135 C 
HETATM   10  C   UNL     1      36.761  46.061  65.661  1.00  0.00     0.069 C 
ENDROOT
BRANCH   6  11
HETATM   11  C   UNL     1      40.098  44.644  67.175  1.00  0.00     0.156 C 
BRANCH  11  12
HETATM   12  C   UNL     1      40.918  43.704  66.321  1.00  0.00     0.223 C 
HETATM   13  N   UNL     1      40.838  42.355  66.595  1.00  0.00    -0.359 N 
HETATM   14  H   UNL     1      40.277  42.017  67.377  1.00  0.00     0.162 HD
HETATM   15  O   UNL     1      41.668  44.152  65.458  1.00  0.00    -0.273 OA
BRANCH  13  16
HETATM   16  C   UNL     1      41.580  41.430  65.740  1.00  0.00     0.150 C 
BRANCH  16  17
HETATM   17  C   UNL     1      40.926  40.058  65.501  1.00  0.00     0.254 C 
BRANCH  17  18
HETATM   18  N   UNL     1      41.745  39.220  64.535  1.00  0.00    -0.070 N 
HETATM   19  H   UNL     1      41.817  39.724  63.638  1.00  0.00     0.279 HD
HETATM   20  C   UNL     1      41.147  37.849  64.233  1.00  0.00     0.235 C 
HETATM   21  C   UNL     1      42.071  36.875  64.932  1.00  0.00     0.029 C 
HETATM   22  C   UNL     1      43.432  37.506  64.733  1.00  0.00     0.029 C 
HETATM   23  C   UNL     1      43.177  38.975  65.009  1.00  0.00     0.235 C 
ENDBRANCH  17  18
ENDBRANCH  16  17
ENDBRANCH  13  16
ENDBRANCH  11  12
ENDBRANCH   6  11
BRANCH   7  24
HETATM   24  C   UNL     1      38.173  44.387  64.217  1.00  0.00    -0.030 A 
HETATM   25  C   UNL     1      37.669  43.179  64.726  1.00  0.00     0.011 A 
HETATM   26  C   UNL     1      37.970  41.952  64.117  1.00  0.00     0.024 A 
HETATM   27  C   UNL     1      38.823  41.900  63.020  1.00  0.00     0.034 A 
HETATM   28 CL   UNL     1      39.213  40.391  62.302  1.00  0.00    -0.084 Cl
HETATM   29  C   UNL     1      39.388  43.069  62.531  1.00  0.00     0.024 A 
HETATM   30  C   UNL     1      39.075  44.293  63.130  1.00  0.00     0.011 A 
ENDBRANCH   7  24
BRANCH  10  31
HETATM   31  C   UNL     1      36.244  45.012  66.552  1.00  0.00     0.294 C 
HETATM   32  O   UNL     1      36.896  44.681  67.537  1.00  0.00    -0.259 OA
BRANCH  31  33
HETATM   33  O   UNL     1      35.168  44.396  66.036  1.00  0.00    -0.314 OA
BRANCH  33  34
HETATM   34  C   UNL     1      34.487  43.573  66.993  1.00  0.00     0.206 C 
BRANCH  34  35
HETATM   35  C   UNL     1      33.785  42.474  66.267  1.00  0.00    -0.011 C 
HETATM   36  C   UNL     1      34.407  41.553  65.520  1.00  0.00     0.009 C 
ENDBRANCH  34  35
ENDBRANCH  33  34
ENDBRANCH  31  33
ENDBRANCH  10  31
TORSDOF 10
ENDMDL
MODEL 8
REMARK VINA RESULT:      -6.4      5.630      9.991
REMARK  10 active torsions:
REMARK  status: ('A' for Active; 'I' for Inactive)
REMARK    1  A    between atoms: C_6  and  C_7 
REMARK    2  A    between atoms: C_7  and  C_8 
REMARK       I    between atoms: C_8  and  N_9 
REMARK    3  A    between atoms: N_9  and  C_10 
REMARK    4  A    between atoms: C_10  and  C_11 
REMARK    5  A    between atoms: C_11  and  N_12 
REMARK    6  A    between atoms: C_19  and  C_20 
REMARK    7  A    between atoms: C_29  and  C_30 
REMARK    8  A    between atoms: C_30  and  O_31 
REMARK    9  A    between atoms: O_31  and  C_32 
REMARK   10  A    between atoms: C_32  and  C_33 
ROOT
HETATM    1  C   UNL     1      18.801  52.060  49.710  1.00  0.00     0.071 C 
HETATM    2  C   UNL     1      19.444  51.237  48.621  1.00  0.00     0.048 C 
HETATM    3  N   UNL     1      20.817  51.469  48.470  1.00  0.00    -0.229 NA
HETATM    4  C   UNL     1      21.527  50.438  48.133  1.00  0.00     0.170 C 
HETATM    5  N   UNL     1      20.874  49.098  47.653  1.00  0.00    -0.319 N 
HETATM    6  C   UNL     1      21.461  48.121  48.266  1.00  0.00     0.011 C 
HETATM    7  C   UNL     1      19.627  49.466  46.959  1.00  0.00     0.166 C 
HETATM    8  S   UNL     1      23.206  50.217  48.436  1.00  0.00    -0.086 SA
HETATM    9  C   UNL     1      22.876  48.435  48.746  1.00  0.00     0.135 C 
HETATM   10  C   UNL     1      18.832  50.206  47.987  1.00  0.00     0.069 C 
ENDROOT
BRANCH   6  11
HETATM   11  C   UNL     1      20.754  46.823  48.534  1.00  0.00     0.156 C 
BRANCH  11  12
HETATM   12  C   UNL     1      21.674  45.628  48.428  1.00  0.00     0.223 C 
HETATM   13  N   UNL     1      21.805  44.820  49.537  1.00  0.00    -0.359 N 
HETATM   14  H   UNL     1      21.329  45.054  50.408  1.00  0.00     0.162 HD
HETATM   15  O   UNL     1      22.317  45.436  47.400  1.00  0.00    -0.273 OA
BRANCH  13  16
HETATM   16  C   UNL     1      22.647  43.630  49.431  1.00  0.00     0.150 C 
BRANCH  16  17
HETATM   17  C   UNL     1      23.971  43.667  50.213  1.00  0.00     0.254 C 
BRANCH  17  18
HETATM   18  N   UNL     1      25.093  44.241  49.365  1.00  0.00    -0.070 N 
HETATM   19  H   UNL     1      24.849  44.127  48.371  1.00  0.00     0.279 HD
HETATM   20  C   UNL     1      26.445  43.567  49.577  1.00  0.00     0.235 C 
HETATM   21  C   UNL     1      27.270  44.603  50.311  1.00  0.00     0.029 C 
HETATM   22  C   UNL     1      26.819  45.900  49.675  1.00  0.00     0.029 C 
HETATM   23  C   UNL     1      25.314  45.737  49.586  1.00  0.00     0.235 C 
ENDBRANCH  17  18
ENDBRANCH  16  17
ENDBRANCH  13  16
ENDBRANCH  11  12
ENDBRANCH   6  11
BRANCH   7  24
HETATM   24  C   UNL     1      18.948  48.503  45.996  1.00  0.00    -0.030 A 
HETATM   25  C   UNL     1      18.334  48.893  44.796  1.00  0.00     0.011 A 
HETATM   26  C   UNL     1      17.609  47.976  44.018  1.00  0.00     0.024 A 
HETATM   27  C   UNL     1      17.439  46.666  44.451  1.00  0.00     0.034 A 
HETATM   28 CL   UNL     1      16.523  45.561  43.511  1.00  0.00    -0.084 Cl
HETATM   29  C   UNL     1      17.980  46.266  45.664  1.00  0.00     0.024 A 
HETATM   30  C   UNL     1      18.714  47.176  46.429  1.00  0.00     0.011 A 
ENDBRANCH   7  24
BRANCH  10  31
HETATM   31  C   UNL     1      17.827  49.426  48.726  1.00  0.00     0.294 C 
HETATM   32  O   UNL     1      18.195  48.572  49.526  1.00  0.00    -0.259 OA
BRANCH  31  33
HETATM   33  O   UNL     1      16.585  49.634  48.261  1.00  0.00    -0.314 OA
BRANCH  33  34
HETATM   34  C   UNL     1      15.867  48.413  48.031  1.00  0.00     0.206 C 
BRANCH  34  35
HETATM   35  C   UNL     1      14.872  48.640  46.943  1.00  0.00    -0.011 C 
HETATM   36  C   UNL     1      15.000  49.576  45.994  1.00  0.00     0.009 C 
ENDBRANCH  34  35
ENDBRANCH  33  34
ENDBRANCH  31  33
ENDBRANCH  10  31
TORSDOF 10
ENDMDL
MODEL 9
REMARK VINA RESULT:      -6.2     14.926     18.812
REMARK  10 active torsions:
REMARK  status: ('A' for Active; 'I' for Inactive)
REMARK    1  A    between atoms: C_6  and  C_7 
REMARK    2  A    between atoms: C_7  and  C_8 
REMARK       I    between atoms: C_8  and  N_9 
REMARK    3  A    between atoms: N_9  and  C_10 
REMARK    4  A    between atoms: C_10  and  C_11 
REMARK    5  A    between atoms: C_11  and  N_12 
REMARK    6  A    between atoms: C_19  and  C_20 
REMARK    7  A    between atoms: C_29  and  C_30 
REMARK    8  A    between atoms: C_30  and  O_31 
REMARK    9  A    between atoms: O_31  and  C_32 
REMARK   10  A    between atoms: C_32  and  C_33 
ROOT
HETATM    1  C   UNL     1      36.281  52.443  42.470  1.00  0.00     0.071 C 
HETATM    2  C   UNL     1      35.004  51.654  42.619  1.00  0.00     0.048 C 
HETATM    3  N   UNL     1      34.453  51.703  43.906  1.00  0.00    -0.229 NA
HETATM    4  C   UNL     1      33.158  51.691  43.963  1.00  0.00     0.170 C 
HETATM    5  N   UNL     1      32.271  51.363  42.715  1.00  0.00    -0.319 N 
HETATM    6  C   UNL     1      31.321  52.240  42.653  1.00  0.00     0.011 C 
HETATM    7  C   UNL     1      33.040  50.408  41.896  1.00  0.00     0.166 C 
HETATM    8  S   UNL     1      32.192  52.316  45.243  1.00  0.00    -0.086 SA
HETATM    9  C   UNL     1      30.974  52.890  43.990  1.00  0.00     0.135 C 
HETATM   10  C   UNL     1      34.312  51.127  41.578  1.00  0.00     0.069 C 
ENDROOT
BRANCH   6  11
HETATM   11  C   UNL     1      30.684  52.618  41.347  1.00  0.00     0.156 C 
BRANCH  11  12
HETATM   12  C   UNL     1      29.237  52.190  41.262  1.00  0.00     0.223 C 
HETATM   13  N   UNL     1      28.952  50.853  41.445  1.00  0.00    -0.359 N 
HETATM   14  H   UNL     1      29.703  50.178  41.587  1.00  0.00     0.162 HD
HETATM   15  O   UNL     1      28.367  53.011  40.980  1.00  0.00    -0.273 OA
BRANCH  13  16
HETATM   16  C   UNL     1      27.552  50.434  41.421  1.00  0.00     0.150 C 
BRANCH  16  17
HETATM   17  C   UNL     1      27.271  49.051  40.809  1.00  0.00     0.254 C 
BRANCH  17  18
HETATM   18  N   UNL     1      26.217  49.138  39.718  1.00  0.00    -0.070 N 
HETATM   19  H   UNL     1      25.395  49.635  40.090  1.00  0.00     0.279 HD
HETATM   20  C   UNL     1      25.732  47.784  39.208  1.00  0.00     0.235 C 
HETATM   21  C   UNL     1      26.314  47.677  37.815  1.00  0.00     0.029 C 
HETATM   22  C   UNL     1      26.220  49.099  37.305  1.00  0.00     0.029 C 
HETATM   23  C   UNL     1      26.679  49.924  38.491  1.00  0.00     0.235 C 
ENDBRANCH  17  18
ENDBRANCH  16  17
ENDBRANCH  13  16
ENDBRANCH  11  12
ENDBRANCH   6  11
BRANCH   7  24
HETATM   24  C   UNL     1      32.356  49.538  40.852  1.00  0.00    -0.030 A 
HETATM   25  C   UNL     1      31.735  50.037  39.696  1.00  0.00     0.011 A 
HETATM   26  C   UNL     1      31.006  49.196  38.842  1.00  0.00     0.024 A 
HETATM   27  C   UNL     1      30.837  47.851  39.153  1.00  0.00     0.034 A 
HETATM   28 CL   UNL     1      29.915  46.837  38.120  1.00  0.00    -0.084 Cl
HETATM   29  C   UNL     1      31.385  47.341  40.321  1.00  0.00     0.024 A 
HETATM   30  C   UNL     1      32.124  48.177  41.163  1.00  0.00     0.011 A 
ENDBRANCH   7  24
BRANCH  10  31
HETATM   31  C   UNL     1      34.371  51.813  40.278  1.00  0.00     0.294 C 
HETATM   32  O   UNL     1      33.650  52.785  40.076  1.00  0.00    -0.259 OA
BRANCH  31  33
HETATM   33  O   UNL     1      35.100  51.131  39.381  1.00  0.00    -0.314 OA
BRANCH  33  34
HETATM   34  C   UNL     1      36.179  51.906  38.839  1.00  0.00     0.206 C 
BRANCH  34  35
HETATM   35  C   UNL     1      37.418  51.075  38.850  1.00  0.00    -0.011 C 
HETATM   36  C   UNL     1      38.431  51.254  39.707  1.00  0.00     0.009 C 
ENDBRANCH  34  35
ENDBRANCH  33  34
ENDBRANCH  31  33
ENDBRANCH  10  31
TORSDOF 10
ENDMDL
MODEL 10
REMARK VINA RESULT:      -6.2     10.575     13.971
REMARK  10 active torsions:
REMARK  status: ('A' for Active; 'I' for Inactive)
REMARK    1  A    between atoms: C_6  and  C_7 
REMARK    2  A    between atoms: C_7  and  C_8 
REMARK       I    between atoms: C_8  and  N_9 
REMARK    3  A    between atoms: N_9  and  C_10 
REMARK    4  A    between atoms: C_10  and  C_11 
REMARK    5  A    between atoms: C_11  and  N_12 
REMARK    6  A    between atoms: C_19  and  C_20 
REMARK    7  A    between atoms: C_29  and  C_30 
REMARK    8  A    between atoms: C_30  and  O_31 
REMARK    9  A    between atoms: O_31  and  C_32 
REMARK   10  A    between atoms: C_32  and  C_33 
ROOT
HETATM    1  C   UNL     1      28.763  39.078  49.541  1.00  0.00     0.071 C 
HETATM    2  C   UNL     1      27.790  39.968  50.272  1.00  0.00     0.048 C 
HETATM    3  N   UNL     1      28.103  40.164  51.623  1.00  0.00    -0.229 NA
HETATM    4  C   UNL     1      27.816  41.334  52.102  1.00  0.00     0.170 C 
HETATM    5  N   UNL     1      26.931  42.361  51.320  1.00  0.00    -0.319 N 
HETATM    6  C   UNL     1      27.507  43.519  51.378  1.00  0.00     0.011 C 
HETATM    7  C   UNL     1      25.971  41.568  50.530  1.00  0.00     0.166 C 
HETATM    8  S   UNL     1      28.567  42.090  53.454  1.00  0.00    -0.086 SA
HETATM    9  C   UNL     1      28.439  43.700  52.574  1.00  0.00     0.135 C 
HETATM   10  C   UNL     1      26.827  40.703  49.661  1.00  0.00     0.069 C 
ENDROOT
BRANCH   6  11
HETATM   11  C   UNL     1      27.313  44.549  50.304  1.00  0.00     0.156 C 
BRANCH  11  12
HETATM   12  C   UNL     1      26.259  45.571  50.663  1.00  0.00     0.223 C 
HETATM   13  N   UNL     1      25.436  46.025  49.654  1.00  0.00    -0.359 N 
HETATM   14  H   UNL     1      25.572  45.710  48.693  1.00  0.00     0.162 HD
HETATM   15  O   UNL     1      26.193  46.012  51.807  1.00  0.00    -0.273 OA
BRANCH  13  16
HETATM   16  C   UNL     1      24.376  46.970  49.998  1.00  0.00     0.150 C 
BRANCH  16  17
HETATM   17  C   UNL     1      24.381  48.301  49.225  1.00  0.00     0.254 C 
BRANCH  17  18
HETATM   18  N   UNL     1      23.136  49.117  49.530  1.00  0.00    -0.070 N 
HETATM   19  H   UNL     1      23.038  49.200  50.553  1.00  0.00     0.279 HD
HETATM   20  C   UNL     1      21.842  48.507  49.001  1.00  0.00     0.235 C 
HETATM   21  C   UNL     1      21.438  49.416  47.861  1.00  0.00     0.029 C 
HETATM   22  C   UNL     1      21.835  50.785  48.369  1.00  0.00     0.029 C 
HETATM   23  C   UNL     1      23.200  50.544  48.985  1.00  0.00     0.235 C 
ENDBRANCH  17  18
ENDBRANCH  16  17
ENDBRANCH  13  16
ENDBRANCH  11  12
ENDBRANCH   6  11
BRANCH   7  24
HETATM   24  C   UNL     1      24.692  42.191  49.990  1.00  0.00    -0.030 A 
HETATM   25  C   UNL     1      24.343  42.218  48.630  1.00  0.00     0.011 A 
HETATM   26  C   UNL     1      23.216  42.925  48.183  1.00  0.00     0.024 A 
HETATM   27  C   UNL     1      22.448  43.662  49.076  1.00  0.00     0.034 A 
HETATM   28 CL   UNL     1      21.091  44.552  48.515  1.00  0.00    -0.084 Cl
HETATM   29  C   UNL     1      22.803  43.708  50.416  1.00  0.00     0.024 A 
HETATM   30  C   UNL     1      23.917  42.991  50.862  1.00  0.00     0.011 A 
ENDBRANCH   7  24
BRANCH  10  31
HETATM   31  C   UNL     1      27.077  41.189  48.295  1.00  0.00     0.294 C 
HETATM   32  O   UNL     1      27.627  42.273  48.131  1.00  0.00    -0.259 OA
BRANCH  31  33
HETATM   33  O   UNL     1      26.468  40.430  47.370  1.00  0.00    -0.314 OA
BRANCH  33  34
HETATM   34  C   UNL     1      27.144  40.448  46.105  1.00  0.00     0.206 C 
BRANCH  34  35
HETATM   35  C   UNL     1      27.656  39.076  45.816  1.00  0.00    -0.011 C 
HETATM   36  C   UNL     1      27.146  37.959  46.350  1.00  0.00     0.009 C 
ENDBRANCH  34  35
ENDBRANCH  33  34
ENDBRANCH  31  33
ENDBRANCH  10  31
TORSDOF 10
ENDMDL
