MODEL 1
REMARK VINA RESULT:      -9.7      0.000      0.000
REMARK  5 active torsions:
REMARK  status: ('A' for Active; 'I' for Inactive)
REMARK    1  A    between atoms: C_4  and  N_5 
REMARK       I    between atoms: N_5  and  C_6 
REMARK       I    between atoms: C_6  and  N_7 
REMARK    2  A    between atoms: N_7  and  C_8 
REMARK    3  A    between atoms: C_8  and  C_9 
REMARK    4  A    between atoms: C_9  and  N_10 
REMARK    5  A    between atoms: C_9  and  C_14 
ROOT
HETATM    1  N   UNL     1      27.195  46.378  55.133  1.00  0.00    -0.307 N 
HETATM    2  C   UNL     1      26.386  46.991  54.243  1.00  0.00     0.320 C 
HETATM    3  N   UNL     1      26.126  46.352  53.076  1.00  0.00    -0.340 N 
HETATM    4  O   UNL     1      25.846  48.067  54.499  1.00  0.00    -0.247 OA
HETATM    5  H   UNL     1      27.156  46.757  56.080  1.00  0.00     0.170 HD
HETATM    6  H   UNL     1      26.225  45.343  53.100  1.00  0.00     0.164 HD
ENDROOT
BRANCH   1   7
HETATM    7  C   UNL     1      28.196  45.380  55.003  1.00  0.00     0.066 A 
HETATM    8  C   UNL     1      28.341  44.566  53.872  1.00  0.00     0.038 A 
HETATM    9  C   UNL     1      29.361  43.610  53.805  1.00  0.00    -0.059 A 
HETATM   10  C   UNL     1      29.531  42.758  52.580  1.00  0.00     0.048 C 
HETATM   11  C   UNL     1      30.270  43.515  54.861  1.00  0.00     0.020 A 
HETATM   12  C   UNL     1      30.160  44.356  55.979  1.00  0.00    -0.005 A 
HETATM   13  C   UNL     1      29.117  45.303  56.061  1.00  0.00     0.093 A 
HETATM   14  C   UNL     1      31.083  44.292  57.031  1.00  0.00     0.015 A 
HETATM   15  N   UNL     1      28.993  46.138  57.121  1.00  0.00    -0.258 NA
HETATM   16  C   UNL     1      29.906  46.046  58.115  1.00  0.00     0.117 A 
HETATM   17  C   UNL     1      30.956  45.151  58.116  1.00  0.00     0.020 A 
ENDBRANCH   1   7
BRANCH   3  18
HETATM   18  C   UNL     1      25.540  46.973  51.893  1.00  0.00     0.164 C 
BRANCH  18  19
HETATM   19  C   UNL     1      26.254  46.722  50.526  1.00  0.00     0.261 C 
BRANCH  19  20
HETATM   20  N   UNL     1      25.641  45.548  49.763  1.00  0.00    -0.067 N 
HETATM   21  H   UNL     1      25.569  45.879  48.779  1.00  0.00     0.280 HD
HETATM   22  C   UNL     1      26.478  44.309  49.682  1.00  0.00     0.270 C 
HETATM   23  C   UNL     1      24.239  45.242  50.193  1.00  0.00     0.270 C 
ENDBRANCH  19  20
BRANCH  19  24
HETATM   24  C   UNL     1      26.312  47.976  49.706  1.00  0.00     0.085 A 
HETATM   25  O   UNL     1      25.110  48.571  49.447  1.00  0.00    -0.325 OA
HETATM   26  C   UNL     1      25.363  49.681  48.709  1.00  0.00     0.142 A 
HETATM   27  C   UNL     1      26.713  49.820  48.496  1.00  0.00     0.027 A 
HETATM   28  C   UNL     1      27.332  48.721  49.142  1.00  0.00     0.037 A 
ENDBRANCH  19  24
ENDBRANCH  18  19
ENDBRANCH   3  18
TORSDOF 5
ENDMDL
MODEL 2
REMARK VINA RESULT:      -9.5      1.383      2.803
REMARK  5 active torsions:
REMARK  status: ('A' for Active; 'I' for Inactive)
REMARK    1  A    between atoms: C_4  and  N_5 
REMARK       I    between atoms: N_5  and  C_6 
REMARK       I    between atoms: C_6  and  N_7 
REMARK    2  A    between atoms: N_7  and  C_8 
REMARK    3  A    between atoms: C_8  and  C_9 
REMARK    4  A    between atoms: C_9  and  N_10 
REMARK    5  A    between atoms: C_9  and  C_14 
ROOT
HETATM    1  N   UNL     1      27.609  46.239  55.400  1.00  0.00    -0.307 N 
HETATM    2  C   UNL     1      26.855  46.968  54.549  1.00  0.00     0.320 C 
HETATM    3  N   UNL     1      26.590  46.445  53.328  1.00  0.00    -0.340 N 
HETATM    4  O   UNL     1      26.368  48.047  54.885  1.00  0.00    -0.247 OA
HETATM    5  H   UNL     1      27.568  46.539  56.375  1.00  0.00     0.170 HD
HETATM    6  H   UNL     1      26.635  45.433  53.268  1.00  0.00     0.164 HD
ENDROOT
BRANCH   1   7
HETATM    7  C   UNL     1      28.559  45.202  55.205  1.00  0.00     0.066 A 
HETATM    8  C   UNL     1      28.617  44.406  54.054  1.00  0.00     0.038 A 
HETATM    9  C   UNL     1      29.590  43.409  53.922  1.00  0.00    -0.059 A 
HETATM   10  C   UNL     1      29.667  42.577  52.675  1.00  0.00     0.048 C 
HETATM   11  C   UNL     1      30.541  43.254  54.933  1.00  0.00     0.020 A 
HETATM   12  C   UNL     1      30.519  44.076  56.070  1.00  0.00    -0.005 A 
HETATM   13  C   UNL     1      29.523  45.065  56.218  1.00  0.00     0.093 A 
HETATM   14  C   UNL     1      31.485  43.952  57.078  1.00  0.00     0.015 A 
HETATM   15  N   UNL     1      29.484  45.882  57.298  1.00  0.00    -0.258 NA
HETATM   16  C   UNL     1      30.436  45.732  58.247  1.00  0.00     0.117 A 
HETATM   17  C   UNL     1      31.445  44.792  58.183  1.00  0.00     0.020 A 
ENDBRANCH   1   7
BRANCH   3  18
HETATM   18  C   UNL     1      26.067  47.193  52.190  1.00  0.00     0.164 C 
BRANCH  18  19
HETATM   19  C   UNL     1      25.285  46.387  51.103  1.00  0.00     0.261 C 
BRANCH  19  20
HETATM   20  N   UNL     1      25.115  47.183  49.809  1.00  0.00    -0.067 N 
HETATM   21  H   UNL     1      25.232  46.481  49.049  1.00  0.00     0.280 HD
HETATM   22  C   UNL     1      23.757  47.769  49.572  1.00  0.00     0.270 C 
HETATM   23  C   UNL     1      26.200  48.194  49.599  1.00  0.00     0.270 C 
ENDBRANCH  19  20
BRANCH  19  24
HETATM   24  C   UNL     1      25.905  45.041  50.876  1.00  0.00     0.085 A 
HETATM   25  O   UNL     1      25.533  44.061  51.752  1.00  0.00    -0.325 OA
HETATM   26  C   UNL     1      26.183  42.928  51.386  1.00  0.00     0.142 A 
HETATM   27  C   UNL     1      26.962  43.157  50.278  1.00  0.00     0.027 A 
HETATM   28  C   UNL     1      26.783  44.521  49.942  1.00  0.00     0.037 A 
ENDBRANCH  19  24
ENDBRANCH  18  19
ENDBRANCH   3  18
TORSDOF 5
ENDMDL
MODEL 3
REMARK VINA RESULT:      -8.9      2.383      3.610
REMARK  5 active torsions:
REMARK  status: ('A' for Active; 'I' for Inactive)
REMARK    1  A    between atoms: C_4  and  N_5 
REMARK       I    between atoms: N_5  and  C_6 
REMARK       I    between atoms: C_6  and  N_7 
REMARK    2  A    between atoms: N_7  and  C_8 
REMARK    3  A    between atoms: C_8  and  C_9 
REMARK    4  A    between atoms: C_9  and  N_10 
REMARK    5  A    between atoms: C_9  and  C_14 
ROOT
HETATM    1  N   UNL     1      27.603  42.848  52.952  1.00  0.00    -0.307 N 
HETATM    2  C   UNL     1      27.112  42.490  51.746  1.00  0.00     0.320 C 
HETATM    3  N   UNL     1      27.064  43.434  50.775  1.00  0.00    -0.340 N 
HETATM    4  O   UNL     1      26.774  41.331  51.507  1.00  0.00    -0.247 OA
HETATM    5  H   UNL     1      27.862  42.068  53.558  1.00  0.00     0.170 HD
HETATM    6  H   UNL     1      27.722  44.199  50.877  1.00  0.00     0.164 HD
ENDROOT
BRANCH   1   7
HETATM    7  C   UNL     1      27.725  44.097  53.615  1.00  0.00     0.066 A 
HETATM    8  C   UNL     1      26.798  45.139  53.487  1.00  0.00     0.038 A 
HETATM    9  C   UNL     1      26.973  46.342  54.182  1.00  0.00    -0.059 A 
HETATM   10  C   UNL     1      25.962  47.446  54.065  1.00  0.00     0.048 C 
HETATM   11  C   UNL     1      28.059  46.470  55.049  1.00  0.00     0.020 A 
HETATM   12  C   UNL     1      28.970  45.415  55.219  1.00  0.00    -0.005 A 
HETATM   13  C   UNL     1      28.810  44.211  54.499  1.00  0.00     0.093 A 
HETATM   14  C   UNL     1      30.047  45.518  56.109  1.00  0.00     0.015 A 
HETATM   15  N   UNL     1      29.665  43.171  54.651  1.00  0.00    -0.258 NA
HETATM   16  C   UNL     1      30.691  43.310  55.522  1.00  0.00     0.117 A 
HETATM   17  C   UNL     1      30.921  44.450  56.265  1.00  0.00     0.020 A 
ENDBRANCH   1   7
BRANCH   3  18
HETATM   18  C   UNL     1      26.302  43.324  49.535  1.00  0.00     0.164 C 
BRANCH  18  19
HETATM   19  C   UNL     1      25.222  44.420  49.260  1.00  0.00     0.261 C 
BRANCH  19  20
HETATM   20  N   UNL     1      23.874  44.070  49.887  1.00  0.00    -0.067 N 
HETATM   21  H   UNL     1      23.878  44.548  50.812  1.00  0.00     0.280 HD
HETATM   22  C   UNL     1      22.665  44.612  49.190  1.00  0.00     0.270 C 
HETATM   23  C   UNL     1      23.732  42.609  50.187  1.00  0.00     0.270 C 
ENDBRANCH  19  20
BRANCH  19  24
HETATM   24  C   UNL     1      25.713  45.777  49.666  1.00  0.00     0.085 A 
HETATM   25  O   UNL     1      26.940  46.135  49.182  1.00  0.00    -0.325 OA
HETATM   26  C   UNL     1      27.206  47.382  49.645  1.00  0.00     0.142 A 
HETATM   27  C   UNL     1      26.164  47.842  50.413  1.00  0.00     0.027 A 
HETATM   28  C   UNL     1      25.194  46.810  50.427  1.00  0.00     0.037 A 
ENDBRANCH  19  24
ENDBRANCH  18  19
ENDBRANCH   3  18
TORSDOF 5
ENDMDL
MODEL 4
REMARK VINA RESULT:      -8.8      2.197      3.988
REMARK  5 active torsions:
REMARK  status: ('A' for Active; 'I' for Inactive)
REMARK    1  A    between atoms: C_4  and  N_5 
REMARK       I    between atoms: N_5  and  C_6 
REMARK       I    between atoms: C_6  and  N_7 
REMARK    2  A    between atoms: N_7  and  C_8 
REMARK    3  A    between atoms: C_8  and  C_9 
REMARK    4  A    between atoms: C_9  and  N_10 
REMARK    5  A    between atoms: C_9  and  C_14 
ROOT
HETATM    1  N   UNL     1      25.437  44.716  52.860  1.00  0.00    -0.307 N 
HETATM    2  C   UNL     1      24.814  45.009  51.698  1.00  0.00     0.320 C 
HETATM    3  N   UNL     1      25.332  46.000  50.933  1.00  0.00    -0.340 N 
HETATM    4  O   UNL     1      23.844  44.361  51.307  1.00  0.00    -0.247 OA
HETATM    5  H   UNL     1      25.182  43.817  53.268  1.00  0.00     0.170 HD
HETATM    6  H   UNL     1      26.319  46.188  51.071  1.00  0.00     0.164 HD
ENDROOT
BRANCH   1   7
HETATM    7  C   UNL     1      26.294  45.461  53.712  1.00  0.00     0.066 A 
HETATM    8  C   UNL     1      25.971  46.721  54.232  1.00  0.00     0.038 A 
HETATM    9  C   UNL     1      26.859  47.395  55.079  1.00  0.00    -0.059 A 
HETATM   10  C   UNL     1      26.498  48.732  55.656  1.00  0.00     0.048 C 
HETATM   11  C   UNL     1      28.052  46.768  55.444  1.00  0.00     0.020 A 
HETATM   12  C   UNL     1      28.365  45.486  54.965  1.00  0.00    -0.005 A 
HETATM   13  C   UNL     1      27.483  44.816  54.090  1.00  0.00     0.093 A 
HETATM   14  C   UNL     1      29.544  44.833  55.348  1.00  0.00     0.015 A 
HETATM   15  N   UNL     1      27.752  43.573  53.621  1.00  0.00    -0.258 NA
HETATM   16  C   UNL     1      28.899  42.976  54.016  1.00  0.00     0.117 A 
HETATM   17  C   UNL     1      29.816  43.558  54.868  1.00  0.00     0.020 A 
ENDBRANCH   1   7
BRANCH   3  18
HETATM   18  C   UNL     1      24.642  46.651  49.824  1.00  0.00     0.164 C 
BRANCH  18  19
HETATM   19  C   UNL     1      24.778  48.204  49.709  1.00  0.00     0.261 C 
BRANCH  19  20
HETATM   20  N   UNL     1      25.978  48.614  48.856  1.00  0.00    -0.067 N 
HETATM   21  H   UNL     1      26.014  47.909  48.091  1.00  0.00     0.280 HD
HETATM   22  C   UNL     1      25.861  49.929  48.149  1.00  0.00     0.270 C 
HETATM   23  C   UNL     1      27.281  48.490  49.584  1.00  0.00     0.270 C 
ENDBRANCH  19  20
BRANCH  19  24
HETATM   24  C   UNL     1      23.497  48.827  49.243  1.00  0.00     0.085 A 
HETATM   25  O   UNL     1      23.172  50.020  49.824  1.00  0.00    -0.325 OA
HETATM   26  C   UNL     1      21.999  50.427  49.275  1.00  0.00     0.142 A 
HETATM   27  C   UNL     1      21.566  49.520  48.339  1.00  0.00     0.027 A 
HETATM   28  C   UNL     1      22.533  48.485  48.312  1.00  0.00     0.037 A 
ENDBRANCH  19  24
ENDBRANCH  18  19
ENDBRANCH   3  18
TORSDOF 5
ENDMDL
MODEL 5
REMARK VINA RESULT:      -8.7      2.865      4.069
REMARK  5 active torsions:
REMARK  status: ('A' for Active; 'I' for Inactive)
REMARK    1  A    between atoms: C_4  and  N_5 
REMARK       I    between atoms: N_5  and  C_6 
REMARK       I    between atoms: C_6  and  N_7 
REMARK    2  A    between atoms: N_7  and  C_8 
REMARK    3  A    between atoms: C_8  and  C_9 
REMARK    4  A    between atoms: C_9  and  N_10 
REMARK    5  A    between atoms: C_9  and  C_14 
ROOT
HETATM    1  N   UNL     1      29.523  42.537  53.849  1.00  0.00    -0.307 N 
HETATM    2  C   UNL     1      28.959  41.899  52.801  1.00  0.00     0.320 C 
HETATM    3  N   UNL     1      28.302  42.645  51.881  1.00  0.00    -0.340 N 
HETATM    4  O   UNL     1      29.088  40.685  52.644  1.00  0.00    -0.247 OA
HETATM    5  H   UNL     1      30.214  41.991  54.364  1.00  0.00     0.170 HD
HETATM    6  H   UNL     1      28.588  43.616  51.823  1.00  0.00     0.164 HD
ENDROOT
BRANCH   1   7
HETATM    7  C   UNL     1      29.264  43.787  54.472  1.00  0.00     0.066 A 
HETATM    8  C   UNL     1      28.285  44.687  54.034  1.00  0.00     0.038 A 
HETATM    9  C   UNL     1      28.075  45.897  54.705  1.00  0.00    -0.059 A 
HETATM   10  C   UNL     1      27.005  46.848  54.249  1.00  0.00     0.048 C 
HETATM   11  C   UNL     1      28.819  46.172  55.854  1.00  0.00     0.020 A 
HETATM   12  C   UNL     1      29.772  45.257  56.327  1.00  0.00    -0.005 A 
HETATM   13  C   UNL     1      30.005  44.047  55.637  1.00  0.00     0.093 A 
HETATM   14  C   UNL     1      30.504  45.506  57.495  1.00  0.00     0.015 A 
HETATM   15  N   UNL     1      30.908  43.138  56.077  1.00  0.00    -0.258 NA
HETATM   16  C   UNL     1      31.593  43.415  57.210  1.00  0.00     0.117 A 
HETATM   17  C   UNL     1      31.428  44.571  57.946  1.00  0.00     0.020 A 
ENDBRANCH   1   7
BRANCH   3  18
HETATM   18  C   UNL     1      27.390  42.119  50.871  1.00  0.00     0.164 C 
BRANCH  18  19
HETATM   19  C   UNL     1      26.926  43.100  49.746  1.00  0.00     0.261 C 
BRANCH  19  20
HETATM   20  N   UNL     1      26.279  42.365  48.573  1.00  0.00    -0.067 N 
HETATM   21  H   UNL     1      26.182  43.087  47.829  1.00  0.00     0.280 HD
HETATM   22  C   UNL     1      27.100  41.284  47.942  1.00  0.00     0.270 C 
HETATM   23  C   UNL     1      24.887  41.901  48.873  1.00  0.00     0.270 C 
ENDBRANCH  19  20
BRANCH  19  24
HETATM   24  C   UNL     1      26.053  44.186  50.300  1.00  0.00     0.085 A 
HETATM   25  O   UNL     1      25.557  43.966  51.554  1.00  0.00    -0.325 OA
HETATM   26  C   UNL     1      24.807  45.048  51.883  1.00  0.00     0.142 A 
HETATM   27  C   UNL     1      24.819  45.970  50.865  1.00  0.00     0.027 A 
HETATM   28  C   UNL     1      25.627  45.418  49.840  1.00  0.00     0.037 A 
ENDBRANCH  19  24
ENDBRANCH  18  19
ENDBRANCH   3  18
TORSDOF 5
ENDMDL
MODEL 6
REMARK VINA RESULT:      -8.7      2.377      8.194
REMARK  5 active torsions:
REMARK  status: ('A' for Active; 'I' for Inactive)
REMARK    1  A    between atoms: C_4  and  N_5 
REMARK       I    between atoms: N_5  and  C_6 
REMARK       I    between atoms: C_6  and  N_7 
REMARK    2  A    between atoms: N_7  and  C_8 
REMARK    3  A    between atoms: C_8  and  C_9 
REMARK    4  A    between atoms: C_9  and  N_10 
REMARK    5  A    between atoms: C_9  and  C_14 
ROOT
HETATM    1  N   UNL     1      24.024  46.100  50.080  1.00  0.00    -0.307 N 
HETATM    2  C   UNL     1      24.290  45.285  51.124  1.00  0.00     0.320 C 
HETATM    3  N   UNL     1      24.939  45.810  52.190  1.00  0.00    -0.340 N 
HETATM    4  O   UNL     1      23.904  44.117  51.141  1.00  0.00    -0.247 OA
HETATM    5  H   UNL     1      23.322  45.747  49.428  1.00  0.00     0.170 HD
HETATM    6  H   UNL     1      24.844  46.813  52.308  1.00  0.00     0.164 HD
ENDROOT
BRANCH   1   7
HETATM    7  C   UNL     1      24.611  47.309  49.624  1.00  0.00     0.066 A 
HETATM    8  C   UNL     1      25.987  47.569  49.661  1.00  0.00     0.038 A 
HETATM    9  C   UNL     1      26.499  48.779  49.180  1.00  0.00    -0.059 A 
HETATM   10  C   UNL     1      27.977  49.043  49.196  1.00  0.00     0.048 C 
HETATM   11  C   UNL     1      25.624  49.706  48.611  1.00  0.00     0.020 A 
HETATM   12  C   UNL     1      24.249  49.437  48.527  1.00  0.00    -0.005 A 
HETATM   13  C   UNL     1      23.726  48.228  49.035  1.00  0.00     0.093 A 
HETATM   14  C   UNL     1      23.363  50.344  47.931  1.00  0.00     0.015 A 
HETATM   15  N   UNL     1      22.405  47.934  48.958  1.00  0.00    -0.258 NA
HETATM   16  C   UNL     1      21.584  48.835  48.372  1.00  0.00     0.117 A 
HETATM   17  C   UNL     1      22.010  50.040  47.850  1.00  0.00     0.020 A 
ENDBRANCH   1   7
BRANCH   3  18
HETATM   18  C   UNL     1      25.571  45.036  53.253  1.00  0.00     0.164 C 
BRANCH  18  19
HETATM   19  C   UNL     1      27.093  45.281  53.509  1.00  0.00     0.261 C 
BRANCH  19  20
HETATM   20  N   UNL     1      27.340  46.087  54.784  1.00  0.00    -0.067 N 
HETATM   21  H   UNL     1      26.942  45.503  55.548  1.00  0.00     0.280 HD
HETATM   22  C   UNL     1      28.773  46.285  55.169  1.00  0.00     0.270 C 
HETATM   23  C   UNL     1      26.574  47.374  54.817  1.00  0.00     0.270 C 
ENDBRANCH  19  20
BRANCH  19  24
HETATM   24  C   UNL     1      27.862  43.994  53.482  1.00  0.00     0.085 A 
HETATM   25  O   UNL     1      28.914  43.950  52.612  1.00  0.00    -0.325 OA
HETATM   26  C   UNL     1      29.484  42.725  52.734  1.00  0.00     0.142 A 
HETATM   27  C   UNL     1      28.823  41.978  53.678  1.00  0.00     0.027 A 
HETATM   28  C   UNL     1      27.775  42.796  54.168  1.00  0.00     0.037 A 
ENDBRANCH  19  24
ENDBRANCH  18  19
ENDBRANCH   3  18
TORSDOF 5
ENDMDL
MODEL 7
REMARK VINA RESULT:      -8.6     12.879     15.323
REMARK  5 active torsions:
REMARK  status: ('A' for Active; 'I' for Inactive)
REMARK    1  A    between atoms: C_4  and  N_5 
REMARK       I    between atoms: N_5  and  C_6 
REMARK       I    between atoms: C_6  and  N_7 
REMARK    2  A    between atoms: N_7  and  C_8 
REMARK    3  A    between atoms: C_8  and  C_9 
REMARK    4  A    between atoms: C_9  and  N_10 
REMARK    5  A    between atoms: C_9  and  C_14 
ROOT
HETATM    1  N   UNL     1      32.117  51.415  38.680  1.00  0.00    -0.307 N 
HETATM    2  C   UNL     1      33.396  51.640  39.049  1.00  0.00     0.320 C 
HETATM    3  N   UNL     1      34.033  50.674  39.753  1.00  0.00    -0.340 N 
HETATM    4  O   UNL     1      33.994  52.660  38.707  1.00  0.00    -0.247 OA
HETATM    5  H   UNL     1      31.767  52.033  37.947  1.00  0.00     0.170 HD
HETATM    6  H   UNL     1      33.671  49.734  39.631  1.00  0.00     0.164 HD
ENDROOT
BRANCH   1   7
HETATM    7  C   UNL     1      31.098  50.567  39.190  1.00  0.00     0.066 A 
HETATM    8  C   UNL     1      31.130  49.170  39.097  1.00  0.00     0.038 A 
HETATM    9  C   UNL     1      30.097  48.394  39.635  1.00  0.00    -0.059 A 
HETATM   10  C   UNL     1      30.148  46.896  39.559  1.00  0.00     0.048 C 
HETATM   11  C   UNL     1      29.057  49.030  40.315  1.00  0.00     0.020 A 
HETATM   12  C   UNL     1      29.038  50.427  40.452  1.00  0.00    -0.005 A 
HETATM   13  C   UNL     1      30.065  51.214  39.888  1.00  0.00     0.093 A 
HETATM   14  C   UNL     1      28.016  51.076  41.158  1.00  0.00     0.015 A 
HETATM   15  N   UNL     1      30.081  52.563  40.015  1.00  0.00    -0.258 NA
HETATM   16  C   UNL     1      29.078  53.151  40.706  1.00  0.00     0.117 A 
HETATM   17  C   UNL     1      28.036  52.459  41.289  1.00  0.00     0.020 A 
ENDBRANCH   1   7
BRANCH   3  18
HETATM   18  C   UNL     1      35.282  50.855  40.487  1.00  0.00     0.164 C 
BRANCH  18  19
HETATM   19  C   UNL     1      35.178  51.084  42.029  1.00  0.00     0.261 C 
BRANCH  19  20
HETATM   20  N   UNL     1      35.790  52.418  42.454  1.00  0.00    -0.067 N 
HETATM   21  H   UNL     1      34.985  53.077  42.499  1.00  0.00     0.280 HD
HETATM   22  C   UNL     1      36.386  52.459  43.827  1.00  0.00     0.270 C 
HETATM   23  C   UNL     1      36.722  52.985  41.428  1.00  0.00     0.270 C 
ENDBRANCH  19  20
BRANCH  19  24
HETATM   24  C   UNL     1      33.767  50.917  42.508  1.00  0.00     0.085 A 
HETATM   25  O   UNL     1      33.193  49.705  42.249  1.00  0.00    -0.325 OA
HETATM   26  C   UNL     1      31.935  49.740  42.759  1.00  0.00     0.142 A 
HETATM   27  C   UNL     1      31.691  50.954  43.353  1.00  0.00     0.027 A 
HETATM   28  C   UNL     1      32.874  51.717  43.197  1.00  0.00     0.037 A 
ENDBRANCH  19  24
ENDBRANCH  18  19
ENDBRANCH   3  18
TORSDOF 5
ENDMDL
MODEL 8
REMARK VINA RESULT:      -8.5      2.198      3.644
REMARK  5 active torsions:
REMARK  status: ('A' for Active; 'I' for Inactive)
REMARK    1  A    between atoms: C_4  and  N_5 
REMARK       I    between atoms: N_5  and  C_6 
REMARK       I    between atoms: C_6  and  N_7 
REMARK    2  A    between atoms: N_7  and  C_8 
REMARK    3  A    between atoms: C_8  and  C_9 
REMARK    4  A    between atoms: C_9  and  N_10 
REMARK    5  A    between atoms: C_9  and  C_14 
ROOT
HETATM    1  N   UNL     1      25.504  44.212  52.615  1.00  0.00    -0.307 N 
HETATM    2  C   UNL     1      25.052  44.773  51.473  1.00  0.00     0.320 C 
HETATM    3  N   UNL     1      25.957  45.360  50.653  1.00  0.00    -0.340 N 
HETATM    4  O   UNL     1      23.868  44.704  51.147  1.00  0.00    -0.247 OA
HETATM    5  H   UNL     1      24.852  43.568  53.064  1.00  0.00     0.170 HD
HETATM    6  H   UNL     1      26.909  45.022  50.741  1.00  0.00     0.164 HD
ENDROOT
BRANCH   1   7
HETATM    7  C   UNL     1      26.666  44.425  53.403  1.00  0.00     0.066 A 
HETATM    8  C   UNL     1      27.710  43.498  53.516  1.00  0.00     0.038 A 
HETATM    9  C   UNL     1      28.834  43.779  54.301  1.00  0.00    -0.059 A 
HETATM   10  C   UNL     1      29.965  42.796  54.396  1.00  0.00     0.048 C 
HETATM   11  C   UNL     1      28.926  45.023  54.930  1.00  0.00     0.020 A 
HETATM   12  C   UNL     1      27.906  45.976  54.787  1.00  0.00    -0.005 A 
HETATM   13  C   UNL     1      26.759  45.685  54.018  1.00  0.00     0.093 A 
HETATM   14  C   UNL     1      27.999  47.238  55.388  1.00  0.00     0.015 A 
HETATM   15  N   UNL     1      25.763  46.589  53.852  1.00  0.00    -0.258 NA
HETATM   16  C   UNL     1      25.893  47.797  54.445  1.00  0.00     0.117 A 
HETATM   17  C   UNL     1      26.979  48.165  55.214  1.00  0.00     0.020 A 
ENDBRANCH   1   7
BRANCH   3  18
HETATM   18  C   UNL     1      25.632  46.265  49.555  1.00  0.00     0.164 C 
BRANCH  18  19
HETATM   19  C   UNL     1      25.292  47.745  49.924  1.00  0.00     0.261 C 
BRANCH  19  20
HETATM   20  N   UNL     1      26.340  48.724  49.397  1.00  0.00    -0.067 N 
HETATM   21  H   UNL     1      26.473  49.411  50.167  1.00  0.00     0.280 HD
HETATM   22  C   UNL     1      27.706  48.159  49.157  1.00  0.00     0.270 C 
HETATM   23  C   UNL     1      25.855  49.519  48.224  1.00  0.00     0.270 C 
ENDBRANCH  19  20
BRANCH  19  24
HETATM   24  C   UNL     1      23.900  48.104  49.499  1.00  0.00     0.085 A 
HETATM   25  O   UNL     1      23.453  49.330  49.904  1.00  0.00    -0.325 OA
HETATM   26  C   UNL     1      22.193  49.476  49.423  1.00  0.00     0.142 A 
HETATM   27  C   UNL     1      21.821  48.367  48.703  1.00  0.00     0.027 A 
HETATM   28  C   UNL     1      22.923  47.478  48.746  1.00  0.00     0.037 A 
ENDBRANCH  19  24
ENDBRANCH  18  19
ENDBRANCH   3  18
TORSDOF 5
ENDMDL
MODEL 9
REMARK VINA RESULT:      -8.3      3.849      6.115
REMARK  5 active torsions:
REMARK  status: ('A' for Active; 'I' for Inactive)
REMARK    1  A    between atoms: C_4  and  N_5 
REMARK       I    between atoms: N_5  and  C_6 
REMARK       I    between atoms: C_6  and  N_7 
REMARK    2  A    between atoms: N_7  and  C_8 
REMARK    3  A    between atoms: C_8  and  C_9 
REMARK    4  A    between atoms: C_9  and  N_10 
REMARK    5  A    between atoms: C_9  and  C_14 
ROOT
HETATM    1  N   UNL     1      25.575  43.698  53.144  1.00  0.00    -0.307 N 
HETATM    2  C   UNL     1      25.327  43.105  51.956  1.00  0.00     0.320 C 
HETATM    3  N   UNL     1      26.317  42.371  51.394  1.00  0.00    -0.340 N 
HETATM    4  O   UNL     1      24.220  43.170  51.424  1.00  0.00    -0.247 OA
HETATM    5  H   UNL     1      24.745  44.013  53.647  1.00  0.00     0.170 HD
HETATM    6  H   UNL     1      27.008  42.004  52.040  1.00  0.00     0.164 HD
ENDROOT
BRANCH   1   7
HETATM    7  C   UNL     1      26.772  44.093  53.796  1.00  0.00     0.066 A 
HETATM    8  C   UNL     1      27.866  43.242  53.998  1.00  0.00     0.038 A 
HETATM    9  C   UNL     1      29.022  43.703  54.637  1.00  0.00    -0.059 A 
HETATM   10  C   UNL     1      30.204  42.796  54.827  1.00  0.00     0.048 C 
HETATM   11  C   UNL     1      29.094  45.043  55.024  1.00  0.00     0.020 A 
HETATM   12  C   UNL     1      28.020  45.916  54.786  1.00  0.00    -0.005 A 
HETATM   13  C   UNL     1      26.843  45.447  54.165  1.00  0.00     0.093 A 
HETATM   14  C   UNL     1      28.090  47.269  55.141  1.00  0.00     0.015 A 
HETATM   15  N   UNL     1      25.795  46.268  53.911  1.00  0.00    -0.258 NA
HETATM   16  C   UNL     1      25.903  47.569  54.266  1.00  0.00     0.117 A 
HETATM   17  C   UNL     1      27.016  48.110  54.877  1.00  0.00     0.020 A 
ENDBRANCH   1   7
BRANCH   3  18
HETATM   18  C   UNL     1      26.344  41.920  50.006  1.00  0.00     0.164 C 
BRANCH  18  19
HETATM   19  C   UNL     1      25.769  40.499  49.705  1.00  0.00     0.261 C 
BRANCH  19  20
HETATM   20  N   UNL     1      24.951  40.471  48.415  1.00  0.00    -0.067 N 
HETATM   21  H   UNL     1      24.639  39.482  48.319  1.00  0.00     0.280 HD
HETATM   22  C   UNL     1      23.681  41.265  48.425  1.00  0.00     0.270 C 
HETATM   23  C   UNL     1      25.774  40.757  47.196  1.00  0.00     0.270 C 
ENDBRANCH  19  20
BRANCH  19  24
HETATM   24  C   UNL     1      26.852  39.462  49.724  1.00  0.00     0.085 A 
HETATM   25  O   UNL     1      28.084  39.897  50.122  1.00  0.00    -0.325 OA
HETATM   26  C   UNL     1      28.919  38.828  50.083  1.00  0.00     0.142 A 
HETATM   27  C   UNL     1      28.243  37.704  49.676  1.00  0.00     0.027 A 
HETATM   28  C   UNL     1      26.904  38.107  49.447  1.00  0.00     0.037 A 
ENDBRANCH  19  24
ENDBRANCH  18  19
ENDBRANCH   3  18
TORSDOF 5
ENDMDL
MODEL 10
REMARK VINA RESULT:      -8.3      2.244      4.286
REMARK  5 active torsions:
REMARK  status: ('A' for Active; 'I' for Inactive)
REMARK    1  A    between atoms: C_4  and  N_5 
REMARK       I    between atoms: N_5  and  C_6 
REMARK       I    between atoms: C_6  and  N_7 
REMARK    2  A    between atoms: N_7  and  C_8 
REMARK    3  A    between atoms: C_8  and  C_9 
REMARK    4  A    between atoms: C_9  and  N_10 
REMARK    5  A    between atoms: C_9  and  C_14 
ROOT
HETATM    1  N   UNL     1      27.540  42.988  53.060  1.00  0.00    -0.307 N 
HETATM    2  C   UNL     1      27.016  43.237  51.841  1.00  0.00     0.320 C 
HETATM    3  N   UNL     1      27.493  44.300  51.150  1.00  0.00    -0.340 N 
HETATM    4  O   UNL     1      26.177  42.491  51.338  1.00  0.00    -0.247 OA
HETATM    5  H   UNL     1      27.351  42.054  53.426  1.00  0.00     0.170 HD
HETATM    6  H   UNL     1      28.430  44.597  51.398  1.00  0.00     0.164 HD
ENDROOT
BRANCH   1   7
HETATM    7  C   UNL     1      28.208  43.805  54.011  1.00  0.00     0.066 A 
HETATM    8  C   UNL     1      29.428  43.465  54.609  1.00  0.00     0.038 A 
HETATM    9  C   UNL     1      30.037  44.325  55.529  1.00  0.00    -0.059 A 
HETATM   10  C   UNL     1      31.359  43.971  56.147  1.00  0.00     0.048 C 
HETATM   11  C   UNL     1      29.438  45.556  55.804  1.00  0.00     0.020 A 
HETATM   12  C   UNL     1      28.238  45.926  55.176  1.00  0.00    -0.005 A 
HETATM   13  C   UNL     1      27.608  45.049  54.268  1.00  0.00     0.093 A 
HETATM   14  C   UNL     1      27.642  47.170  55.420  1.00  0.00     0.015 A 
HETATM   15  N   UNL     1      26.456  45.383  53.637  1.00  0.00    -0.258 NA
HETATM   16  C   UNL     1      25.914  46.594  53.897  1.00  0.00     0.117 A 
HETATM   17  C   UNL     1      26.462  47.512  54.770  1.00  0.00     0.020 A 
ENDBRANCH   1   7
BRANCH   3  18
HETATM   18  C   UNL     1      26.854  44.896  49.981  1.00  0.00     0.164 C 
BRANCH  18  19
HETATM   19  C   UNL     1      25.480  45.607  50.201  1.00  0.00     0.261 C 
BRANCH  19  20
HETATM   20  N   UNL     1      25.463  47.019  49.617  1.00  0.00    -0.067 N 
HETATM   21  H   UNL     1      25.544  46.882  48.588  1.00  0.00     0.280 HD
HETATM   22  C   UNL     1      24.191  47.788  49.794  1.00  0.00     0.270 C 
HETATM   23  C   UNL     1      26.660  47.828  50.013  1.00  0.00     0.270 C 
ENDBRANCH  19  20
BRANCH  19  24
HETATM   24  C   UNL     1      24.346  44.762  49.702  1.00  0.00     0.085 A 
HETATM   25  O   UNL     1      23.478  44.312  50.656  1.00  0.00    -0.325 OA
HETATM   26  C   UNL     1      22.527  43.581  50.020  1.00  0.00     0.142 A 
HETATM   27  C   UNL     1      22.762  43.561  48.667  1.00  0.00     0.027 A 
HETATM   28  C   UNL     1      23.935  44.327  48.456  1.00  0.00     0.037 A 
ENDBRANCH  19  24
ENDBRANCH  18  19
ENDBRANCH   3  18
TORSDOF 5
ENDMDL
