MODEL 1
REMARK VINA RESULT:      -9.1      0.000      0.000
REMARK  7 active torsions:
REMARK  status: ('A' for Active; 'I' for Inactive)
REMARK    1  A    between atoms: C_3  and  O_4 
REMARK    2  A    between atoms: O_4  and  C_5 
REMARK    3  A    between atoms: C_5  and  C_6 
REMARK    4  A    between atoms: C_7  and  C_8 
REMARK    5  A    between atoms: C_8  and  N_9 
REMARK       I    between atoms: N_9  and  C_10 
REMARK    6  A    between atoms: C_10  and  C_11 
REMARK    7  A    between atoms: C_15  and  C_16 
ROOT
HETATM    1  N   UNL     1      24.399  47.099  50.271  1.00  0.00    -0.345 N 
HETATM    2  C   UNL     1      24.230  48.308  49.644  1.00  0.00     0.270 C 
HETATM    3  O   UNL     1      25.166  48.983  49.229  1.00  0.00    -0.266 OA
HETATM    4  H   UNL     1      23.592  46.536  50.486  1.00  0.00     0.163 HD
ENDROOT
BRANCH   1   5
HETATM    5  C   UNL     1      25.696  46.491  50.420  1.00  0.00     0.217 C 
BRANCH   5   6
HETATM    6  C   UNL     1      26.141  46.602  51.812  1.00  0.00    -0.085 C 
HETATM    7  C   UNL     1      26.502  46.667  52.957  1.00  0.00    -0.078 C 
BRANCH   7   8
HETATM    8  C   UNL     1      26.941  46.716  54.359  1.00  0.00     0.269 C 
BRANCH   8   9
HETATM    9  O   UNL     1      27.116  45.383  54.831  1.00  0.00    -0.339 OA
BRANCH   9  10
HETATM   10  C   UNL     1      28.384  44.993  55.178  1.00  0.00     0.075 A 
HETATM   11  C   UNL     1      28.847  43.812  54.571  1.00  0.00    -0.029 A 
HETATM   12  C   UNL     1      27.979  43.026  53.627  1.00  0.00     0.051 C 
HETATM   13  C   UNL     1      30.125  43.326  54.892  1.00  0.00     0.009 A 
HETATM   14  C   UNL     1      30.941  44.013  55.787  1.00  0.00     0.001 A 
HETATM   15  C   UNL     1      30.485  45.187  56.379  1.00  0.00     0.003 A 
HETATM   16  C   UNL     1      29.209  45.673  56.080  1.00  0.00     0.037 A 
ENDBRANCH   9  10
ENDBRANCH   8   9
ENDBRANCH   7   8
ENDBRANCH   5   6
ENDBRANCH   1   5
BRANCH   2  17
HETATM   17  C   UNL     1      22.866  48.745  49.510  1.00  0.00     0.120 A 
HETATM   18  N   UNL     1      21.853  47.855  49.291  1.00  0.00    -0.272 N 
HETATM   19  H   UNL     1      21.940  46.846  49.212  1.00  0.00     0.189 HD
HETATM   20  N   UNL     1      20.642  48.415  49.172  1.00  0.00    -0.174 NA
HETATM   21  C   UNL     1      20.858  49.734  49.311  1.00  0.00     0.089 A 
HETATM   22  C   UNL     1      22.245  49.978  49.533  1.00  0.00     0.071 A 
BRANCH  21  23
HETATM   23  C   UNL     1      19.760  50.706  49.219  1.00  0.00    -0.006 A 
HETATM   24  C   UNL     1      19.857  51.808  48.353  1.00  0.00     0.014 A 
HETATM   25  C   UNL     1      18.825  52.746  48.262  1.00  0.00     0.001 A 
HETATM   26  C   UNL     1      17.679  52.597  49.037  1.00  0.00     0.000 A 
HETATM   27  C   UNL     1      17.563  51.511  49.901  1.00  0.00     0.001 A 
HETATM   28  C   UNL     1      18.597  50.571  49.992  1.00  0.00     0.014 A 
ENDBRANCH  21  23
ENDBRANCH   2  17
TORSDOF 7
ENDMDL
MODEL 2
REMARK VINA RESULT:      -9.1      3.902     10.517
REMARK  7 active torsions:
REMARK  status: ('A' for Active; 'I' for Inactive)
REMARK    1  A    between atoms: C_3  and  O_4 
REMARK    2  A    between atoms: O_4  and  C_5 
REMARK    3  A    between atoms: C_5  and  C_6 
REMARK    4  A    between atoms: C_7  and  C_8 
REMARK    5  A    between atoms: C_8  and  N_9 
REMARK       I    between atoms: N_9  and  C_10 
REMARK    6  A    between atoms: C_10  and  C_11 
REMARK    7  A    between atoms: C_15  and  C_16 
ROOT
HETATM    1  N   UNL     1      26.044  42.761  51.647  1.00  0.00    -0.345 N 
HETATM    2  C   UNL     1      27.267  42.150  51.523  1.00  0.00     0.270 C 
HETATM    3  O   UNL     1      27.514  41.319  50.656  1.00  0.00    -0.266 OA
HETATM    4  H   UNL     1      25.932  43.518  52.302  1.00  0.00     0.163 HD
ENDROOT
BRANCH   1   5
HETATM    5  C   UNL     1      24.974  42.525  50.711  1.00  0.00     0.217 C 
BRANCH   5   6
HETATM    6  C   UNL     1      24.466  43.802  50.202  1.00  0.00    -0.085 C 
HETATM    7  C   UNL     1      24.073  44.853  49.773  1.00  0.00    -0.078 C 
BRANCH   7   8
HETATM    8  C   UNL     1      23.617  46.141  49.229  1.00  0.00     0.269 C 
BRANCH   8   9
HETATM    9  O   UNL     1      24.069  47.186  50.086  1.00  0.00    -0.339 OA
BRANCH   9  10
HETATM   10  C   UNL     1      25.091  47.981  49.634  1.00  0.00     0.075 A 
HETATM   11  C   UNL     1      24.703  49.085  48.852  1.00  0.00    -0.029 A 
HETATM   12  C   UNL     1      23.258  49.339  48.520  1.00  0.00     0.051 C 
HETATM   13  C   UNL     1      25.687  49.937  48.325  1.00  0.00     0.009 A 
HETATM   14  C   UNL     1      27.036  49.711  48.588  1.00  0.00     0.001 A 
HETATM   15  C   UNL     1      27.416  48.624  49.369  1.00  0.00     0.003 A 
HETATM   16  C   UNL     1      26.448  47.760  49.887  1.00  0.00     0.037 A 
ENDBRANCH   9  10
ENDBRANCH   8   9
ENDBRANCH   7   8
ENDBRANCH   5   6
ENDBRANCH   1   5
BRANCH   2  17
HETATM   17  C   UNL     1      28.251  42.547  52.494  1.00  0.00     0.120 A 
HETATM   18  N   UNL     1      29.566  42.203  52.354  1.00  0.00    -0.272 N 
HETATM   19  H   UNL     1      29.975  41.670  51.593  1.00  0.00     0.189 HD
HETATM   20  N   UNL     1      30.357  42.631  53.347  1.00  0.00    -0.174 NA
HETATM   21  C   UNL     1      29.533  43.281  54.187  1.00  0.00     0.089 A 
HETATM   22  C   UNL     1      28.202  43.256  53.678  1.00  0.00     0.071 A 
BRANCH  21  23
HETATM   23  C   UNL     1      30.027  43.887  55.431  1.00  0.00    -0.006 A 
HETATM   24  C   UNL     1      31.017  43.243  56.192  1.00  0.00     0.014 A 
HETATM   25  C   UNL     1      31.489  43.803  57.382  1.00  0.00     0.001 A 
HETATM   26  C   UNL     1      30.980  45.017  57.831  1.00  0.00     0.000 A 
HETATM   27  C   UNL     1      29.999  45.673  57.090  1.00  0.00     0.001 A 
HETATM   28  C   UNL     1      29.525  45.112  55.898  1.00  0.00     0.014 A 
ENDBRANCH  21  23
ENDBRANCH   2  17
TORSDOF 7
ENDMDL
MODEL 3
REMARK VINA RESULT:      -9.0      2.036     11.163
REMARK  7 active torsions:
REMARK  status: ('A' for Active; 'I' for Inactive)
REMARK    1  A    between atoms: C_3  and  O_4 
REMARK    2  A    between atoms: O_4  and  C_5 
REMARK    3  A    between atoms: C_5  and  C_6 
REMARK    4  A    between atoms: C_7  and  C_8 
REMARK    5  A    between atoms: C_8  and  N_9 
REMARK       I    between atoms: N_9  and  C_10 
REMARK    6  A    between atoms: C_10  and  C_11 
REMARK    7  A    between atoms: C_15  and  C_16 
ROOT
HETATM    1  N   UNL     1      25.172  45.831  50.542  1.00  0.00    -0.345 N 
HETATM    2  C   UNL     1      25.003  45.086  51.682  1.00  0.00     0.270 C 
HETATM    3  O   UNL     1      24.050  44.335  51.855  1.00  0.00    -0.266 OA
HETATM    4  H   UNL     1      26.030  46.341  50.406  1.00  0.00     0.163 HD
ENDROOT
BRANCH   1   5
HETATM    5  C   UNL     1      24.273  45.726  49.421  1.00  0.00     0.217 C 
BRANCH   5   6
HETATM    6  C   UNL     1      23.547  46.987  49.245  1.00  0.00    -0.085 C 
HETATM    7  C   UNL     1      22.974  48.034  49.102  1.00  0.00    -0.078 C 
BRANCH   7   8
HETATM    8  C   UNL     1      22.302  49.329  48.924  1.00  0.00     0.269 C 
BRANCH   8   9
HETATM    9  O   UNL     1      21.043  49.287  49.589  1.00  0.00    -0.339 OA
BRANCH   9  10
HETATM   10  C   UNL     1      20.178  50.331  49.381  1.00  0.00     0.075 A 
HETATM   11  C   UNL     1      18.972  50.277  50.104  1.00  0.00    -0.029 A 
HETATM   12  C   UNL     1      18.659  49.124  51.017  1.00  0.00     0.051 C 
HETATM   13  C   UNL     1      18.018  51.292  49.930  1.00  0.00     0.009 A 
HETATM   14  C   UNL     1      18.264  52.358  49.068  1.00  0.00     0.001 A 
HETATM   15  C   UNL     1      19.461  52.414  48.361  1.00  0.00     0.003 A 
HETATM   16  C   UNL     1      20.414  51.402  48.513  1.00  0.00     0.037 A 
ENDBRANCH   9  10
ENDBRANCH   8   9
ENDBRANCH   7   8
ENDBRANCH   5   6
ENDBRANCH   1   5
BRANCH   2  17
HETATM   17  C   UNL     1      26.026  45.251  52.680  1.00  0.00     0.120 A 
HETATM   18  N   UNL     1      26.177  46.429  53.356  1.00  0.00    -0.272 N 
HETATM   19  H   UNL     1      25.614  47.267  53.246  1.00  0.00     0.189 HD
HETATM   20  N   UNL     1      27.183  46.433  54.240  1.00  0.00    -0.174 NA
HETATM   21  C   UNL     1      27.730  45.210  54.145  1.00  0.00     0.089 A 
HETATM   22  C   UNL     1      27.023  44.436  53.179  1.00  0.00     0.071 A 
BRANCH  21  23
HETATM   23  C   UNL     1      28.894  44.823  54.954  1.00  0.00    -0.006 A 
HETATM   24  C   UNL     1      29.576  43.624  54.690  1.00  0.00     0.014 A 
HETATM   25  C   UNL     1      30.679  43.238  55.457  1.00  0.00     0.001 A 
HETATM   26  C   UNL     1      31.118  44.047  56.500  1.00  0.00     0.000 A 
HETATM   27  C   UNL     1      30.456  45.241  56.777  1.00  0.00     0.001 A 
HETATM   28  C   UNL     1      29.351  45.627  56.009  1.00  0.00     0.014 A 
ENDBRANCH  21  23
ENDBRANCH   2  17
TORSDOF 7
ENDMDL
MODEL 4
REMARK VINA RESULT:      -9.0      3.676      9.894
REMARK  7 active torsions:
REMARK  status: ('A' for Active; 'I' for Inactive)
REMARK    1  A    between atoms: C_3  and  O_4 
REMARK    2  A    between atoms: O_4  and  C_5 
REMARK    3  A    between atoms: C_5  and  C_6 
REMARK    4  A    between atoms: C_7  and  C_8 
REMARK    5  A    between atoms: C_8  and  N_9 
REMARK       I    between atoms: N_9  and  C_10 
REMARK    6  A    between atoms: C_10  and  C_11 
REMARK    7  A    between atoms: C_15  and  C_16 
ROOT
HETATM    1  N   UNL     1      24.858  43.461  50.466  1.00  0.00    -0.345 N 
HETATM    2  C   UNL     1      26.208  43.708  50.497  1.00  0.00     0.270 C 
HETATM    3  O   UNL     1      26.878  43.891  49.487  1.00  0.00    -0.266 OA
HETATM    4  H   UNL     1      24.338  43.434  51.328  1.00  0.00     0.163 HD
ENDROOT
BRANCH   1   5
HETATM    5  C   UNL     1      24.107  43.475  49.236  1.00  0.00     0.217 C 
BRANCH   5   6
HETATM    6  C   UNL     1      23.590  44.823  48.983  1.00  0.00    -0.085 C 
HETATM    7  C   UNL     1      23.185  45.938  48.791  1.00  0.00    -0.078 C 
BRANCH   7   8
HETATM    8  C   UNL     1      22.716  47.314  48.569  1.00  0.00     0.269 C 
BRANCH   8   9
HETATM    9  O   UNL     1      23.331  48.168  49.529  1.00  0.00    -0.339 OA
BRANCH   9  10
HETATM   10  C   UNL     1      24.651  48.487  49.343  1.00  0.00     0.075 A 
HETATM   11  C   UNL     1      24.899  49.610  48.533  1.00  0.00    -0.029 A 
HETATM   12  C   UNL     1      23.773  50.378  47.897  1.00  0.00     0.051 C 
HETATM   13  C   UNL     1      26.224  49.992  48.268  1.00  0.00     0.009 A 
HETATM   14  C   UNL     1      27.290  49.282  48.816  1.00  0.00     0.001 A 
HETATM   15  C   UNL     1      27.042  48.177  49.625  1.00  0.00     0.003 A 
HETATM   16  C   UNL     1      25.729  47.778  49.885  1.00  0.00     0.037 A 
ENDBRANCH   9  10
ENDBRANCH   8   9
ENDBRANCH   7   8
ENDBRANCH   5   6
ENDBRANCH   1   5
BRANCH   2  17
HETATM   17  C   UNL     1      26.796  43.730  51.809  1.00  0.00     0.120 A 
HETATM   18  N   UNL     1      26.049  43.493  52.928  1.00  0.00    -0.272 N 
HETATM   19  H   UNL     1      25.057  43.279  52.960  1.00  0.00     0.189 HD
HETATM   20  N   UNL     1      26.735  43.565  54.076  1.00  0.00    -0.174 NA
HETATM   21  C   UNL     1      27.991  43.869  53.707  1.00  0.00     0.089 A 
HETATM   22  C   UNL     1      28.069  43.972  52.288  1.00  0.00     0.071 A 
BRANCH  21  23
HETATM   23  C   UNL     1      29.059  44.058  54.699  1.00  0.00    -0.006 A 
HETATM   24  C   UNL     1      29.149  45.257  55.426  1.00  0.00     0.014 A 
HETATM   25  C   UNL     1      30.164  45.456  56.366  1.00  0.00     0.001 A 
HETATM   26  C   UNL     1      31.106  44.458  56.595  1.00  0.00     0.000 A 
HETATM   27  C   UNL     1      31.033  43.261  55.885  1.00  0.00     0.001 A 
HETATM   28  C   UNL     1      30.016  43.062  54.943  1.00  0.00     0.014 A 
ENDBRANCH  21  23
ENDBRANCH   2  17
TORSDOF 7
ENDMDL
MODEL 5
REMARK VINA RESULT:      -8.9      2.214     11.163
REMARK  7 active torsions:
REMARK  status: ('A' for Active; 'I' for Inactive)
REMARK    1  A    between atoms: C_3  and  O_4 
REMARK    2  A    between atoms: O_4  and  C_5 
REMARK    3  A    between atoms: C_5  and  C_6 
REMARK    4  A    between atoms: C_7  and  C_8 
REMARK    5  A    between atoms: C_8  and  N_9 
REMARK       I    between atoms: N_9  and  C_10 
REMARK    6  A    between atoms: C_10  and  C_11 
REMARK    7  A    between atoms: C_15  and  C_16 
ROOT
HETATM    1  N   UNL     1      25.616  46.232  51.732  1.00  0.00    -0.345 N 
HETATM    2  C   UNL     1      25.589  45.413  52.833  1.00  0.00     0.270 C 
HETATM    3  O   UNL     1      24.716  44.573  53.021  1.00  0.00    -0.266 OA
HETATM    4  H   UNL     1      26.417  46.821  51.571  1.00  0.00     0.163 HD
ENDROOT
BRANCH   1   5
HETATM    5  C   UNL     1      24.653  46.111  50.667  1.00  0.00     0.217 C 
BRANCH   5   6
HETATM    6  C   UNL     1      24.563  47.374  49.930  1.00  0.00    -0.085 C 
HETATM    7  C   UNL     1      24.478  48.398  49.306  1.00  0.00    -0.078 C 
BRANCH   7   8
HETATM    8  C   UNL     1      24.354  49.636  48.522  1.00  0.00     0.269 C 
BRANCH   8   9
HETATM    9  O   UNL     1      23.316  49.468  47.561  1.00  0.00    -0.339 OA
BRANCH   9  10
HETATM   10  C   UNL     1      22.060  49.903  47.899  1.00  0.00     0.075 A 
HETATM   11  C   UNL     1      21.034  48.946  47.794  1.00  0.00    -0.029 A 
HETATM   12  C   UNL     1      21.315  47.549  47.311  1.00  0.00     0.051 C 
HETATM   13  C   UNL     1      19.713  49.314  48.094  1.00  0.00     0.009 A 
HETATM   14  C   UNL     1      19.415  50.608  48.514  1.00  0.00     0.001 A 
HETATM   15  C   UNL     1      20.433  51.551  48.626  1.00  0.00     0.003 A 
HETATM   16  C   UNL     1      21.750  51.202  48.316  1.00  0.00     0.037 A 
ENDBRANCH   9  10
ENDBRANCH   8   9
ENDBRANCH   7   8
ENDBRANCH   5   6
ENDBRANCH   1   5
BRANCH   2  17
HETATM   17  C   UNL     1      26.662  45.612  53.770  1.00  0.00     0.120 A 
HETATM   18  N   UNL     1      27.093  46.864  54.103  1.00  0.00    -0.272 N 
HETATM   19  H   UNL     1      26.723  47.744  53.755  1.00  0.00     0.189 HD
HETATM   20  N   UNL     1      28.109  46.886  54.974  1.00  0.00    -0.174 NA
HETATM   21  C   UNL     1      28.371  45.593  55.229  1.00  0.00     0.089 A 
HETATM   22  C   UNL     1      27.475  44.762  54.496  1.00  0.00     0.071 A 
BRANCH  21  23
HETATM   23  C   UNL     1      29.453  45.192  56.139  1.00  0.00    -0.006 A 
HETATM   24  C   UNL     1      29.591  45.808  57.394  1.00  0.00     0.014 A 
HETATM   25  C   UNL     1      30.621  45.445  58.267  1.00  0.00     0.001 A 
HETATM   26  C   UNL     1      31.530  44.459  57.897  1.00  0.00     0.000 A 
HETATM   27  C   UNL     1      31.410  43.835  56.657  1.00  0.00     0.001 A 
HETATM   28  C   UNL     1      30.379  44.199  55.783  1.00  0.00     0.014 A 
ENDBRANCH  21  23
ENDBRANCH   2  17
TORSDOF 7
ENDMDL
MODEL 6
REMARK VINA RESULT:      -8.8      1.921      2.442
REMARK  7 active torsions:
REMARK  status: ('A' for Active; 'I' for Inactive)
REMARK    1  A    between atoms: C_3  and  O_4 
REMARK    2  A    between atoms: O_4  and  C_5 
REMARK    3  A    between atoms: C_5  and  C_6 
REMARK    4  A    between atoms: C_7  and  C_8 
REMARK    5  A    between atoms: C_8  and  N_9 
REMARK       I    between atoms: N_9  and  C_10 
REMARK    6  A    between atoms: C_10  and  C_11 
REMARK    7  A    between atoms: C_15  and  C_16 
ROOT
HETATM    1  N   UNL     1      24.652  45.368  50.786  1.00  0.00    -0.345 N 
HETATM    2  C   UNL     1      25.282  46.224  49.919  1.00  0.00     0.270 C 
HETATM    3  O   UNL     1      26.430  46.051  49.524  1.00  0.00    -0.266 OA
HETATM    4  H   UNL     1      23.673  45.496  50.985  1.00  0.00     0.163 HD
ENDROOT
BRANCH   1   5
HETATM    5  C   UNL     1      25.271  44.149  51.242  1.00  0.00     0.217 C 
BRANCH   5   6
HETATM    6  C   UNL     1      25.944  44.381  52.523  1.00  0.00    -0.085 C 
HETATM    7  C   UNL     1      26.504  44.595  53.565  1.00  0.00    -0.078 C 
BRANCH   7   8
HETATM    8  C   UNL     1      27.193  44.887  54.830  1.00  0.00     0.269 C 
BRANCH   8   9
HETATM    9  O   UNL     1      28.564  45.158  54.553  1.00  0.00    -0.339 OA
BRANCH   9  10
HETATM   10  C   UNL     1      29.482  44.855  55.526  1.00  0.00     0.075 A 
HETATM   11  C   UNL     1      30.255  43.702  55.297  1.00  0.00    -0.029 A 
HETATM   12  C   UNL     1      30.051  42.855  54.071  1.00  0.00     0.051 C 
HETATM   13  C   UNL     1      31.200  43.303  56.256  1.00  0.00     0.009 A 
HETATM   14  C   UNL     1      31.391  44.048  57.417  1.00  0.00     0.001 A 
HETATM   15  C   UNL     1      30.632  45.194  57.637  1.00  0.00     0.003 A 
HETATM   16  C   UNL     1      29.677  45.594  56.698  1.00  0.00     0.037 A 
ENDBRANCH   9  10
ENDBRANCH   8   9
ENDBRANCH   7   8
ENDBRANCH   5   6
ENDBRANCH   1   5
BRANCH   2  17
HETATM   17  C   UNL     1      24.503  47.359  49.502  1.00  0.00     0.120 A 
HETATM   18  N   UNL     1      25.058  48.601  49.390  1.00  0.00    -0.272 N 
HETATM   19  H   UNL     1      26.027  48.850  49.569  1.00  0.00     0.189 HD
HETATM   20  N   UNL     1      24.202  49.557  49.008  1.00  0.00    -0.174 NA
HETATM   21  C   UNL     1      23.024  48.927  48.865  1.00  0.00     0.089 A 
HETATM   22  C   UNL     1      23.177  47.541  49.159  1.00  0.00     0.071 A 
BRANCH  21  23
HETATM   23  C   UNL     1      21.808  49.650  48.470  1.00  0.00    -0.006 A 
HETATM   24  C   UNL     1      20.786  48.991  47.766  1.00  0.00     0.014 A 
HETATM   25  C   UNL     1      19.627  49.668  47.375  1.00  0.00     0.001 A 
HETATM   26  C   UNL     1      19.472  51.017  47.682  1.00  0.00     0.000 A 
HETATM   27  C   UNL     1      20.474  51.688  48.380  1.00  0.00     0.001 A 
HETATM   28  C   UNL     1      21.634  51.010  48.771  1.00  0.00     0.014 A 
ENDBRANCH  21  23
ENDBRANCH   2  17
TORSDOF 7
ENDMDL
MODEL 7
REMARK VINA RESULT:      -8.5      2.242     10.986
REMARK  7 active torsions:
REMARK  status: ('A' for Active; 'I' for Inactive)
REMARK    1  A    between atoms: C_3  and  O_4 
REMARK    2  A    between atoms: O_4  and  C_5 
REMARK    3  A    between atoms: C_5  and  C_6 
REMARK    4  A    between atoms: C_7  and  C_8 
REMARK    5  A    between atoms: C_8  and  N_9 
REMARK       I    between atoms: N_9  and  C_10 
REMARK    6  A    between atoms: C_10  and  C_11 
REMARK    7  A    between atoms: C_15  and  C_16 
ROOT
HETATM    1  N   UNL     1      24.265  45.463  49.603  1.00  0.00    -0.345 N 
HETATM    2  C   UNL     1      24.316  44.540  50.617  1.00  0.00     0.270 C 
HETATM    3  O   UNL     1      23.344  43.883  50.973  1.00  0.00    -0.266 OA
HETATM    4  H   UNL     1      25.117  45.888  49.275  1.00  0.00     0.163 HD
ENDROOT
BRANCH   1   5
HETATM    5  C   UNL     1      23.072  45.675  48.823  1.00  0.00     0.217 C 
BRANCH   5   6
HETATM    6  C   UNL     1      22.765  47.107  48.760  1.00  0.00    -0.085 C 
HETATM    7  C   UNL     1      22.495  48.278  48.727  1.00  0.00    -0.078 C 
BRANCH   7   8
HETATM    8  C   UNL     1      22.145  49.705  48.710  1.00  0.00     0.269 C 
BRANCH   8   9
HETATM    9  O   UNL     1      21.216  49.962  49.760  1.00  0.00    -0.339 OA
BRANCH   9  10
HETATM   10  C   UNL     1      20.114  50.722  49.463  1.00  0.00     0.075 A 
HETATM   11  C   UNL     1      18.912  50.316  50.070  1.00  0.00    -0.029 A 
HETATM   12  C   UNL     1      18.856  49.105  50.960  1.00  0.00     0.051 C 
HETATM   13  C   UNL     1      17.729  51.022  49.799  1.00  0.00     0.009 A 
HETATM   14  C   UNL     1      17.741  52.129  48.954  1.00  0.00     0.001 A 
HETATM   15  C   UNL     1      18.934  52.534  48.362  1.00  0.00     0.003 A 
HETATM   16  C   UNL     1      20.116  51.832  48.611  1.00  0.00     0.037 A 
ENDBRANCH   9  10
ENDBRANCH   8   9
ENDBRANCH   7   8
ENDBRANCH   5   6
ENDBRANCH   1   5
BRANCH   2  17
HETATM   17  C   UNL     1      25.600  44.396  51.250  1.00  0.00     0.120 A 
HETATM   18  N   UNL     1      26.673  43.889  50.575  1.00  0.00    -0.272 N 
HETATM   19  H   UNL     1      26.690  43.583  49.606  1.00  0.00     0.189 HD
HETATM   20  N   UNL     1      27.793  43.801  51.304  1.00  0.00    -0.174 NA
HETATM   21  C   UNL     1      27.450  44.263  52.518  1.00  0.00     0.089 A 
HETATM   22  C   UNL     1      26.080  44.655  52.519  1.00  0.00     0.071 A 
BRANCH  21  23
HETATM   23  C   UNL     1      28.417  44.309  53.624  1.00  0.00    -0.006 A 
HETATM   24  C   UNL     1      29.391  43.305  53.758  1.00  0.00     0.014 A 
HETATM   25  C   UNL     1      30.311  43.329  54.810  1.00  0.00     0.001 A 
HETATM   26  C   UNL     1      30.272  44.359  55.745  1.00  0.00     0.000 A 
HETATM   27  C   UNL     1      29.314  45.365  55.629  1.00  0.00     0.001 A 
HETATM   28  C   UNL     1      28.393  45.340  54.575  1.00  0.00     0.014 A 
ENDBRANCH  21  23
ENDBRANCH   2  17
TORSDOF 7
ENDMDL
MODEL 8
REMARK VINA RESULT:      -8.5      1.780      2.388
REMARK  7 active torsions:
REMARK  status: ('A' for Active; 'I' for Inactive)
REMARK    1  A    between atoms: C_3  and  O_4 
REMARK    2  A    between atoms: O_4  and  C_5 
REMARK    3  A    between atoms: C_5  and  C_6 
REMARK    4  A    between atoms: C_7  and  C_8 
REMARK    5  A    between atoms: C_8  and  N_9 
REMARK       I    between atoms: N_9  and  C_10 
REMARK    6  A    between atoms: C_10  and  C_11 
REMARK    7  A    between atoms: C_15  and  C_16 
ROOT
HETATM    1  N   UNL     1      23.540  45.453  50.196  1.00  0.00    -0.345 N 
HETATM    2  C   UNL     1      23.142  46.007  49.005  1.00  0.00     0.270 C 
HETATM    3  O   UNL     1      23.237  45.423  47.931  1.00  0.00    -0.266 OA
HETATM    4  H   UNL     1      23.333  45.930  51.058  1.00  0.00     0.163 HD
ENDROOT
BRANCH   1   5
HETATM    5  C   UNL     1      24.033  44.101  50.282  1.00  0.00     0.217 C 
BRANCH   5   6
HETATM    6  C   UNL     1      24.932  43.972  51.432  1.00  0.00    -0.085 C 
HETATM    7  C   UNL     1      25.656  43.883  52.388  1.00  0.00    -0.078 C 
BRANCH   7   8
HETATM    8  C   UNL     1      26.521  43.793  53.573  1.00  0.00     0.269 C 
BRANCH   8   9
HETATM    9  O   UNL     1      27.693  44.570  53.345  1.00  0.00    -0.339 OA
BRANCH   9  10
HETATM   10  C   UNL     1      28.718  44.454  54.249  1.00  0.00     0.075 A 
HETATM   11  C   UNL     1      28.910  45.560  55.097  1.00  0.00    -0.029 A 
HETATM   12  C   UNL     1      28.054  46.791  54.982  1.00  0.00     0.051 C 
HETATM   13  C   UNL     1      29.955  45.537  56.034  1.00  0.00     0.009 A 
HETATM   14  C   UNL     1      30.786  44.425  56.144  1.00  0.00     0.001 A 
HETATM   15  C   UNL     1      30.588  43.328  55.310  1.00  0.00     0.003 A 
HETATM   16  C   UNL     1      29.561  43.344  54.363  1.00  0.00     0.037 A 
ENDBRANCH   9  10
ENDBRANCH   8   9
ENDBRANCH   7   8
ENDBRANCH   5   6
ENDBRANCH   1   5
BRANCH   2  17
HETATM   17  C   UNL     1      22.607  47.339  49.097  1.00  0.00     0.120 A 
HETATM   18  N   UNL     1      23.271  48.327  49.766  1.00  0.00    -0.272 N 
HETATM   19  H   UNL     1      24.166  48.244  50.237  1.00  0.00     0.189 HD
HETATM   20  N   UNL     1      22.637  49.507  49.778  1.00  0.00    -0.174 NA
HETATM   21  C   UNL     1      21.500  49.295  49.095  1.00  0.00     0.089 A 
HETATM   22  C   UNL     1      21.450  47.944  48.644  1.00  0.00     0.071 A 
BRANCH  21  23
HETATM   23  C   UNL     1      20.508  50.361  48.903  1.00  0.00    -0.006 A 
HETATM   24  C   UNL     1      19.936  51.009  50.011  1.00  0.00     0.014 A 
HETATM   25  C   UNL     1      18.984  52.018  49.845  1.00  0.00     0.001 A 
HETATM   26  C   UNL     1      18.589  52.398  48.566  1.00  0.00     0.000 A 
HETATM   27  C   UNL     1      19.144  51.769  47.453  1.00  0.00     0.001 A 
HETATM   28  C   UNL     1      20.098  50.758  47.621  1.00  0.00     0.014 A 
ENDBRANCH  21  23
ENDBRANCH   2  17
TORSDOF 7
ENDMDL
MODEL 9
REMARK VINA RESULT:      -8.2      2.746     10.954
REMARK  7 active torsions:
REMARK  status: ('A' for Active; 'I' for Inactive)
REMARK    1  A    between atoms: C_3  and  O_4 
REMARK    2  A    between atoms: O_4  and  C_5 
REMARK    3  A    between atoms: C_5  and  C_6 
REMARK    4  A    between atoms: C_7  and  C_8 
REMARK    5  A    between atoms: C_8  and  N_9 
REMARK       I    between atoms: N_9  and  C_10 
REMARK    6  A    between atoms: C_10  and  C_11 
REMARK    7  A    between atoms: C_15  and  C_16 
ROOT
HETATM    1  N   UNL     1      24.306  44.218  49.148  1.00  0.00    -0.345 N 
HETATM    2  C   UNL     1      24.236  43.627  50.385  1.00  0.00     0.270 C 
HETATM    3  O   UNL     1      23.179  43.287  50.905  1.00  0.00    -0.266 OA
HETATM    4  H   UNL     1      25.205  44.370  48.722  1.00  0.00     0.163 HD
ENDROOT
BRANCH   1   5
HETATM    5  C   UNL     1      23.137  44.413  48.328  1.00  0.00     0.217 C 
BRANCH   5   6
HETATM    6  C   UNL     1      22.740  45.823  48.354  1.00  0.00    -0.085 C 
HETATM    7  C   UNL     1      22.431  46.984  48.395  1.00  0.00    -0.078 C 
BRANCH   7   8
HETATM    8  C   UNL     1      22.078  48.410  48.465  1.00  0.00     0.269 C 
BRANCH   8   9
HETATM    9  O   UNL     1      20.913  48.554  49.272  1.00  0.00    -0.339 OA
BRANCH   9  10
HETATM   10  C   UNL     1      20.255  49.756  49.229  1.00  0.00     0.075 A 
HETATM   11  C   UNL     1      19.123  49.861  50.059  1.00  0.00    -0.029 A 
HETATM   12  C   UNL     1      18.665  48.706  50.906  1.00  0.00     0.051 C 
HETATM   13  C   UNL     1      18.373  51.048  50.056  1.00  0.00     0.009 A 
HETATM   14  C   UNL     1      18.752  52.125  49.258  1.00  0.00     0.001 A 
HETATM   15  C   UNL     1      19.877  52.022  48.446  1.00  0.00     0.003 A 
HETATM   16  C   UNL     1      20.624  50.841  48.428  1.00  0.00     0.037 A 
ENDBRANCH   9  10
ENDBRANCH   8   9
ENDBRANCH   7   8
ENDBRANCH   5   6
ENDBRANCH   1   5
BRANCH   2  17
HETATM   17  C   UNL     1      25.499  43.438  51.047  1.00  0.00     0.120 A 
HETATM   18  N   UNL     1      26.394  42.501  50.615  1.00  0.00    -0.272 N 
HETATM   19  H   UNL     1      26.282  41.876  49.823  1.00  0.00     0.189 HD
HETATM   20  N   UNL     1      27.516  42.433  51.343  1.00  0.00    -0.174 NA
HETATM   21  C   UNL     1      27.360  43.359  52.304  1.00  0.00     0.089 A 
HETATM   22  C   UNL     1      26.106  44.017  52.144  1.00  0.00     0.071 A 
BRANCH  21  23
HETATM   23  C   UNL     1      28.385  43.580  53.333  1.00  0.00    -0.006 A 
HETATM   24  C   UNL     1      29.534  42.772  53.376  1.00  0.00     0.014 A 
HETATM   25  C   UNL     1      30.514  42.964  54.355  1.00  0.00     0.001 A 
HETATM   26  C   UNL     1      30.359  43.967  55.307  1.00  0.00     0.000 A 
HETATM   27  C   UNL     1      29.227  44.779  55.281  1.00  0.00     0.001 A 
HETATM   28  C   UNL     1      28.247  44.587  54.301  1.00  0.00     0.014 A 
ENDBRANCH  21  23
ENDBRANCH   2  17
TORSDOF 7
ENDMDL
MODEL 10
REMARK VINA RESULT:      -8.1      3.157     10.936
REMARK  7 active torsions:
REMARK  status: ('A' for Active; 'I' for Inactive)
REMARK    1  A    between atoms: C_3  and  O_4 
REMARK    2  A    between atoms: O_4  and  C_5 
REMARK    3  A    between atoms: C_5  and  C_6 
REMARK    4  A    between atoms: C_7  and  C_8 
REMARK    5  A    between atoms: C_8  and  N_9 
REMARK       I    between atoms: N_9  and  C_10 
REMARK    6  A    between atoms: C_10  and  C_11 
REMARK    7  A    between atoms: C_15  and  C_16 
ROOT
HETATM    1  N   UNL     1      25.284  43.441  51.921  1.00  0.00    -0.345 N 
HETATM    2  C   UNL     1      26.558  42.945  52.045  1.00  0.00     0.270 C 
HETATM    3  O   UNL     1      26.988  42.027  51.355  1.00  0.00    -0.266 OA
HETATM    4  H   UNL     1      25.023  44.269  52.431  1.00  0.00     0.163 HD
ENDROOT
BRANCH   1   5
HETATM    5  C   UNL     1      24.375  42.967  50.908  1.00  0.00     0.217 C 
BRANCH   5   6
HETATM    6  C   UNL     1      23.964  44.079  50.048  1.00  0.00    -0.085 C 
HETATM    7  C   UNL     1      23.602  44.983  49.342  1.00  0.00    -0.078 C 
BRANCH   7   8
HETATM    8  C   UNL     1      23.129  46.077  48.483  1.00  0.00     0.269 C 
BRANCH   8   9
HETATM    9  O   UNL     1      22.546  47.085  49.303  1.00  0.00    -0.339 OA
BRANCH   9  10
HETATM   10  C   UNL     1      22.823  48.393  48.998  1.00  0.00     0.075 A 
HETATM   11  C   UNL     1      21.719  49.265  48.990  1.00  0.00    -0.029 A 
HETATM   12  C   UNL     1      20.328  48.767  49.270  1.00  0.00     0.051 C 
HETATM   13  C   UNL     1      21.909  50.616  48.661  1.00  0.00     0.009 A 
HETATM   14  C   UNL     1      23.180  51.103  48.365  1.00  0.00     0.001 A 
HETATM   15  C   UNL     1      24.273  50.240  48.383  1.00  0.00     0.003 A 
HETATM   16  C   UNL     1      24.095  48.890  48.694  1.00  0.00     0.037 A 
ENDBRANCH   9  10
ENDBRANCH   8   9
ENDBRANCH   7   8
ENDBRANCH   5   6
ENDBRANCH   1   5
BRANCH   2  17
HETATM   17  C   UNL     1      27.364  43.573  53.057  1.00  0.00     0.120 A 
HETATM   18  N   UNL     1      27.355  44.927  53.234  1.00  0.00    -0.272 N 
HETATM   19  H   UNL     1      26.806  45.603  52.711  1.00  0.00     0.189 HD
HETATM   20  N   UNL     1      28.171  45.363  54.203  1.00  0.00    -0.174 NA
HETATM   21  C   UNL     1      28.753  44.253  54.687  1.00  0.00     0.089 A 
HETATM   22  C   UNL     1      28.264  43.107  53.996  1.00  0.00     0.071 A 
BRANCH  21  23
HETATM   23  C   UNL     1      29.747  44.316  55.768  1.00  0.00    -0.006 A 
HETATM   24  C   UNL     1      29.725  45.373  56.693  1.00  0.00     0.014 A 
HETATM   25  C   UNL     1      30.670  45.452  57.721  1.00  0.00     0.001 A 
HETATM   26  C   UNL     1      31.652  44.474  57.839  1.00  0.00     0.000 A 
HETATM   27  C   UNL     1      31.691  43.417  56.931  1.00  0.00     0.001 A 
HETATM   28  C   UNL     1      30.745  43.339  55.903  1.00  0.00     0.014 A 
ENDBRANCH  21  23
ENDBRANCH   2  17
TORSDOF 7
ENDMDL
