MODEL 1
REMARK VINA RESULT:     -11.1      0.000      0.000
REMARK  7 active torsions:
REMARK  status: ('A' for Active; 'I' for Inactive)
REMARK    1  A    between atoms: C_4  and  C_5 
REMARK    2  A    between atoms: C_5  and  C_6 
REMARK       I    between atoms: C_6  and  N_7 
REMARK    3  A    between atoms: N_7  and  C_8 
REMARK    4  A    between atoms: C_11  and  C_12 
REMARK       I    between atoms: C_12  and  N_13 
REMARK    5  A    between atoms: N_13  and  C_14 
REMARK    6  A    between atoms: C_15  and  C_16 
REMARK       I    between atoms: C_16  and  N_17 
REMARK    7  A    between atoms: N_20  and  C_21 
ROOT
HETATM    1  C   UNL     1      24.421  45.584  49.671  1.00  0.00     0.256 C 
HETATM    2  N   UNL     1      23.143  46.150  49.633  1.00  0.00    -0.322 N 
HETATM    3  O   UNL     1      24.879  44.855  48.792  1.00  0.00    -0.267 OA
HETATM    4  H   UNL     1      22.697  46.184  50.540  1.00  0.00     0.169 HD
ENDROOT
BRANCH   2   5
HETATM    5  C   UNL     1      22.298  45.827  48.540  1.00  0.00     0.050 C 
HETATM    6  C   UNL     1      21.911  46.742  47.536  1.00  0.00     0.059 C 
HETATM    7  C   UNL     1      21.428  46.213  46.328  1.00  0.00     0.019 C 
HETATM    8  C   UNL     1      21.147  44.850  46.189  1.00  0.00     0.001 C 
HETATM    9  C   UNL     1      21.370  43.986  47.254  1.00  0.00     0.002 C 
HETATM   10  C   UNL     1      21.955  44.469  48.422  1.00  0.00     0.030 C 
BRANCH   6  11
HETATM   11  C   UNL     1      21.975  48.237  47.736  1.00  0.00     0.256 C 
HETATM   12  N   UNL     1      20.806  48.994  47.965  1.00  0.00    -0.345 N 
HETATM   13  C   UNL     1      19.437  48.474  48.125  1.00  0.00     0.146 C 
HETATM   14  C   UNL     1      20.898  50.434  47.664  1.00  0.00     0.146 C 
HETATM   15  C   UNL     1      18.492  49.398  48.921  1.00  0.00     0.143 C 
HETATM   16  N   UNL     1      18.564  50.768  48.377  1.00  0.00    -0.378 N 
HETATM   17  C   UNL     1      19.929  51.316  48.470  1.00  0.00     0.143 C 
HETATM   18  O   UNL     1      23.065  48.809  47.743  1.00  0.00    -0.267 OA
BRANCH  16  19
HETATM   19  C   UNL     1      17.475  51.590  48.673  1.00  0.00     0.030 A 
HETATM   20  C   UNL     1      17.386  52.376  49.829  1.00  0.00     0.029 A 
HETATM   21  C   UNL     1      16.293  53.222  50.054  1.00  0.00     0.002 A 
HETATM   22  C   UNL     1      15.265  53.304  49.120  1.00  0.00     0.000 A 
HETATM   23  C   UNL     1      15.331  52.539  47.962  1.00  0.00     0.002 A 
HETATM   24  C   UNL     1      16.422  51.692  47.746  1.00  0.00     0.029 A 
ENDBRANCH  16  19
ENDBRANCH   6  11
ENDBRANCH   2   5
BRANCH   1  25
HETATM   25  C   UNL     1      25.203  45.753  50.935  1.00  0.00     0.032 A 
HETATM   26  C   UNL     1      25.275  46.955  51.647  1.00  0.00     0.019 A 
HETATM   27  C   UNL     1      25.933  47.007  52.887  1.00  0.00     0.030 A 
HETATM   28  C   UNL     1      26.545  45.870  53.418  1.00  0.00     0.034 A 
HETATM   29  C   UNL     1      26.528  44.687  52.673  1.00  0.00     0.030 A 
HETATM   30  C   UNL     1      25.860  44.627  51.449  1.00  0.00     0.019 A 
BRANCH  28  31
HETATM   31  N   UNL     1      27.167  45.817  54.681  1.00  0.00    -0.327 N 
HETATM   32  C   UNL     1      28.142  46.663  55.183  1.00  0.00     0.226 C 
HETATM   33  O   UNL     1      28.694  47.579  54.580  1.00  0.00    -0.273 OA
HETATM   34  H   UNL     1      26.834  45.092  55.305  1.00  0.00     0.169 HD
BRANCH  32  35
HETATM   35  C   UNL     1      28.471  46.374  56.641  1.00  0.00     0.141 C 
BRANCH  35  36
HETATM   36  C   UNL     1      29.631  45.426  56.803  1.00  0.00    -0.050 A 
HETATM   37  C   UNL     1      29.970  44.549  55.763  1.00  0.00     0.007 A 
HETATM   38  C   UNL     1      31.039  43.665  55.904  1.00  0.00     0.001 A 
HETATM   39  C   UNL     1      31.776  43.642  57.086  1.00  0.00     0.000 A 
HETATM   40  C   UNL     1      31.443  44.505  58.129  1.00  0.00     0.001 A 
HETATM   41  C   UNL     1      30.376  45.394  57.990  1.00  0.00     0.007 A 
ENDBRANCH  35  36
ENDBRANCH  32  35
ENDBRANCH  28  31
ENDBRANCH   1  25
TORSDOF 7
ENDMDL
MODEL 2
REMARK VINA RESULT:     -10.8      1.741      2.239
REMARK  7 active torsions:
REMARK  status: ('A' for Active; 'I' for Inactive)
REMARK    1  A    between atoms: C_4  and  C_5 
REMARK    2  A    between atoms: C_5  and  C_6 
REMARK       I    between atoms: C_6  and  N_7 
REMARK    3  A    between atoms: N_7  and  C_8 
REMARK    4  A    between atoms: C_11  and  C_12 
REMARK       I    between atoms: C_12  and  N_13 
REMARK    5  A    between atoms: N_13  and  C_14 
REMARK    6  A    between atoms: C_15  and  C_16 
REMARK       I    between atoms: C_16  and  N_17 
REMARK    7  A    between atoms: N_20  and  C_21 
ROOT
HETATM    1  C   UNL     1      23.857  43.860  50.091  1.00  0.00     0.256 C 
HETATM    2  N   UNL     1      23.994  44.129  48.725  1.00  0.00    -0.322 N 
HETATM    3  O   UNL     1      22.786  43.609  50.640  1.00  0.00    -0.267 OA
HETATM    4  H   UNL     1      24.683  44.842  48.528  1.00  0.00     0.169 HD
ENDROOT
BRANCH   2   5
HETATM    5  C   UNL     1      22.822  44.164  47.927  1.00  0.00     0.050 C 
HETATM    6  C   UNL     1      22.148  45.347  47.552  1.00  0.00     0.059 C 
HETATM    7  C   UNL     1      21.272  45.275  46.457  1.00  0.00     0.019 C 
HETATM    8  C   UNL     1      20.918  44.049  45.886  1.00  0.00     0.001 C 
HETATM    9  C   UNL     1      21.458  42.872  46.386  1.00  0.00     0.002 C 
HETATM   10  C   UNL     1      22.416  42.927  47.395  1.00  0.00     0.030 C 
BRANCH   6  11
HETATM   11  C   UNL     1      22.323  46.648  48.298  1.00  0.00     0.256 C 
HETATM   12  N   UNL     1      21.253  47.555  48.445  1.00  0.00    -0.345 N 
HETATM   13  C   UNL     1      19.861  47.354  48.005  1.00  0.00     0.146 C 
HETATM   14  C   UNL     1      21.623  48.952  48.737  1.00  0.00     0.146 C 
HETATM   15  C   UNL     1      18.820  48.189  48.779  1.00  0.00     0.143 C 
HETATM   16  N   UNL     1      19.248  49.600  48.824  1.00  0.00    -0.378 N 
HETATM   17  C   UNL     1      20.550  49.750  49.497  1.00  0.00     0.143 C 
HETATM   18  O   UNL     1      23.404  46.912  48.827  1.00  0.00    -0.267 OA
BRANCH  16  19
HETATM   19  C   UNL     1      18.236  50.527  49.077  1.00  0.00     0.030 A 
HETATM   20  C   UNL     1      18.455  51.771  49.685  1.00  0.00     0.029 A 
HETATM   21  C   UNL     1      17.412  52.686  49.871  1.00  0.00     0.002 A 
HETATM   22  C   UNL     1      16.124  52.378  49.445  1.00  0.00     0.000 A 
HETATM   23  C   UNL     1      15.879  51.154  48.835  1.00  0.00     0.002 A 
HETATM   24  C   UNL     1      16.924  50.242  48.657  1.00  0.00     0.029 A 
ENDBRANCH  16  19
ENDBRANCH   6  11
ENDBRANCH   2   5
BRANCH   1  25
HETATM   25  C   UNL     1      25.069  44.053  50.947  1.00  0.00     0.032 A 
HETATM   26  C   UNL     1      25.020  44.499  52.271  1.00  0.00     0.019 A 
HETATM   27  C   UNL     1      26.189  44.544  53.049  1.00  0.00     0.030 A 
HETATM   28  C   UNL     1      27.420  44.169  52.508  1.00  0.00     0.034 A 
HETATM   29  C   UNL     1      27.477  43.788  51.164  1.00  0.00     0.030 A 
HETATM   30  C   UNL     1      26.314  43.725  50.394  1.00  0.00     0.019 A 
BRANCH  28  31
HETATM   31  N   UNL     1      28.627  44.121  53.233  1.00  0.00    -0.327 N 
HETATM   32  C   UNL     1      29.142  43.056  53.954  1.00  0.00     0.226 C 
HETATM   33  O   UNL     1      28.596  41.974  54.148  1.00  0.00    -0.273 OA
HETATM   34  H   UNL     1      29.198  44.956  53.192  1.00  0.00     0.169 HD
BRANCH  32  35
HETATM   35  C   UNL     1      30.540  43.336  54.490  1.00  0.00     0.141 C 
BRANCH  35  36
HETATM   36  C   UNL     1      30.528  44.107  55.783  1.00  0.00    -0.050 A 
HETATM   37  C   UNL     1      31.356  43.711  56.843  1.00  0.00     0.007 A 
HETATM   38  C   UNL     1      31.350  44.416  58.046  1.00  0.00     0.001 A 
HETATM   39  C   UNL     1      30.512  45.518  58.207  1.00  0.00     0.000 A 
HETATM   40  C   UNL     1      29.679  45.915  57.162  1.00  0.00     0.001 A 
HETATM   41  C   UNL     1      29.685  45.214  55.955  1.00  0.00     0.007 A 
ENDBRANCH  35  36
ENDBRANCH  32  35
ENDBRANCH  28  31
ENDBRANCH   1  25
TORSDOF 7
ENDMDL
MODEL 3
REMARK VINA RESULT:     -10.8      2.108     11.997
REMARK  7 active torsions:
REMARK  status: ('A' for Active; 'I' for Inactive)
REMARK    1  A    between atoms: C_4  and  C_5 
REMARK    2  A    between atoms: C_5  and  C_6 
REMARK       I    between atoms: C_6  and  N_7 
REMARK    3  A    between atoms: N_7  and  C_8 
REMARK    4  A    between atoms: C_11  and  C_12 
REMARK       I    between atoms: C_12  and  N_13 
REMARK    5  A    between atoms: N_13  and  C_14 
REMARK    6  A    between atoms: C_15  and  C_16 
REMARK       I    between atoms: C_16  and  N_17 
REMARK    7  A    between atoms: N_20  and  C_21 
ROOT
HETATM    1  C   UNL     1      24.936  45.502  49.176  1.00  0.00     0.256 C 
HETATM    2  N   UNL     1      24.299  44.258  49.245  1.00  0.00    -0.322 N 
HETATM    3  O   UNL     1      26.150  45.662  49.291  1.00  0.00    -0.267 OA
HETATM    4  H   UNL     1      23.405  44.296  49.715  1.00  0.00     0.169 HD
ENDROOT
BRANCH   2   5
HETATM    5  C   UNL     1      25.091  43.112  49.511  1.00  0.00     0.050 C 
HETATM    6  C   UNL     1      25.437  42.667  50.807  1.00  0.00     0.059 C 
HETATM    7  C   UNL     1      25.862  41.335  50.942  1.00  0.00     0.019 C 
HETATM    8  C   UNL     1      26.129  40.538  49.825  1.00  0.00     0.001 C 
HETATM    9  C   UNL     1      25.952  41.054  48.548  1.00  0.00     0.002 C 
HETATM   10  C   UNL     1      25.423  42.333  48.389  1.00  0.00     0.030 C 
BRANCH   6  11
HETATM   11  C   UNL     1      25.389  43.574  52.013  1.00  0.00     0.256 C 
HETATM   12  N   UNL     1      26.487  43.677  52.892  1.00  0.00    -0.345 N 
HETATM   13  C   UNL     1      27.803  43.033  52.738  1.00  0.00     0.146 C 
HETATM   14  C   UNL     1      26.187  44.174  54.247  1.00  0.00     0.146 C 
HETATM   15  C   UNL     1      28.955  43.750  53.473  1.00  0.00     0.143 C 
HETATM   16  N   UNL     1      28.565  44.013  54.871  1.00  0.00    -0.378 N 
HETATM   17  C   UNL     1      27.367  44.869  54.948  1.00  0.00     0.143 C 
HETATM   18  O   UNL     1      24.395  44.269  52.218  1.00  0.00    -0.267 OA
BRANCH  16  19
HETATM   19  C   UNL     1      29.620  44.231  55.759  1.00  0.00     0.030 A 
HETATM   20  C   UNL     1      29.678  45.315  56.645  1.00  0.00     0.029 A 
HETATM   21  C   UNL     1      30.736  45.462  57.551  1.00  0.00     0.002 A 
HETATM   22  C   UNL     1      31.758  44.519  57.593  1.00  0.00     0.000 A 
HETATM   23  C   UNL     1      31.723  43.431  56.729  1.00  0.00     0.002 A 
HETATM   24  C   UNL     1      30.666  43.295  55.823  1.00  0.00     0.029 A 
ENDBRANCH  16  19
ENDBRANCH   6  11
ENDBRANCH   2   5
BRANCH   1  25
HETATM   25  C   UNL     1      24.059  46.713  49.122  1.00  0.00     0.032 A 
HETATM   26  C   UNL     1      24.460  47.980  49.558  1.00  0.00     0.019 A 
HETATM   27  C   UNL     1      23.624  49.092  49.368  1.00  0.00     0.030 A 
HETATM   28  C   UNL     1      22.372  48.950  48.766  1.00  0.00     0.034 A 
HETATM   29  C   UNL     1      21.947  47.672  48.392  1.00  0.00     0.030 A 
HETATM   30  C   UNL     1      22.783  46.566  48.563  1.00  0.00     0.019 A 
BRANCH  28  31
HETATM   31  N   UNL     1      21.501  50.019  48.478  1.00  0.00    -0.327 N 
HETATM   32  C   UNL     1      20.504  50.542  49.286  1.00  0.00     0.226 C 
HETATM   33  O   UNL     1      20.155  50.116  50.382  1.00  0.00    -0.273 OA
HETATM   34  H   UNL     1      21.645  50.476  47.587  1.00  0.00     0.169 HD
BRANCH  32  35
HETATM   35  C   UNL     1      19.862  51.787  48.687  1.00  0.00     0.141 C 
BRANCH  35  36
HETATM   36  C   UNL     1      18.363  51.799  48.833  1.00  0.00    -0.050 A 
HETATM   37  C   UNL     1      17.569  51.022  47.976  1.00  0.00     0.007 A 
HETATM   38  C   UNL     1      16.180  51.029  48.100  1.00  0.00     0.001 A 
HETATM   39  C   UNL     1      15.569  51.815  49.074  1.00  0.00     0.000 A 
HETATM   40  C   UNL     1      16.348  52.598  49.926  1.00  0.00     0.001 A 
HETATM   41  C   UNL     1      17.739  52.590  49.807  1.00  0.00     0.007 A 
ENDBRANCH  35  36
ENDBRANCH  32  35
ENDBRANCH  28  31
ENDBRANCH   1  25
TORSDOF 7
ENDMDL
MODEL 4
REMARK VINA RESULT:     -10.5      3.011      5.990
REMARK  7 active torsions:
REMARK  status: ('A' for Active; 'I' for Inactive)
REMARK    1  A    between atoms: C_4  and  C_5 
REMARK    2  A    between atoms: C_5  and  C_6 
REMARK       I    between atoms: C_6  and  N_7 
REMARK    3  A    between atoms: N_7  and  C_8 
REMARK    4  A    between atoms: C_11  and  C_12 
REMARK       I    between atoms: C_12  and  N_13 
REMARK    5  A    between atoms: N_13  and  C_14 
REMARK    6  A    between atoms: C_15  and  C_16 
REMARK       I    between atoms: C_16  and  N_17 
REMARK    7  A    between atoms: N_20  and  C_21 
ROOT
HETATM    1  C   UNL     1      22.161  48.517  48.558  1.00  0.00     0.256 C 
HETATM    2  N   UNL     1      21.426  49.251  49.495  1.00  0.00    -0.322 N 
HETATM    3  O   UNL     1      21.963  48.554  47.345  1.00  0.00    -0.267 OA
HETATM    4  H   UNL     1      21.256  48.744  50.352  1.00  0.00     0.169 HD
ENDROOT
BRANCH   2   5
HETATM    5  C   UNL     1      20.353  50.053  49.027  1.00  0.00     0.050 C 
HETATM    6  C   UNL     1      18.996  49.664  49.059  1.00  0.00     0.059 C 
HETATM    7  C   UNL     1      18.028  50.677  48.953  1.00  0.00     0.019 C 
HETATM    8  C   UNL     1      18.381  51.990  48.626  1.00  0.00     0.001 C 
HETATM    9  C   UNL     1      19.714  52.318  48.424  1.00  0.00     0.002 C 
HETATM   10  C   UNL     1      20.700  51.358  48.635  1.00  0.00     0.030 C 
BRANCH   6  11
HETATM   11  C   UNL     1      18.572  48.219  49.171  1.00  0.00     0.256 C 
HETATM   12  N   UNL     1      18.210  47.474  48.030  1.00  0.00    -0.345 N 
HETATM   13  C   UNL     1      18.271  47.923  46.628  1.00  0.00     0.146 C 
HETATM   14  C   UNL     1      17.371  46.286  48.271  1.00  0.00     0.146 C 
HETATM   15  C   UNL     1      18.390  46.782  45.596  1.00  0.00     0.143 C 
HETATM   16  N   UNL     1      17.361  45.760  45.865  1.00  0.00    -0.378 N 
HETATM   17  C   UNL     1      17.511  45.180  47.211  1.00  0.00     0.143 C 
HETATM   18  O   UNL     1      18.578  47.662  50.269  1.00  0.00    -0.267 OA
BRANCH  16  19
HETATM   19  C   UNL     1      17.049  44.925  44.791  1.00  0.00     0.030 A 
HETATM   20  C   UNL     1      17.701  43.711  44.535  1.00  0.00     0.029 A 
HETATM   21  C   UNL     1      17.315  42.885  43.472  1.00  0.00     0.002 A 
HETATM   22  C   UNL     1      16.261  43.255  42.643  1.00  0.00     0.000 A 
HETATM   23  C   UNL     1      15.594  44.452  42.876  1.00  0.00     0.002 A 
HETATM   24  C   UNL     1      15.987  45.274  43.937  1.00  0.00     0.029 A 
ENDBRANCH  16  19
ENDBRANCH   6  11
ENDBRANCH   2   5
BRANCH   1  25
HETATM   25  C   UNL     1      23.131  47.511  49.092  1.00  0.00     0.032 A 
HETATM   26  C   UNL     1      24.149  47.822  49.999  1.00  0.00     0.019 A 
HETATM   27  C   UNL     1      24.947  46.803  50.545  1.00  0.00     0.030 A 
HETATM   28  C   UNL     1      24.756  45.471  50.176  1.00  0.00     0.034 A 
HETATM   29  C   UNL     1      23.782  45.171  49.218  1.00  0.00     0.030 A 
HETATM   30  C   UNL     1      22.974  46.179  48.687  1.00  0.00     0.019 A 
BRANCH  28  31
HETATM   31  N   UNL     1      25.465  44.383  50.722  1.00  0.00    -0.327 N 
HETATM   32  C   UNL     1      26.821  44.116  50.619  1.00  0.00     0.226 C 
HETATM   33  O   UNL     1      27.642  44.753  49.967  1.00  0.00    -0.273 OA
HETATM   34  H   UNL     1      24.921  43.740  51.282  1.00  0.00     0.169 HD
BRANCH  32  35
HETATM   35  C   UNL     1      27.245  42.919  51.460  1.00  0.00     0.141 C 
BRANCH  35  36
HETATM   36  C   UNL     1      28.152  43.298  52.601  1.00  0.00    -0.050 A 
HETATM   37  C   UNL     1      29.373  42.633  52.777  1.00  0.00     0.007 A 
HETATM   38  C   UNL     1      30.219  42.973  53.833  1.00  0.00     0.001 A 
HETATM   39  C   UNL     1      29.851  43.976  54.727  1.00  0.00     0.000 A 
HETATM   40  C   UNL     1      28.635  44.639  54.567  1.00  0.00     0.001 A 
HETATM   41  C   UNL     1      27.788  44.303  53.509  1.00  0.00     0.007 A 
ENDBRANCH  35  36
ENDBRANCH  32  35
ENDBRANCH  28  31
ENDBRANCH   1  25
TORSDOF 7
ENDMDL
MODEL 5
REMARK VINA RESULT:     -10.3      2.340      3.501
REMARK  7 active torsions:
REMARK  status: ('A' for Active; 'I' for Inactive)
REMARK    1  A    between atoms: C_4  and  C_5 
REMARK    2  A    between atoms: C_5  and  C_6 
REMARK       I    between atoms: C_6  and  N_7 
REMARK    3  A    between atoms: N_7  and  C_8 
REMARK    4  A    between atoms: C_11  and  C_12 
REMARK       I    between atoms: C_12  and  N_13 
REMARK    5  A    between atoms: N_13  and  C_14 
REMARK    6  A    between atoms: C_15  and  C_16 
REMARK       I    between atoms: C_16  and  N_17 
REMARK    7  A    between atoms: N_20  and  C_21 
ROOT
HETATM    1  C   UNL     1      22.726  43.244  47.870  1.00  0.00     0.256 C 
HETATM    2  N   UNL     1      22.696  44.141  46.797  1.00  0.00    -0.322 N 
HETATM    3  O   UNL     1      22.126  42.170  47.889  1.00  0.00    -0.267 OA
HETATM    4  H   UNL     1      22.684  45.108  47.090  1.00  0.00     0.169 HD
ENDROOT
BRANCH   2   5
HETATM    5  C   UNL     1      21.885  43.822  45.679  1.00  0.00     0.050 C 
HETATM    6  C   UNL     1      20.535  44.213  45.536  1.00  0.00     0.059 C 
HETATM    7  C   UNL     1      19.986  44.191  44.244  1.00  0.00     0.019 C 
HETATM    8  C   UNL     1      20.673  43.614  43.170  1.00  0.00     0.001 C 
HETATM    9  C   UNL     1      21.935  43.071  43.368  1.00  0.00     0.002 C 
HETATM   10  C   UNL     1      22.546  43.184  44.614  1.00  0.00     0.030 C 
BRANCH   6  11
HETATM   11  C   UNL     1      19.682  44.618  46.715  1.00  0.00     0.256 C 
HETATM   12  N   UNL     1      19.548  45.972  47.087  1.00  0.00    -0.345 N 
HETATM   13  C   UNL     1      20.105  47.140  46.382  1.00  0.00     0.146 C 
HETATM   14  C   UNL     1      19.126  46.222  48.477  1.00  0.00     0.146 C 
HETATM   15  C   UNL     1      19.350  48.461  46.638  1.00  0.00     0.143 C 
HETATM   16  N   UNL     1      19.168  48.655  48.090  1.00  0.00    -0.378 N 
HETATM   17  C   UNL     1      18.390  47.556  48.690  1.00  0.00     0.143 C 
HETATM   18  O   UNL     1      19.057  43.763  47.342  1.00  0.00    -0.267 OA
BRANCH  16  19
HETATM   19  C   UNL     1      18.922  49.968  48.494  1.00  0.00     0.030 A 
HETATM   20  C   UNL     1      19.632  51.076  48.012  1.00  0.00     0.029 A 
HETATM   21  C   UNL     1      19.312  52.379  48.414  1.00  0.00     0.002 A 
HETATM   22  C   UNL     1      18.268  52.601  49.305  1.00  0.00     0.000 A 
HETATM   23  C   UNL     1      17.544  51.521  49.796  1.00  0.00     0.002 A 
HETATM   24  C   UNL     1      17.873  50.222  49.395  1.00  0.00     0.029 A 
ENDBRANCH  16  19
ENDBRANCH   6  11
ENDBRANCH   2   5
BRANCH   1  25
HETATM   25  C   UNL     1      23.402  43.704  49.123  1.00  0.00     0.032 A 
HETATM   26  C   UNL     1      23.899  42.836  50.100  1.00  0.00     0.019 A 
HETATM   27  C   UNL     1      24.624  43.339  51.193  1.00  0.00     0.030 A 
HETATM   28  C   UNL     1      24.840  44.710  51.336  1.00  0.00     0.034 A 
HETATM   29  C   UNL     1      24.285  45.581  50.393  1.00  0.00     0.030 A 
HETATM   30  C   UNL     1      23.579  45.084  49.296  1.00  0.00     0.019 A 
BRANCH  28  31
HETATM   31  N   UNL     1      25.609  45.293  52.363  1.00  0.00    -0.327 N 
HETATM   32  C   UNL     1      25.574  45.004  53.717  1.00  0.00     0.226 C 
HETATM   33  O   UNL     1      24.807  44.228  54.278  1.00  0.00    -0.273 OA
HETATM   34  H   UNL     1      26.291  45.979  52.066  1.00  0.00     0.169 HD
BRANCH  32  35
HETATM   35  C   UNL     1      26.653  45.742  54.499  1.00  0.00     0.141 C 
BRANCH  35  36
HETATM   36  C   UNL     1      27.910  44.929  54.672  1.00  0.00    -0.050 A 
HETATM   37  C   UNL     1      28.074  43.733  53.959  1.00  0.00     0.007 A 
HETATM   38  C   UNL     1      29.232  42.971  54.114  1.00  0.00     0.001 A 
HETATM   39  C   UNL     1      30.233  43.391  54.987  1.00  0.00     0.000 A 
HETATM   40  C   UNL     1      30.077  44.575  55.707  1.00  0.00     0.001 A 
HETATM   41  C   UNL     1      28.921  45.342  55.551  1.00  0.00     0.007 A 
ENDBRANCH  35  36
ENDBRANCH  32  35
ENDBRANCH  28  31
ENDBRANCH   1  25
TORSDOF 7
ENDMDL
MODEL 6
REMARK VINA RESULT:     -10.2      2.465     12.135
REMARK  7 active torsions:
REMARK  status: ('A' for Active; 'I' for Inactive)
REMARK    1  A    between atoms: C_4  and  C_5 
REMARK    2  A    between atoms: C_5  and  C_6 
REMARK       I    between atoms: C_6  and  N_7 
REMARK    3  A    between atoms: N_7  and  C_8 
REMARK    4  A    between atoms: C_11  and  C_12 
REMARK       I    between atoms: C_12  and  N_13 
REMARK    5  A    between atoms: N_13  and  C_14 
REMARK    6  A    between atoms: C_15  and  C_16 
REMARK       I    between atoms: C_16  and  N_17 
REMARK    7  A    between atoms: N_20  and  C_21 
ROOT
HETATM    1  C   UNL     1      23.188  43.352  48.590  1.00  0.00     0.256 C 
HETATM    2  N   UNL     1      24.578  43.497  48.612  1.00  0.00    -0.322 N 
HETATM    3  O   UNL     1      22.594  42.335  48.945  1.00  0.00    -0.267 OA
HETATM    4  H   UNL     1      24.936  44.022  47.826  1.00  0.00     0.169 HD
ENDROOT
BRANCH   2   5
HETATM    5  C   UNL     1      25.362  42.388  49.022  1.00  0.00     0.050 C 
HETATM    6  C   UNL     1      25.631  42.057  50.369  1.00  0.00     0.059 C 
HETATM    7  C   UNL     1      26.057  40.747  50.643  1.00  0.00     0.019 C 
HETATM    8  C   UNL     1      26.398  39.862  49.616  1.00  0.00     0.001 C 
HETATM    9  C   UNL     1      26.295  40.266  48.291  1.00  0.00     0.002 C 
HETATM   10  C   UNL     1      25.767  41.520  47.993  1.00  0.00     0.030 C 
BRANCH   6  11
HETATM   11  C   UNL     1      25.503  43.063  51.489  1.00  0.00     0.256 C 
HETATM   12  N   UNL     1      26.551  43.264  52.412  1.00  0.00    -0.345 N 
HETATM   13  C   UNL     1      27.884  42.638  52.382  1.00  0.00     0.146 C 
HETATM   14  C   UNL     1      26.169  43.868  53.702  1.00  0.00     0.146 C 
HETATM   15  C   UNL     1      28.982  43.440  53.112  1.00  0.00     0.143 C 
HETATM   16  N   UNL     1      28.513  43.812  54.460  1.00  0.00    -0.378 N 
HETATM   17  C   UNL     1      27.298  44.645  54.400  1.00  0.00     0.143 C 
HETATM   18  O   UNL     1      24.487  43.752  51.581  1.00  0.00    -0.267 OA
BRANCH  16  19
HETATM   19  C   UNL     1      29.514  44.128  55.379  1.00  0.00     0.030 A 
HETATM   20  C   UNL     1      29.539  45.314  56.125  1.00  0.00     0.029 A 
HETATM   21  C   UNL     1      30.542  45.561  57.071  1.00  0.00     0.002 A 
HETATM   22  C   UNL     1      31.540  44.619  57.297  1.00  0.00     0.000 A 
HETATM   23  C   UNL     1      31.537  43.431  56.575  1.00  0.00     0.002 A 
HETATM   24  C   UNL     1      30.536  43.194  55.628  1.00  0.00     0.029 A 
ENDBRANCH  16  19
ENDBRANCH   6  11
ENDBRANCH   2   5
BRANCH   1  25
HETATM   25  C   UNL     1      22.400  44.447  47.941  1.00  0.00     0.032 A 
HETATM   26  C   UNL     1      21.505  44.239  46.888  1.00  0.00     0.019 A 
HETATM   27  C   UNL     1      20.715  45.297  46.408  1.00  0.00     0.030 A 
HETATM   28  C   UNL     1      20.827  46.576  46.956  1.00  0.00     0.034 A 
HETATM   29  C   UNL     1      21.770  46.796  47.964  1.00  0.00     0.030 A 
HETATM   30  C   UNL     1      22.544  45.742  48.456  1.00  0.00     0.019 A 
BRANCH  28  31
HETATM   31  N   UNL     1      20.029  47.675  46.582  1.00  0.00    -0.327 N 
HETATM   32  C   UNL     1      18.738  47.965  46.991  1.00  0.00     0.226 C 
HETATM   33  O   UNL     1      18.026  47.269  47.709  1.00  0.00    -0.273 OA
HETATM   34  H   UNL     1      20.468  48.347  45.966  1.00  0.00     0.169 HD
BRANCH  32  35
HETATM   35  C   UNL     1      18.254  49.316  46.481  1.00  0.00     0.141 C 
BRANCH  35  36
HETATM   36  C   UNL     1      18.234  50.373  47.554  1.00  0.00    -0.050 A 
HETATM   37  C   UNL     1      17.122  50.495  48.398  1.00  0.00     0.007 A 
HETATM   38  C   UNL     1      17.092  51.473  49.392  1.00  0.00     0.001 A 
HETATM   39  C   UNL     1      18.167  52.344  49.548  1.00  0.00     0.000 A 
HETATM   40  C   UNL     1      19.276  52.237  48.709  1.00  0.00     0.001 A 
HETATM   41  C   UNL     1      19.311  51.257  47.716  1.00  0.00     0.007 A 
ENDBRANCH  35  36
ENDBRANCH  32  35
ENDBRANCH  28  31
ENDBRANCH   1  25
TORSDOF 7
ENDMDL
MODEL 7
REMARK VINA RESULT:      -9.8      5.043     12.512
REMARK  7 active torsions:
REMARK  status: ('A' for Active; 'I' for Inactive)
REMARK    1  A    between atoms: C_4  and  C_5 
REMARK    2  A    between atoms: C_5  and  C_6 
REMARK       I    between atoms: C_6  and  N_7 
REMARK    3  A    between atoms: N_7  and  C_8 
REMARK    4  A    between atoms: C_11  and  C_12 
REMARK       I    between atoms: C_12  and  N_13 
REMARK    5  A    between atoms: N_13  and  C_14 
REMARK    6  A    between atoms: C_15  and  C_16 
REMARK       I    between atoms: C_16  and  N_17 
REMARK    7  A    between atoms: N_20  and  C_21 
ROOT
HETATM    1  C   UNL     1      25.640  44.793  51.721  1.00  0.00     0.256 C 
HETATM    2  N   UNL     1      26.938  44.383  51.399  1.00  0.00    -0.322 N 
HETATM    3  O   UNL     1      24.989  44.347  52.664  1.00  0.00    -0.267 OA
HETATM    4  H   UNL     1      27.104  44.335  50.403  1.00  0.00     0.169 HD
ENDROOT
BRANCH   2   5
HETATM    5  C   UNL     1      27.527  43.353  52.175  1.00  0.00     0.050 C 
HETATM    6  C   UNL     1      27.561  41.991  51.799  1.00  0.00     0.059 C 
HETATM    7  C   UNL     1      28.503  41.166  52.433  1.00  0.00     0.019 C 
HETATM    8  C   UNL     1      29.241  41.614  53.534  1.00  0.00     0.001 C 
HETATM    9  C   UNL     1      29.065  42.908  54.004  1.00  0.00     0.002 C 
HETATM   10  C   UNL     1      28.221  43.781  53.321  1.00  0.00     0.030 C 
BRANCH   6  11
HETATM   11  C   UNL     1      26.612  41.412  50.777  1.00  0.00     0.256 C 
HETATM   12  N   UNL     1      27.089  40.673  49.674  1.00  0.00    -0.345 N 
HETATM   13  C   UNL     1      28.487  40.293  49.407  1.00  0.00     0.146 C 
HETATM   14  C   UNL     1      26.181  40.579  48.517  1.00  0.00     0.146 C 
HETATM   15  C   UNL     1      28.650  39.046  48.512  1.00  0.00     0.143 C 
HETATM   16  N   UNL     1      27.815  39.190  47.304  1.00  0.00    -0.378 N 
HETATM   17  C   UNL     1      26.388  39.328  47.645  1.00  0.00     0.143 C 
HETATM   18  O   UNL     1      25.397  41.547  50.922  1.00  0.00    -0.267 OA
BRANCH  16  19
HETATM   19  C   UNL     1      28.185  38.393  46.220  1.00  0.00     0.030 A 
HETATM   20  C   UNL     1      28.288  38.868  44.905  1.00  0.00     0.029 A 
HETATM   21  C   UNL     1      28.712  38.037  43.861  1.00  0.00     0.002 A 
HETATM   22  C   UNL     1      29.049  36.711  44.111  1.00  0.00     0.000 A 
HETATM   23  C   UNL     1      28.961  36.215  45.406  1.00  0.00     0.002 A 
HETATM   24  C   UNL     1      28.531  37.048  46.444  1.00  0.00     0.029 A 
ENDBRANCH  16  19
ENDBRANCH   6  11
ENDBRANCH   2   5
BRANCH   1  25
HETATM   25  C   UNL     1      24.959  45.712  50.756  1.00  0.00     0.032 A 
HETATM   26  C   UNL     1      23.970  45.298  49.858  1.00  0.00     0.019 A 
HETATM   27  C   UNL     1      23.293  46.239  49.065  1.00  0.00     0.030 A 
HETATM   28  C   UNL     1      23.611  47.596  49.140  1.00  0.00     0.034 A 
HETATM   29  C   UNL     1      24.646  47.999  49.990  1.00  0.00     0.030 A 
HETATM   30  C   UNL     1      25.308  47.068  50.793  1.00  0.00     0.019 A 
BRANCH  28  31
HETATM   31  N   UNL     1      22.940  48.612  48.431  1.00  0.00    -0.327 N 
HETATM   32  C   UNL     1      22.542  49.853  48.901  1.00  0.00     0.226 C 
HETATM   33  O   UNL     1      22.644  50.265  50.052  1.00  0.00    -0.273 OA
HETATM   34  H   UNL     1      22.758  48.420  47.454  1.00  0.00     0.169 HD
BRANCH  32  35
HETATM   35  C   UNL     1      21.965  50.735  47.801  1.00  0.00     0.141 C 
BRANCH  35  36
HETATM   36  C   UNL     1      20.474  50.910  47.912  1.00  0.00    -0.050 A 
HETATM   37  C   UNL     1      19.946  52.039  48.553  1.00  0.00     0.007 A 
HETATM   38  C   UNL     1      18.566  52.209  48.665  1.00  0.00     0.001 A 
HETATM   39  C   UNL     1      17.700  51.250  48.145  1.00  0.00     0.000 A 
HETATM   40  C   UNL     1      18.214  50.119  47.512  1.00  0.00     0.001 A 
HETATM   41  C   UNL     1      19.594  49.948  47.395  1.00  0.00     0.007 A 
ENDBRANCH  35  36
ENDBRANCH  32  35
ENDBRANCH  28  31
ENDBRANCH   1  25
TORSDOF 7
ENDMDL
MODEL 8
REMARK VINA RESULT:      -9.7      4.878     12.305
REMARK  7 active torsions:
REMARK  status: ('A' for Active; 'I' for Inactive)
REMARK    1  A    between atoms: C_4  and  C_5 
REMARK    2  A    between atoms: C_5  and  C_6 
REMARK       I    between atoms: C_6  and  N_7 
REMARK    3  A    between atoms: N_7  and  C_8 
REMARK    4  A    between atoms: C_11  and  C_12 
REMARK       I    between atoms: C_12  and  N_13 
REMARK    5  A    between atoms: N_13  and  C_14 
REMARK    6  A    between atoms: C_15  and  C_16 
REMARK       I    between atoms: C_16  and  N_17 
REMARK    7  A    between atoms: N_20  and  C_21 
ROOT
HETATM    1  C   UNL     1      25.239  44.593  51.551  1.00  0.00     0.256 C 
HETATM    2  N   UNL     1      26.570  44.219  51.339  1.00  0.00    -0.322 N 
HETATM    3  O   UNL     1      24.483  44.034  52.344  1.00  0.00    -0.267 OA
HETATM    4  H   UNL     1      26.854  44.296  50.372  1.00  0.00     0.169 HD
ENDROOT
BRANCH   2   5
HETATM    5  C   UNL     1      27.070  43.094  52.043  1.00  0.00     0.050 C 
HETATM    6  C   UNL     1      27.104  41.780  51.526  1.00  0.00     0.059 C 
HETATM    7  C   UNL     1      27.973  40.863  52.140  1.00  0.00     0.019 C 
HETATM    8  C   UNL     1      28.628  41.169  53.337  1.00  0.00     0.001 C 
HETATM    9  C   UNL     1      28.443  42.412  53.929  1.00  0.00     0.002 C 
HETATM   10  C   UNL     1      27.677  43.377  53.280  1.00  0.00     0.030 C 
BRANCH   6  11
HETATM   11  C   UNL     1      26.229  41.342  50.376  1.00  0.00     0.256 C 
HETATM   12  N   UNL     1      26.788  40.948  49.142  1.00  0.00    -0.345 N 
HETATM   13  C   UNL     1      28.221  40.820  48.825  1.00  0.00     0.146 C 
HETATM   14  C   UNL     1      25.891  41.013  47.975  1.00  0.00     0.146 C 
HETATM   15  C   UNL     1      28.535  39.848  47.669  1.00  0.00     0.143 C 
HETATM   16  N   UNL     1      27.679  40.164  46.509  1.00  0.00    -0.378 N 
HETATM   17  C   UNL     1      26.249  40.037  46.840  1.00  0.00     0.143 C 
HETATM   18  O   UNL     1      25.008  41.285  50.522  1.00  0.00    -0.267 OA
BRANCH  16  19
HETATM   19  C   UNL     1      28.140  39.696  45.277  1.00  0.00     0.030 A 
HETATM   20  C   UNL     1      28.436  40.529  44.190  1.00  0.00     0.029 A 
HETATM   21  C   UNL     1      28.943  40.013  42.991  1.00  0.00     0.002 A 
HETATM   22  C   UNL     1      29.172  38.648  42.857  1.00  0.00     0.000 A 
HETATM   23  C   UNL     1      28.891  37.798  43.920  1.00  0.00     0.002 A 
HETATM   24  C   UNL     1      28.380  38.320  45.113  1.00  0.00     0.029 A 
ENDBRANCH  16  19
ENDBRANCH   6  11
ENDBRANCH   2   5
BRANCH   1  25
HETATM   25  C   UNL     1      24.670  45.631  50.635  1.00  0.00     0.032 A 
HETATM   26  C   UNL     1      23.694  45.362  49.670  1.00  0.00     0.019 A 
HETATM   27  C   UNL     1      23.125  46.409  48.927  1.00  0.00     0.030 A 
HETATM   28  C   UNL     1      23.538  47.729  49.120  1.00  0.00     0.034 A 
HETATM   29  C   UNL     1      24.561  47.986  50.038  1.00  0.00     0.030 A 
HETATM   30  C   UNL     1      25.117  46.950  50.791  1.00  0.00     0.019 A 
BRANCH  28  31
HETATM   31  N   UNL     1      22.975  48.843  48.467  1.00  0.00    -0.327 N 
HETATM   32  C   UNL     1      21.741  49.428  48.698  1.00  0.00     0.226 C 
HETATM   33  O   UNL     1      20.879  49.030  49.476  1.00  0.00    -0.273 OA
HETATM   34  H   UNL     1      23.560  49.286  47.770  1.00  0.00     0.169 HD
BRANCH  32  35
HETATM   35  C   UNL     1      21.539  50.703  47.890  1.00  0.00     0.141 C 
BRANCH  35  36
HETATM   36  C   UNL     1      20.095  51.124  47.813  1.00  0.00    -0.050 A 
HETATM   37  C   UNL     1      19.611  52.129  48.662  1.00  0.00     0.007 A 
HETATM   38  C   UNL     1      18.275  52.524  48.601  1.00  0.00     0.001 A 
HETATM   39  C   UNL     1      17.407  51.914  47.698  1.00  0.00     0.000 A 
HETATM   40  C   UNL     1      17.875  50.908  46.854  1.00  0.00     0.001 A 
HETATM   41  C   UNL     1      19.213  50.514  46.910  1.00  0.00     0.007 A 
ENDBRANCH  35  36
ENDBRANCH  32  35
ENDBRANCH  28  31
ENDBRANCH   1  25
TORSDOF 7
ENDMDL
MODEL 9
REMARK VINA RESULT:      -9.7      6.360     10.092
REMARK  7 active torsions:
REMARK  status: ('A' for Active; 'I' for Inactive)
REMARK    1  A    between atoms: C_4  and  C_5 
REMARK    2  A    between atoms: C_5  and  C_6 
REMARK       I    between atoms: C_6  and  N_7 
REMARK    3  A    between atoms: N_7  and  C_8 
REMARK    4  A    between atoms: C_11  and  C_12 
REMARK       I    between atoms: C_12  and  N_13 
REMARK    5  A    between atoms: N_13  and  C_14 
REMARK    6  A    between atoms: C_15  and  C_16 
REMARK       I    between atoms: C_16  and  N_17 
REMARK    7  A    between atoms: N_20  and  C_21 
ROOT
HETATM    1  C   UNL     1      28.125  40.994  51.544  1.00  0.00     0.256 C 
HETATM    2  N   UNL     1      28.368  42.350  51.302  1.00  0.00    -0.322 N 
HETATM    3  O   UNL     1      27.739  40.544  52.621  1.00  0.00    -0.267 OA
HETATM    4  H   UNL     1      29.166  42.510  50.703  1.00  0.00     0.169 HD
ENDROOT
BRANCH   2   5
HETATM    5  C   UNL     1      28.209  43.262  52.377  1.00  0.00     0.050 C 
HETATM    6  C   UNL     1      26.978  43.843  52.755  1.00  0.00     0.059 C 
HETATM    7  C   UNL     1      26.885  44.386  54.046  1.00  0.00     0.019 C 
HETATM    8  C   UNL     1      28.015  44.535  54.856  1.00  0.00     0.001 C 
HETATM    9  C   UNL     1      29.257  44.118  54.396  1.00  0.00     0.002 C 
HETATM   10  C   UNL     1      29.354  43.472  53.166  1.00  0.00     0.030 C 
BRANCH   6  11
HETATM   11  C   UNL     1      25.797  43.915  51.815  1.00  0.00     0.256 C 
HETATM   12  N   UNL     1      25.410  45.136  51.224  1.00  0.00    -0.345 N 
HETATM   13  C   UNL     1      26.100  46.432  51.344  1.00  0.00     0.146 C 
HETATM   14  C   UNL     1      24.018  45.209  50.743  1.00  0.00     0.146 C 
HETATM   15  C   UNL     1      25.831  47.409  50.181  1.00  0.00     0.143 C 
HETATM   16  N   UNL     1      24.378  47.512  49.945  1.00  0.00    -0.378 N 
HETATM   17  C   UNL     1      23.793  46.206  49.593  1.00  0.00     0.143 C 
HETATM   18  O   UNL     1      25.182  42.890  51.523  1.00  0.00    -0.267 OA
BRANCH  16  19
HETATM   19  C   UNL     1      23.959  48.655  49.263  1.00  0.00     0.030 A 
HETATM   20  C   UNL     1      24.820  49.482  48.528  1.00  0.00     0.029 A 
HETATM   21  C   UNL     1      24.340  50.590  47.820  1.00  0.00     0.002 A 
HETATM   22  C   UNL     1      22.982  50.893  47.827  1.00  0.00     0.000 A 
HETATM   23  C   UNL     1      22.105  50.087  48.544  1.00  0.00     0.002 A 
HETATM   24  C   UNL     1      22.592  48.985  49.252  1.00  0.00     0.029 A 
ENDBRANCH  16  19
ENDBRANCH   6  11
ENDBRANCH   2   5
BRANCH   1  25
HETATM   25  C   UNL     1      28.516  40.031  50.468  1.00  0.00     0.032 A 
HETATM   26  C   UNL     1      29.132  38.801  50.715  1.00  0.00     0.019 A 
HETATM   27  C   UNL     1      29.364  37.899  49.664  1.00  0.00     0.030 A 
HETATM   28  C   UNL     1      29.007  38.224  48.354  1.00  0.00     0.034 A 
HETATM   29  C   UNL     1      28.452  39.482  48.099  1.00  0.00     0.030 A 
HETATM   30  C   UNL     1      28.204  40.373  49.145  1.00  0.00     0.019 A 
BRANCH  28  31
HETATM   31  N   UNL     1      29.143  37.355  47.252  1.00  0.00    -0.327 N 
HETATM   32  C   UNL     1      28.170  36.549  46.683  1.00  0.00     0.226 C 
HETATM   33  O   UNL     1      27.021  36.397  47.086  1.00  0.00    -0.273 OA
HETATM   34  H   UNL     1      30.051  37.347  46.808  1.00  0.00     0.169 HD
BRANCH  32  35
HETATM   35  C   UNL     1      28.656  35.854  45.418  1.00  0.00     0.141 C 
BRANCH  35  36
HETATM   36  C   UNL     1      29.028  36.821  44.325  1.00  0.00    -0.050 A 
HETATM   37  C   UNL     1      30.345  36.863  43.845  1.00  0.00     0.007 A 
HETATM   38  C   UNL     1      30.701  37.757  42.835  1.00  0.00     0.001 A 
HETATM   39  C   UNL     1      29.749  38.622  42.301  1.00  0.00     0.000 A 
HETATM   40  C   UNL     1      28.439  38.595  42.776  1.00  0.00     0.001 A 
HETATM   41  C   UNL     1      28.078  37.698  43.783  1.00  0.00     0.007 A 
ENDBRANCH  35  36
ENDBRANCH  32  35
ENDBRANCH  28  31
ENDBRANCH   1  25
TORSDOF 7
ENDMDL
MODEL 10
REMARK VINA RESULT:      -9.6      4.236     12.370
REMARK  7 active torsions:
REMARK  status: ('A' for Active; 'I' for Inactive)
REMARK    1  A    between atoms: C_4  and  C_5 
REMARK    2  A    between atoms: C_5  and  C_6 
REMARK       I    between atoms: C_6  and  N_7 
REMARK    3  A    between atoms: N_7  and  C_8 
REMARK    4  A    between atoms: C_11  and  C_12 
REMARK       I    between atoms: C_12  and  N_13 
REMARK    5  A    between atoms: N_13  and  C_14 
REMARK    6  A    between atoms: C_15  and  C_16 
REMARK       I    between atoms: C_16  and  N_17 
REMARK    7  A    between atoms: N_20  and  C_21 
ROOT
HETATM    1  C   UNL     1      25.081  46.290  50.241  1.00  0.00     0.256 C 
HETATM    2  N   UNL     1      24.717  45.662  51.436  1.00  0.00    -0.322 N 
HETATM    3  O   UNL     1      26.210  46.245  49.754  1.00  0.00    -0.267 OA
HETATM    4  H   UNL     1      24.068  46.205  51.989  1.00  0.00     0.169 HD
ENDROOT
BRANCH   2   5
HETATM    5  C   UNL     1      25.719  44.969  52.162  1.00  0.00     0.050 C 
HETATM    6  C   UNL     1      26.200  43.683  51.828  1.00  0.00     0.059 C 
HETATM    7  C   UNL     1      27.440  43.296  52.362  1.00  0.00     0.019 C 
HETATM    8  C   UNL     1      28.082  44.058  53.343  1.00  0.00     0.001 C 
HETATM    9  C   UNL     1      27.503  45.238  53.791  1.00  0.00     0.002 C 
HETATM   10  C   UNL     1      26.332  45.700  53.195  1.00  0.00     0.030 C 
BRANCH   6  11
HETATM   11  C   UNL     1      25.419  42.730  50.956  1.00  0.00     0.256 C 
HETATM   12  N   UNL     1      26.068  41.901  50.017  1.00  0.00    -0.345 N 
HETATM   13  C   UNL     1      27.521  41.771  49.812  1.00  0.00     0.146 C 
HETATM   14  C   UNL     1      25.231  41.393  48.915  1.00  0.00     0.146 C 
HETATM   15  C   UNL     1      27.961  40.432  49.184  1.00  0.00     0.143 C 
HETATM   16  N   UNL     1      27.148  40.157  47.983  1.00  0.00    -0.378 N 
HETATM   17  C   UNL     1      25.714  40.063  48.309  1.00  0.00     0.143 C 
HETATM   18  O   UNL     1      24.198  42.638  51.089  1.00  0.00    -0.267 OA
BRANCH  16  19
HETATM   19  C   UNL     1      27.704  39.254  47.075  1.00  0.00     0.030 A 
HETATM   20  C   UNL     1      28.223  38.005  47.440  1.00  0.00     0.029 A 
HETATM   21  C   UNL     1      28.724  37.115  46.483  1.00  0.00     0.002 A 
HETATM   22  C   UNL     1      28.711  37.454  45.134  1.00  0.00     0.000 A 
HETATM   23  C   UNL     1      28.198  38.686  44.743  1.00  0.00     0.002 A 
HETATM   24  C   UNL     1      27.704  39.572  45.705  1.00  0.00     0.029 A 
ENDBRANCH  16  19
ENDBRANCH   6  11
ENDBRANCH   2   5
BRANCH   1  25
HETATM   25  C   UNL     1      24.071  47.199  49.615  1.00  0.00     0.032 A 
HETATM   26  C   UNL     1      22.854  46.758  49.086  1.00  0.00     0.019 A 
HETATM   27  C   UNL     1      21.905  47.683  48.621  1.00  0.00     0.030 A 
HETATM   28  C   UNL     1      22.169  49.054  48.655  1.00  0.00     0.034 A 
HETATM   29  C   UNL     1      23.413  49.488  49.123  1.00  0.00     0.030 A 
HETATM   30  C   UNL     1      24.351  48.572  49.603  1.00  0.00     0.019 A 
BRANCH  28  31
HETATM   31  N   UNL     1      21.251  50.052  48.271  1.00  0.00    -0.327 N 
HETATM   32  C   UNL     1      20.528  50.900  49.094  1.00  0.00     0.226 C 
HETATM   33  O   UNL     1      20.506  50.884  50.321  1.00  0.00    -0.273 OA
HETATM   34  H   UNL     1      21.135  50.182  47.275  1.00  0.00     0.169 HD
BRANCH  32  35
HETATM   35  C   UNL     1      19.740  51.941  48.309  1.00  0.00     0.141 C 
BRANCH  35  36
HETATM   36  C   UNL     1      18.264  51.902  48.602  1.00  0.00    -0.050 A 
HETATM   37  C   UNL     1      17.726  52.717  49.608  1.00  0.00     0.007 A 
HETATM   38  C   UNL     1      16.361  52.685  49.890  1.00  0.00     0.001 A 
HETATM   39  C   UNL     1      15.520  51.835  49.176  1.00  0.00     0.000 A 
HETATM   40  C   UNL     1      16.044  51.014  48.178  1.00  0.00     0.001 A 
HETATM   41  C   UNL     1      17.410  51.046  47.891  1.00  0.00     0.007 A 
ENDBRANCH  35  36
ENDBRANCH  32  35
ENDBRANCH  28  31
ENDBRANCH   1  25
TORSDOF 7
ENDMDL
