MODEL 1
REMARK VINA RESULT:     -10.9      0.000      0.000
REMARK  2 active torsions:
REMARK  status: ('A' for Active; 'I' for Inactive)
REMARK    1  A    between atoms: O_1  and  C_2 
REMARK    2  A    between atoms: C_24  and  C_25 
ROOT
HETATM    1  C   UNL     1      25.085  44.534  49.552  1.00  0.00     0.066 A 
HETATM    2  C   UNL     1      25.693  43.356  49.138  1.00  0.00     0.039 A 
HETATM    3  C   UNL     1      26.715  42.785  49.900  1.00  0.00     0.033 A 
HETATM    4  C   UNL     1      27.099  43.438  51.081  1.00  0.00     0.044 A 
HETATM    5  N   UNL     1      28.078  43.075  52.001  1.00  0.00    -0.353 N 
HETATM    6  H   UNL     1      28.658  42.255  51.919  1.00  0.00     0.166 HD
HETATM    7  C   UNL     1      28.122  43.993  53.006  1.00  0.00     0.073 A 
HETATM    8  C   UNL     1      28.900  44.088  54.135  1.00  0.00     0.072 A 
HETATM    9  N   UNL     1      29.897  43.310  54.649  1.00  0.00    -0.353 N 
HETATM   10  H   UNL     1      30.256  42.459  54.243  1.00  0.00     0.166 HD
HETATM   11  C   UNL     1      30.359  43.870  55.840  1.00  0.00     0.043 A 
HETATM   12  C   UNL     1      31.367  43.414  56.700  1.00  0.00     0.030 A 
HETATM   13  C   UNL     1      31.639  44.171  57.843  1.00  0.00     0.002 A 
HETATM   14  C   UNL     1      30.933  45.339  58.117  1.00  0.00     0.001 A 
HETATM   15  C   UNL     1      29.927  45.790  57.253  1.00  0.00     0.014 A 
HETATM   16  C   UNL     1      29.628  45.050  56.093  1.00  0.00     0.004 A 
HETATM   17  C   UNL     1      28.759  45.115  55.010  1.00  0.00     0.014 A 
HETATM   18  C   UNL     1      27.788  46.106  54.751  1.00  0.00    -0.010 A 
HETATM   19  C   UNL     1      27.459  47.296  55.545  1.00  0.00     0.163 A 
HETATM   20  N   UNL     1      26.404  47.852  54.725  1.00  0.00    -0.353 N 
HETATM   21  C   UNL     1      26.083  47.147  53.571  1.00  0.00     0.253 A 
HETATM   22  O   UNL     1      25.204  47.540  52.815  1.00  0.00    -0.268 OA
HETATM   23  C   UNL     1      26.974  46.018  53.583  1.00  0.00     0.054 A 
HETATM   24  C   UNL     1      27.170  44.918  52.705  1.00  0.00     0.022 A 
HETATM   25  C   UNL     1      26.493  44.636  51.519  1.00  0.00     0.007 A 
HETATM   26  C   UNL     1      25.466  45.185  50.728  1.00  0.00     0.051 A 
HETATM   27  H   UNL     1      25.902  48.701  54.938  1.00  0.00     0.163 HD
ENDROOT
BRANCH   1  28
HETATM   28  O   UNL     1      24.084  45.102  48.816  1.00  0.00    -0.361 OA
HETATM   29  H   UNL     1      24.444  45.376  47.957  1.00  0.00     0.217 HD
ENDBRANCH   1  28
TORSDOF 2
ENDMDL
MODEL 2
REMARK VINA RESULT:     -10.8      1.743      3.438
REMARK  2 active torsions:
REMARK  status: ('A' for Active; 'I' for Inactive)
REMARK    1  A    between atoms: O_1  and  C_2 
REMARK    2  A    between atoms: C_24  and  C_25 
ROOT
HETATM    1  C   UNL     1      24.809  45.047  49.453  1.00  0.00     0.066 A 
HETATM    2  C   UNL     1      24.349  46.265  49.938  1.00  0.00     0.039 A 
HETATM    3  C   UNL     1      24.864  46.791  51.125  1.00  0.00     0.033 A 
HETATM    4  C   UNL     1      25.850  46.054  51.799  1.00  0.00     0.044 A 
HETATM    5  N   UNL     1      26.513  46.360  52.983  1.00  0.00    -0.353 N 
HETATM    6  H   UNL     1      26.350  47.194  53.526  1.00  0.00     0.166 HD
HETATM    7  C   UNL     1      27.395  45.367  53.283  1.00  0.00     0.073 A 
HETATM    8  C   UNL     1      28.274  45.196  54.326  1.00  0.00     0.072 A 
HETATM    9  N   UNL     1      28.574  45.948  55.424  1.00  0.00    -0.353 N 
HETATM   10  H   UNL     1      28.159  46.835  55.669  1.00  0.00     0.166 HD
HETATM   11  C   UNL     1      29.556  45.304  56.176  1.00  0.00     0.043 A 
HETATM   12  C   UNL     1      30.161  45.709  57.374  1.00  0.00     0.030 A 
HETATM   13  C   UNL     1      31.130  44.869  57.930  1.00  0.00     0.002 A 
HETATM   14  C   UNL     1      31.482  43.671  57.314  1.00  0.00     0.001 A 
HETATM   15  C   UNL     1      30.874  43.272  56.117  1.00  0.00     0.014 A 
HETATM   16  C   UNL     1      29.893  44.096  55.532  1.00  0.00     0.004 A 
HETATM   17  C   UNL     1      29.070  44.101  54.412  1.00  0.00     0.014 A 
HETATM   18  C   UNL     1      28.990  43.117  53.403  1.00  0.00    -0.010 A 
HETATM   19  C   UNL     1      29.744  41.863  53.285  1.00  0.00     0.163 A 
HETATM   20  N   UNL     1      29.182  41.355  52.053  1.00  0.00    -0.353 N 
HETATM   21  C   UNL     1      28.210  42.144  51.447  1.00  0.00     0.253 A 
HETATM   22  O   UNL     1      27.677  41.796  50.401  1.00  0.00    -0.268 OA
HETATM   23  C   UNL     1      28.083  43.283  52.315  1.00  0.00     0.054 A 
HETATM   24  C   UNL     1      27.276  44.452  52.281  1.00  0.00     0.022 A 
HETATM   25  C   UNL     1      26.331  44.815  51.322  1.00  0.00     0.007 A 
HETATM   26  C   UNL     1      25.790  44.312  50.123  1.00  0.00     0.051 A 
HETATM   27  H   UNL     1      29.448  40.483  51.620  1.00  0.00     0.163 HD
ENDROOT
BRANCH   1  28
HETATM   28  O   UNL     1      24.313  44.522  48.294  1.00  0.00    -0.361 OA
HETATM   29  H   UNL     1      25.010  44.000  47.864  1.00  0.00     0.217 HD
ENDBRANCH   1  28
TORSDOF 2
ENDMDL
MODEL 3
REMARK VINA RESULT:     -10.6      1.944      6.500
REMARK  2 active torsions:
REMARK  status: ('A' for Active; 'I' for Inactive)
REMARK    1  A    between atoms: O_1  and  C_2 
REMARK    2  A    between atoms: C_24  and  C_25 
ROOT
HETATM    1  C   UNL     1      30.754  45.276  57.676  1.00  0.00     0.066 A 
HETATM    2  C   UNL     1      31.513  44.134  57.455  1.00  0.00     0.039 A 
HETATM    3  C   UNL     1      31.262  43.326  56.343  1.00  0.00     0.033 A 
HETATM    4  C   UNL     1      30.230  43.706  55.473  1.00  0.00     0.044 A 
HETATM    5  N   UNL     1      29.791  43.077  54.311  1.00  0.00    -0.353 N 
HETATM    6  H   UNL     1      30.187  42.227  53.941  1.00  0.00     0.166 HD
HETATM    7  C   UNL     1      28.761  43.785  53.771  1.00  0.00     0.073 A 
HETATM    8  C   UNL     1      27.996  43.588  52.645  1.00  0.00     0.072 A 
HETATM    9  N   UNL     1      27.992  42.626  51.678  1.00  0.00    -0.353 N 
HETATM   10  H   UNL     1      28.608  41.829  51.630  1.00  0.00     0.166 HD
HETATM   11  C   UNL     1      26.993  42.906  50.746  1.00  0.00     0.043 A 
HETATM   12  C   UNL     1      26.631  42.193  49.595  1.00  0.00     0.030 A 
HETATM   13  C   UNL     1      25.580  42.695  48.822  1.00  0.00     0.002 A 
HETATM   14  C   UNL     1      24.915  43.864  49.183  1.00  0.00     0.001 A 
HETATM   15  C   UNL     1      25.282  44.572  50.335  1.00  0.00     0.014 A 
HETATM   16  C   UNL     1      26.337  44.092  51.135  1.00  0.00     0.004 A 
HETATM   17  C   UNL     1      27.005  44.447  52.301  1.00  0.00     0.014 A 
HETATM   18  C   UNL     1      26.757  45.569  53.122  1.00  0.00    -0.010 A 
HETATM   19  C   UNL     1      25.749  46.623  52.953  1.00  0.00     0.163 A 
HETATM   20  N   UNL     1      26.042  47.431  54.117  1.00  0.00    -0.353 N 
HETATM   21  C   UNL     1      27.079  46.987  54.931  1.00  0.00     0.253 A 
HETATM   22  O   UNL     1      27.400  47.604  55.938  1.00  0.00    -0.268 OA
HETATM   23  C   UNL     1      27.544  45.785  54.292  1.00  0.00     0.054 A 
HETATM   24  C   UNL     1      28.568  44.849  54.598  1.00  0.00     0.022 A 
HETATM   25  C   UNL     1      29.448  44.863  55.680  1.00  0.00     0.007 A 
HETATM   26  C   UNL     1      29.726  45.656  56.810  1.00  0.00     0.051 A 
HETATM   27  H   UNL     1      25.550  48.276  54.366  1.00  0.00     0.163 HD
ENDROOT
BRANCH   1  28
HETATM   28  O   UNL     1      30.990  46.074  58.760  1.00  0.00    -0.361 OA
HETATM   29  H   UNL     1      31.123  45.511  59.540  1.00  0.00     0.217 HD
ENDBRANCH   1  28
TORSDOF 2
ENDMDL
MODEL 4
REMARK VINA RESULT:     -10.2      2.494      4.215
REMARK  2 active torsions:
REMARK  status: ('A' for Active; 'I' for Inactive)
REMARK    1  A    between atoms: O_1  and  C_2 
REMARK    2  A    between atoms: C_24  and  C_25 
ROOT
HETATM    1  C   UNL     1      23.425  42.207  48.973  1.00  0.00     0.066 A 
HETATM    2  C   UNL     1      22.741  43.388  49.232  1.00  0.00     0.039 A 
HETATM    3  C   UNL     1      23.224  44.287  50.187  1.00  0.00     0.033 A 
HETATM    4  C   UNL     1      24.407  43.956  50.864  1.00  0.00     0.044 A 
HETATM    5  N   UNL     1      25.083  44.675  51.846  1.00  0.00    -0.353 N 
HETATM    6  H   UNL     1      24.781  45.568  52.204  1.00  0.00     0.166 HD
HETATM    7  C   UNL     1      26.192  43.987  52.233  1.00  0.00     0.073 A 
HETATM    8  C   UNL     1      27.174  44.263  53.155  1.00  0.00     0.072 A 
HETATM    9  N   UNL     1      27.388  45.310  54.004  1.00  0.00    -0.353 N 
HETATM   10  H   UNL     1      26.803  46.127  54.099  1.00  0.00     0.166 HD
HETATM   11  C   UNL     1      28.553  45.086  54.736  1.00  0.00     0.043 A 
HETATM   12  C   UNL     1      29.151  45.890  55.716  1.00  0.00     0.030 A 
HETATM   13  C   UNL     1      30.332  45.429  56.305  1.00  0.00     0.002 A 
HETATM   14  C   UNL     1      30.895  44.211  55.931  1.00  0.00     0.001 A 
HETATM   15  C   UNL     1      30.292  43.412  54.951  1.00  0.00     0.014 A 
HETATM   16  C   UNL     1      29.101  43.849  54.338  1.00  0.00     0.004 A 
HETATM   17  C   UNL     1      28.204  43.408  53.372  1.00  0.00     0.014 A 
HETATM   18  C   UNL     1      28.265  42.208  52.631  1.00  0.00    -0.010 A 
HETATM   19  C   UNL     1      29.273  41.143  52.694  1.00  0.00     0.163 A 
HETATM   20  N   UNL     1      28.738  40.241  51.698  1.00  0.00    -0.353 N 
HETATM   21  C   UNL     1      27.562  40.641  51.072  1.00  0.00     0.253 A 
HETATM   22  O   UNL     1      27.034  39.943  50.215  1.00  0.00    -0.268 OA
HETATM   23  C   UNL     1      27.253  41.911  51.671  1.00  0.00     0.054 A 
HETATM   24  C   UNL     1      26.199  42.847  51.490  1.00  0.00     0.022 A 
HETATM   25  C   UNL     1      25.116  42.760  50.615  1.00  0.00     0.007 A 
HETATM   26  C   UNL     1      24.603  41.876  49.647  1.00  0.00     0.051 A 
HETATM   27  H   UNL     1      29.158  39.361  51.438  1.00  0.00     0.163 HD
ENDROOT
BRANCH   1  28
HETATM   28  O   UNL     1      22.963  41.320  48.043  1.00  0.00    -0.361 OA
HETATM   29  H   UNL     1      23.557  40.552  48.022  1.00  0.00     0.217 HD
ENDBRANCH   1  28
TORSDOF 2
ENDMDL
MODEL 5
REMARK VINA RESULT:     -10.1      2.427      3.369
REMARK  2 active torsions:
REMARK  status: ('A' for Active; 'I' for Inactive)
REMARK    1  A    between atoms: O_1  and  C_2 
REMARK    2  A    between atoms: C_24  and  C_25 
ROOT
HETATM    1  C   UNL     1      26.346  39.617  48.979  1.00  0.00     0.066 A 
HETATM    2  C   UNL     1      27.489  38.834  49.071  1.00  0.00     0.039 A 
HETATM    3  C   UNL     1      28.482  39.142  50.005  1.00  0.00     0.033 A 
HETATM    4  C   UNL     1      28.283  40.257  50.833  1.00  0.00     0.044 A 
HETATM    5  N   UNL     1      29.112  40.764  51.830  1.00  0.00    -0.353 N 
HETATM    6  H   UNL     1      30.003  40.366  52.084  1.00  0.00     0.166 HD
HETATM    7  C   UNL     1      28.534  41.863  52.389  1.00  0.00     0.073 A 
HETATM    8  C   UNL     1      28.940  42.709  53.394  1.00  0.00     0.072 A 
HETATM    9  N   UNL     1      30.053  42.753  54.182  1.00  0.00    -0.353 N 
HETATM   10  H   UNL     1      30.831  42.111  54.149  1.00  0.00     0.166 HD
HETATM   11  C   UNL     1      29.962  43.836  55.056  1.00  0.00     0.043 A 
HETATM   12  C   UNL     1      30.870  44.262  56.035  1.00  0.00     0.030 A 
HETATM   13  C   UNL     1      30.535  45.392  56.786  1.00  0.00     0.002 A 
HETATM   14  C   UNL     1      29.339  46.071  56.569  1.00  0.00     0.001 A 
HETATM   15  C   UNL     1      28.436  45.641  55.590  1.00  0.00     0.014 A 
HETATM   16  C   UNL     1      28.744  44.505  54.816  1.00  0.00     0.004 A 
HETATM   17  C   UNL     1      28.178  43.759  53.789  1.00  0.00     0.014 A 
HETATM   18  C   UNL     1      26.939  43.984  53.150  1.00  0.00    -0.010 A 
HETATM   19  C   UNL     1      25.956  45.044  53.404  1.00  0.00     0.163 A 
HETATM   20  N   UNL     1      24.954  44.689  52.424  1.00  0.00    -0.353 N 
HETATM   21  C   UNL     1      25.226  43.571  51.641  1.00  0.00     0.253 A 
HETATM   22  O   UNL     1      24.437  43.194  50.784  1.00  0.00    -0.268 OA
HETATM   23  C   UNL     1      26.506  43.113  52.107  1.00  0.00     0.054 A 
HETATM   24  C   UNL     1      27.350  42.030  51.738  1.00  0.00     0.022 A 
HETATM   25  C   UNL     1      27.128  41.066  50.755  1.00  0.00     0.007 A 
HETATM   26  C   UNL     1      26.147  40.728  49.804  1.00  0.00     0.051 A 
HETATM   27  H   UNL     1      24.092  45.192  52.278  1.00  0.00     0.163 HD
ENDROOT
BRANCH   1  28
HETATM   28  O   UNL     1      25.369  39.327  48.070  1.00  0.00    -0.361 OA
HETATM   29  H   UNL     1      24.910  38.519  48.353  1.00  0.00     0.217 HD
ENDBRANCH   1  28
TORSDOF 2
ENDMDL
MODEL 6
REMARK VINA RESULT:      -9.8      2.818      6.793
REMARK  2 active torsions:
REMARK  status: ('A' for Active; 'I' for Inactive)
REMARK    1  A    between atoms: O_1  and  C_2 
REMARK    2  A    between atoms: C_24  and  C_25 
ROOT
HETATM    1  C   UNL     1      28.779  45.554  55.607  1.00  0.00     0.066 A 
HETATM    2  C   UNL     1      29.990  44.976  55.963  1.00  0.00     0.039 A 
HETATM    3  C   UNL     1      30.431  43.814  55.324  1.00  0.00     0.033 A 
HETATM    4  C   UNL     1      29.616  43.262  54.326  1.00  0.00     0.044 A 
HETATM    5  N   UNL     1      29.831  42.125  53.552  1.00  0.00    -0.353 N 
HETATM    6  H   UNL     1      30.644  41.533  53.626  1.00  0.00     0.166 HD
HETATM    7  C   UNL     1      28.784  41.949  52.699  1.00  0.00     0.073 A 
HETATM    8  C   UNL     1      28.520  40.993  51.747  1.00  0.00     0.072 A 
HETATM    9  N   UNL     1      29.201  39.891  51.319  1.00  0.00    -0.353 N 
HETATM   10  H   UNL     1      30.093  39.571  51.667  1.00  0.00     0.166 HD
HETATM   11  C   UNL     1      28.475  39.255  50.312  1.00  0.00     0.043 A 
HETATM   12  C   UNL     1      28.790  38.097  49.590  1.00  0.00     0.030 A 
HETATM   13  C   UNL     1      27.879  37.665  48.622  1.00  0.00     0.002 A 
HETATM   14  C   UNL     1      26.698  38.363  48.383  1.00  0.00     0.001 A 
HETATM   15  C   UNL     1      26.388  39.521  49.109  1.00  0.00     0.014 A 
HETATM   16  C   UNL     1      27.286  39.982  50.091  1.00  0.00     0.004 A 
HETATM   17  C   UNL     1      27.386  41.026  51.003  1.00  0.00     0.014 A 
HETATM   18  C   UNL     1      26.459  42.068  51.216  1.00  0.00    -0.010 A 
HETATM   19  C   UNL     1      25.178  42.308  50.540  1.00  0.00     0.163 A 
HETATM   20  N   UNL     1      24.760  43.510  51.227  1.00  0.00    -0.353 N 
HETATM   21  C   UNL     1      25.622  43.994  52.204  1.00  0.00     0.253 A 
HETATM   22  O   UNL     1      25.353  45.006  52.839  1.00  0.00    -0.268 OA
HETATM   23  C   UNL     1      26.721  43.067  52.200  1.00  0.00     0.054 A 
HETATM   24  C   UNL     1      27.927  42.977  52.947  1.00  0.00     0.022 A 
HETATM   25  C   UNL     1      28.381  43.834  53.949  1.00  0.00     0.007 A 
HETATM   26  C   UNL     1      27.965  45.005  54.612  1.00  0.00     0.051 A 
HETATM   27  H   UNL     1      23.899  44.004  51.042  1.00  0.00     0.163 HD
ENDROOT
BRANCH   1  28
HETATM   28  O   UNL     1      28.336  46.690  56.224  1.00  0.00    -0.361 OA
HETATM   29  H   UNL     1      28.473  46.599  57.181  1.00  0.00     0.217 HD
ENDBRANCH   1  28
TORSDOF 2
ENDMDL
MODEL 7
REMARK VINA RESULT:      -9.7      2.754      7.271
REMARK  2 active torsions:
REMARK  status: ('A' for Active; 'I' for Inactive)
REMARK    1  A    between atoms: O_1  and  C_2 
REMARK    2  A    between atoms: C_24  and  C_25 
ROOT
HETATM    1  C   UNL     1      31.076  43.905  56.968  1.00  0.00     0.066 A 
HETATM    2  C   UNL     1      30.737  45.084  57.617  1.00  0.00     0.039 A 
HETATM    3  C   UNL     1      29.775  45.938  57.072  1.00  0.00     0.033 A 
HETATM    4  C   UNL     1      29.175  45.565  55.860  1.00  0.00     0.044 A 
HETATM    5  N   UNL     1      28.202  46.234  55.123  1.00  0.00    -0.353 N 
HETATM    6  H   UNL     1      27.795  47.117  55.391  1.00  0.00     0.166 HD
HETATM    7  C   UNL     1      27.901  45.517  54.006  1.00  0.00     0.073 A 
HETATM    8  C   UNL     1      27.021  45.742  52.974  1.00  0.00     0.072 A 
HETATM    9  N   UNL     1      26.145  46.752  52.699  1.00  0.00    -0.353 N 
HETATM   10  H   UNL     1      25.989  47.573  53.264  1.00  0.00     0.166 HD
HETATM   11  C   UNL     1      25.484  46.482  51.502  1.00  0.00     0.043 A 
HETATM   12  C   UNL     1      24.507  47.239  50.840  1.00  0.00     0.030 A 
HETATM   13  C   UNL     1      23.998  46.738  49.639  1.00  0.00     0.002 A 
HETATM   14  C   UNL     1      24.447  45.528  49.116  1.00  0.00     0.001 A 
HETATM   15  C   UNL     1      25.424  44.776  49.782  1.00  0.00     0.014 A 
HETATM   16  C   UNL     1      25.956  45.254  50.995  1.00  0.00     0.004 A 
HETATM   17  C   UNL     1      26.891  44.865  51.948  1.00  0.00     0.014 A 
HETATM   18  C   UNL     1      27.680  43.694  51.944  1.00  0.00    -0.010 A 
HETATM   19  C   UNL     1      27.712  42.613  50.952  1.00  0.00     0.163 A 
HETATM   20  N   UNL     1      28.712  41.759  51.553  1.00  0.00    -0.353 N 
HETATM   21  C   UNL     1      29.260  42.199  52.753  1.00  0.00     0.253 A 
HETATM   22  O   UNL     1      30.114  41.544  53.335  1.00  0.00    -0.268 OA
HETATM   23  C   UNL     1      28.596  43.448  53.010  1.00  0.00     0.054 A 
HETATM   24  C   UNL     1      28.687  44.406  54.056  1.00  0.00     0.022 A 
HETATM   25  C   UNL     1      29.506  44.370  55.184  1.00  0.00     0.007 A 
HETATM   26  C   UNL     1      30.479  43.531  55.761  1.00  0.00     0.051 A 
HETATM   27  H   UNL     1      29.028  40.884  51.160  1.00  0.00     0.163 HD
ENDROOT
BRANCH   1  28
HETATM   28  O   UNL     1      32.015  43.061  57.491  1.00  0.00    -0.361 OA
HETATM   29  H   UNL     1      32.596  43.568  58.081  1.00  0.00     0.217 HD
ENDBRANCH   1  28
TORSDOF 2
ENDMDL
MODEL 8
REMARK VINA RESULT:      -9.3      2.923      7.623
REMARK  2 active torsions:
REMARK  status: ('A' for Active; 'I' for Inactive)
REMARK    1  A    between atoms: O_1  and  C_2 
REMARK    2  A    between atoms: C_24  and  C_25 
ROOT
HETATM    1  C   UNL     1      30.124  44.261  55.607  1.00  0.00     0.066 A 
HETATM    2  C   UNL     1      29.687  45.547  55.900  1.00  0.00     0.039 A 
HETATM    3  C   UNL     1      28.592  46.090  55.222  1.00  0.00     0.033 A 
HETATM    4  C   UNL     1      27.962  45.301  54.249  1.00  0.00     0.044 A 
HETATM    5  N   UNL     1      26.867  45.609  53.448  1.00  0.00    -0.353 N 
HETATM    6  H   UNL     1      26.373  46.488  53.476  1.00  0.00     0.166 HD
HETATM    7  C   UNL     1      26.582  44.553  52.638  1.00  0.00     0.073 A 
HETATM    8  C   UNL     1      25.613  44.359  51.682  1.00  0.00     0.072 A 
HETATM    9  N   UNL     1      24.603  45.142  51.205  1.00  0.00    -0.353 N 
HETATM   10  H   UNL     1      24.385  46.080  51.508  1.00  0.00     0.166 HD
HETATM   11  C   UNL     1      23.900  44.450  50.220  1.00  0.00     0.043 A 
HETATM   12  C   UNL     1      22.794  44.864  49.464  1.00  0.00     0.030 A 
HETATM   13  C   UNL     1      22.272  43.966  48.530  1.00  0.00     0.002 A 
HETATM   14  C   UNL     1      22.830  42.702  48.355  1.00  0.00     0.001 A 
HETATM   15  C   UNL     1      23.935  42.294  49.114  1.00  0.00     0.014 A 
HETATM   16  C   UNL     1      24.485  43.176  50.064  1.00  0.00     0.004 A 
HETATM   17  C   UNL     1      25.523  43.196  50.989  1.00  0.00     0.014 A 
HETATM   18  C   UNL     1      26.448  42.165  51.260  1.00  0.00    -0.010 A 
HETATM   19  C   UNL     1      26.545  40.836  50.644  1.00  0.00     0.163 A 
HETATM   20  N   UNL     1      27.682  40.313  51.369  1.00  0.00    -0.353 N 
HETATM   21  C   UNL     1      28.251  41.157  52.317  1.00  0.00     0.253 A 
HETATM   22  O   UNL     1      29.216  40.802  52.980  1.00  0.00    -0.268 OA
HETATM   23  C   UNL     1      27.457  42.354  52.250  1.00  0.00     0.054 A 
HETATM   24  C   UNL     1      27.499  43.595  52.942  1.00  0.00     0.022 A 
HETATM   25  C   UNL     1      28.392  43.992  53.937  1.00  0.00     0.007 A 
HETATM   26  C   UNL     1      29.497  43.474  54.638  1.00  0.00     0.051 A 
HETATM   27  H   UNL     1      28.075  39.394  51.231  1.00  0.00     0.163 HD
ENDROOT
BRANCH   1  28
HETATM   28  O   UNL     1      31.193  43.718  56.263  1.00  0.00    -0.361 OA
HETATM   29  H   UNL     1      31.881  43.503  55.613  1.00  0.00     0.217 HD
ENDBRANCH   1  28
TORSDOF 2
ENDMDL
MODEL 9
REMARK VINA RESULT:      -8.9      2.975      4.830
REMARK  2 active torsions:
REMARK  status: ('A' for Active; 'I' for Inactive)
REMARK    1  A    between atoms: O_1  and  C_2 
REMARK    2  A    between atoms: C_24  and  C_25 
ROOT
HETATM    1  C   UNL     1      24.988  40.191  48.241  1.00  0.00     0.066 A 
HETATM    2  C   UNL     1      23.874  40.960  47.930  1.00  0.00     0.039 A 
HETATM    3  C   UNL     1      23.632  42.157  48.608  1.00  0.00     0.033 A 
HETATM    4  C   UNL     1      24.542  42.546  49.602  1.00  0.00     0.044 A 
HETATM    5  N   UNL     1      24.524  43.680  50.408  1.00  0.00    -0.353 N 
HETATM    6  H   UNL     1      23.811  44.393  50.370  1.00  0.00     0.166 HD
HETATM    7  C   UNL     1      25.601  43.667  51.240  1.00  0.00     0.073 A 
HETATM    8  C   UNL     1      26.031  44.543  52.209  1.00  0.00     0.072 A 
HETATM    9  N   UNL     1      25.538  45.724  52.681  1.00  0.00    -0.353 N 
HETATM   10  H   UNL     1      24.700  46.188  52.365  1.00  0.00     0.166 HD
HETATM   11  C   UNL     1      26.375  46.210  53.686  1.00  0.00     0.043 A 
HETATM   12  C   UNL     1      26.259  47.382  54.445  1.00  0.00     0.030 A 
HETATM   13  C   UNL     1      27.245  47.639  55.401  1.00  0.00     0.002 A 
HETATM   14  C   UNL     1      28.308  46.760  55.593  1.00  0.00     0.001 A 
HETATM   15  C   UNL     1      28.419  45.590  54.831  1.00  0.00     0.014 A 
HETATM   16  C   UNL     1      27.441  45.303  53.859  1.00  0.00     0.004 A 
HETATM   17  C   UNL     1      27.160  44.313  52.924  1.00  0.00     0.014 A 
HETATM   18  C   UNL     1      27.909  43.145  52.663  1.00  0.00    -0.010 A 
HETATM   19  C   UNL     1      29.151  42.691  53.301  1.00  0.00     0.163 A 
HETATM   20  N   UNL     1      29.363  41.459  52.574  1.00  0.00    -0.353 N 
HETATM   21  C   UNL     1      28.415  41.143  51.606  1.00  0.00     0.253 A 
HETATM   22  O   UNL     1      28.511  40.120  50.939  1.00  0.00    -0.268 OA
HETATM   23  C   UNL     1      27.475  42.229  51.659  1.00  0.00     0.054 A 
HETATM   24  C   UNL     1      26.283  42.526  50.945  1.00  0.00     0.022 A 
HETATM   25  C   UNL     1      25.681  41.779  49.933  1.00  0.00     0.007 A 
HETATM   26  C   UNL     1      25.896  40.578  49.231  1.00  0.00     0.051 A 
HETATM   27  H   UNL     1      30.138  40.831  52.725  1.00  0.00     0.163 HD
ENDROOT
BRANCH   1  28
HETATM   28  O   UNL     1      25.236  39.019  47.585  1.00  0.00    -0.361 OA
HETATM   29  H   UNL     1      24.908  39.095  46.675  1.00  0.00     0.217 HD
ENDBRANCH   1  28
TORSDOF 2
ENDMDL
MODEL 10
REMARK VINA RESULT:      -8.8      2.509      4.779
REMARK  2 active torsions:
REMARK  status: ('A' for Active; 'I' for Inactive)
REMARK    1  A    between atoms: O_1  and  C_2 
REMARK    2  A    between atoms: C_24  and  C_25 
ROOT
HETATM    1  C   UNL     1      22.229  45.496  47.449  1.00  0.00     0.066 A 
HETATM    2  C   UNL     1      22.018  46.865  47.552  1.00  0.00     0.039 A 
HETATM    3  C   UNL     1      22.652  47.601  48.556  1.00  0.00     0.033 A 
HETATM    4  C   UNL     1      23.495  46.916  49.443  1.00  0.00     0.044 A 
HETATM    5  N   UNL     1      24.231  47.417  50.513  1.00  0.00    -0.353 N 
HETATM    6  H   UNL     1      24.242  48.387  50.789  1.00  0.00     0.166 HD
HETATM    7  C   UNL     1      24.916  46.404  51.111  1.00  0.00     0.073 A 
HETATM    8  C   UNL     1      25.770  46.376  52.188  1.00  0.00     0.072 A 
HETATM    9  N   UNL     1      26.232  47.340  53.035  1.00  0.00    -0.353 N 
HETATM   10  H   UNL     1      25.999  48.322  53.004  1.00  0.00     0.166 HD
HETATM   11  C   UNL     1      27.091  46.766  53.971  1.00  0.00     0.043 A 
HETATM   12  C   UNL     1      27.790  47.374  55.023  1.00  0.00     0.030 A 
HETATM   13  C   UNL     1      28.594  46.561  55.826  1.00  0.00     0.002 A 
HETATM   14  C   UNL     1      28.699  45.193  55.590  1.00  0.00     0.001 A 
HETATM   15  C   UNL     1      27.998  44.591  54.537  1.00  0.00     0.014 A 
HETATM   16  C   UNL     1      27.179  45.383  53.709  1.00  0.00     0.004 A 
HETATM   17  C   UNL     1      26.346  45.222  52.608  1.00  0.00     0.014 A 
HETATM   18  C   UNL     1      26.057  44.024  51.920  1.00  0.00    -0.010 A 
HETATM   19  C   UNL     1      26.557  42.670  52.189  1.00  0.00     0.163 A 
HETATM   20  N   UNL     1      25.881  41.946  51.135  1.00  0.00    -0.353 N 
HETATM   21  C   UNL     1      25.062  42.697  50.297  1.00  0.00     0.253 A 
HETATM   22  O   UNL     1      24.449  42.172  49.377  1.00  0.00    -0.268 OA
HETATM   23  C   UNL     1      25.174  44.039  50.800  1.00  0.00     0.054 A 
HETATM   24  C   UNL     1      24.602  45.280  50.409  1.00  0.00     0.022 A 
HETATM   25  C   UNL     1      23.721  45.525  49.356  1.00  0.00     0.007 A 
HETATM   26  C   UNL     1      23.068  44.812  48.333  1.00  0.00     0.051 A 
HETATM   27  H   UNL     1      25.966  40.954  50.976  1.00  0.00     0.163 HD
ENDROOT
BRANCH   1  28
HETATM   28  O   UNL     1      21.615  44.764  46.472  1.00  0.00    -0.361 OA
HETATM   29  H   UNL     1      20.906  45.299  46.080  1.00  0.00     0.217 HD
ENDBRANCH   1  28
TORSDOF 2
ENDMDL
