MODEL 1
REMARK VINA RESULT:      -8.0      0.000      0.000
REMARK  2 active torsions:
REMARK  status: ('A' for Active; 'I' for Inactive)
REMARK    1  A    between atoms: C_2  and  C_3 
REMARK    2  A    between atoms: C_4  and  N_5 
ROOT
HETATM    1  N   UNL     1      26.671  45.132  53.233  1.00  0.00    -0.321 N 
HETATM    2  C   UNL     1      25.463  44.386  53.298  1.00  0.00     0.141 C 
HETATM    3  N   UNL     1      25.007  43.881  54.407  1.00  0.00    -0.380 N 
HETATM    4  H   UNL     1      24.137  43.368  54.401  1.00  0.00     0.158 HD
HETATM    5  H   UNL     1      25.521  44.033  55.262  1.00  0.00     0.158 HD
HETATM    6  S   UNL     1      24.668  44.251  51.784  1.00  0.00    -0.086 SA
HETATM    7  C   UNL     1      26.122  44.963  50.896  1.00  0.00     0.093 C 
HETATM    8  C   UNL     1      26.850  45.839  51.946  1.00  0.00     0.121 C 
HETATM    9  C   UNL     1      25.777  45.816  49.695  1.00  0.00     0.158 C 
HETATM   10  S   UNL     1      25.609  47.478  50.297  1.00  0.00     0.147 S 
HETATM   11  O   UNL     1      24.205  47.825  50.333  1.00  0.00    -0.228 OA
HETATM   12  O   UNL     1      26.598  48.301  49.635  1.00  0.00    -0.228 OA
HETATM   13  C   UNL     1      26.157  47.201  51.961  1.00  0.00     0.167 C 
ENDROOT
BRANCH   1  14
HETATM   14  C   UNL     1      27.705  45.211  54.182  1.00  0.00     0.043 A 
HETATM   15  C   UNL     1      28.724  44.230  54.283  1.00  0.00    -0.028 A 
HETATM   16  C   UNL     1      29.698  44.365  55.299  1.00  0.00     0.010 A 
HETATM   17  C   UNL     1      29.688  45.441  56.183  1.00  0.00     0.001 A 
HETATM   18  C   UNL     1      28.704  46.408  56.072  1.00  0.00     0.002 A 
HETATM   19  C   UNL     1      27.725  46.291  55.085  1.00  0.00     0.030 A 
BRANCH  15  20
HETATM   20  C   UNL     1      28.879  43.074  53.296  1.00  0.00     0.013 C 
HETATM   21  C   UNL     1      28.079  41.840  53.729  1.00  0.00     0.015 C 
HETATM   22  C   UNL     1      30.352  42.707  53.083  1.00  0.00     0.015 C 
ENDBRANCH  15  20
ENDBRANCH   1  14
TORSDOF 2
ENDMDL
MODEL 2
REMARK VINA RESULT:      -7.1      0.775      2.519
REMARK  2 active torsions:
REMARK  status: ('A' for Active; 'I' for Inactive)
REMARK    1  A    between atoms: C_2  and  C_3 
REMARK    2  A    between atoms: C_4  and  N_5 
ROOT
HETATM    1  N   UNL     1      26.878  44.441  52.856  1.00  0.00    -0.321 N 
HETATM    2  C   UNL     1      25.551  44.143  53.266  1.00  0.00     0.141 C 
HETATM    3  N   UNL     1      25.254  43.782  54.481  1.00  0.00    -0.380 N 
HETATM    4  H   UNL     1      24.293  43.593  54.724  1.00  0.00     0.158 HD
HETATM    5  H   UNL     1      25.992  43.721  55.168  1.00  0.00     0.158 HD
HETATM    6  S   UNL     1      24.395  44.338  52.014  1.00  0.00    -0.086 SA
HETATM    7  C   UNL     1      25.723  44.550  50.748  1.00  0.00     0.093 C 
HETATM    8  C   UNL     1      26.946  45.091  51.529  1.00  0.00     0.121 C 
HETATM    9  C   UNL     1      25.386  45.511  49.630  1.00  0.00     0.158 C 
HETATM   10  S   UNL     1      25.944  47.111  50.164  1.00  0.00     0.147 S 
HETATM   11  O   UNL     1      24.796  47.908  50.536  1.00  0.00    -0.228 OA
HETATM   12  O   UNL     1      26.945  47.575  49.228  1.00  0.00    -0.228 OA
HETATM   13  C   UNL     1      26.777  46.606  51.646  1.00  0.00     0.167 C 
ENDROOT
BRANCH   1  14
HETATM   14  C   UNL     1      28.087  44.133  53.505  1.00  0.00     0.043 A 
HETATM   15  C   UNL     1      28.587  44.897  54.590  1.00  0.00    -0.028 A 
HETATM   16  C   UNL     1      29.835  44.543  55.151  1.00  0.00     0.010 A 
HETATM   17  C   UNL     1      30.568  43.457  54.678  1.00  0.00     0.001 A 
HETATM   18  C   UNL     1      30.070  42.700  53.632  1.00  0.00     0.002 A 
HETATM   19  C   UNL     1      28.846  43.036  53.053  1.00  0.00     0.030 A 
BRANCH  15  20
HETATM   20  C   UNL     1      27.808  46.037  55.244  1.00  0.00     0.013 C 
HETATM   21  C   UNL     1      28.085  47.384  54.565  1.00  0.00     0.015 C 
HETATM   22  C   UNL     1      28.097  46.128  56.747  1.00  0.00     0.015 C 
ENDBRANCH  15  20
ENDBRANCH   1  14
TORSDOF 2
ENDMDL
MODEL 3
REMARK VINA RESULT:      -7.1     12.877     14.753
REMARK  2 active torsions:
REMARK  status: ('A' for Active; 'I' for Inactive)
REMARK    1  A    between atoms: C_2  and  C_3 
REMARK    2  A    between atoms: C_4  and  N_5 
ROOT
HETATM    1  N   UNL     1      30.788  51.927  40.391  1.00  0.00    -0.321 N 
HETATM    2  C   UNL     1      30.014  53.088  40.657  1.00  0.00     0.141 C 
HETATM    3  N   UNL     1      30.529  54.283  40.700  1.00  0.00    -0.380 N 
HETATM    4  H   UNL     1      29.933  55.077  40.881  1.00  0.00     0.158 HD
HETATM    5  H   UNL     1      31.517  54.396  40.525  1.00  0.00     0.158 HD
HETATM    6  S   UNL     1      28.347  52.755  40.880  1.00  0.00    -0.086 SA
HETATM    7  C   UNL     1      28.661  50.936  40.926  1.00  0.00     0.093 C 
HETATM    8  C   UNL     1      29.965  50.729  40.115  1.00  0.00     0.121 C 
HETATM    9  C   UNL     1      27.564  50.086  40.322  1.00  0.00     0.158 C 
HETATM   10  S   UNL     1      27.973  49.892  38.605  1.00  0.00     0.147 S 
HETATM   11  O   UNL     1      27.092  50.724  37.816  1.00  0.00    -0.228 OA
HETATM   12  O   UNL     1      28.157  48.482  38.342  1.00  0.00    -0.228 OA
HETATM   13  C   UNL     1      29.575  50.653  38.639  1.00  0.00     0.167 C 
ENDROOT
BRANCH   1  14
HETATM   14  C   UNL     1      32.185  51.775  40.434  1.00  0.00     0.043 A 
HETATM   15  C   UNL     1      32.890  51.527  41.639  1.00  0.00    -0.028 A 
HETATM   16  C   UNL     1      34.300  51.436  41.595  1.00  0.00     0.010 A 
HETATM   17  C   UNL     1      35.003  51.566  40.400  1.00  0.00     0.001 A 
HETATM   18  C   UNL     1      34.314  51.789  39.221  1.00  0.00     0.002 A 
HETATM   19  C   UNL     1      32.923  51.894  39.240  1.00  0.00     0.030 A 
BRANCH  15  20
HETATM   20  C   UNL     1      32.199  51.267  42.977  1.00  0.00     0.013 C 
HETATM   21  C   UNL     1      33.044  51.751  44.161  1.00  0.00     0.015 C 
HETATM   22  C   UNL     1      31.841  49.786  43.148  1.00  0.00     0.015 C 
ENDBRANCH  15  20
ENDBRANCH   1  14
TORSDOF 2
ENDMDL
MODEL 4
REMARK VINA RESULT:      -7.0     12.572     13.848
REMARK  2 active torsions:
REMARK  status: ('A' for Active; 'I' for Inactive)
REMARK    1  A    between atoms: C_2  and  C_3 
REMARK    2  A    between atoms: C_4  and  N_5 
ROOT
HETATM    1  N   UNL     1      31.992  49.823  41.519  1.00  0.00    -0.321 N 
HETATM    2  C   UNL     1      32.121  48.442  41.211  1.00  0.00     0.141 C 
HETATM    3  N   UNL     1      32.838  47.625  41.926  1.00  0.00    -0.380 N 
HETATM    4  H   UNL     1      32.888  46.649  41.671  1.00  0.00     0.158 HD
HETATM    5  H   UNL     1      33.316  47.979  42.742  1.00  0.00     0.158 HD
HETATM    6  S   UNL     1      31.217  47.968  39.832  1.00  0.00    -0.086 SA
HETATM    7  C   UNL     1      30.842  49.725  39.407  1.00  0.00     0.093 C 
HETATM    8  C   UNL     1      30.921  50.494  40.749  1.00  0.00     0.121 C 
HETATM    9  C   UNL     1      29.481  49.952  38.787  1.00  0.00     0.158 C 
HETATM   10  S   UNL     1      28.368  50.270  40.134  1.00  0.00     0.147 S 
HETATM   11  O   UNL     1      27.537  49.104  40.342  1.00  0.00    -0.228 OA
HETATM   12  O   UNL     1      27.818  51.597  39.962  1.00  0.00    -0.228 OA
HETATM   13  C   UNL     1      29.566  50.342  41.440  1.00  0.00     0.167 C 
ENDROOT
BRANCH   1  14
HETATM   14  C   UNL     1      32.781  50.607  42.378  1.00  0.00     0.043 A 
HETATM   15  C   UNL     1      34.118  50.967  42.070  1.00  0.00    -0.028 A 
HETATM   16  C   UNL     1      34.854  51.718  43.015  1.00  0.00     0.010 A 
HETATM   17  C   UNL     1      34.292  52.124  44.222  1.00  0.00     0.001 A 
HETATM   18  C   UNL     1      32.981  51.789  44.515  1.00  0.00     0.002 A 
HETATM   19  C   UNL     1      32.238  51.039  43.603  1.00  0.00     0.030 A 
BRANCH  15  20
HETATM   20  C   UNL     1      34.784  50.658  40.730  1.00  0.00     0.013 C 
HETATM   21  C   UNL     1      36.307  50.540  40.860  1.00  0.00     0.015 C 
HETATM   22  C   UNL     1      34.418  51.699  39.665  1.00  0.00     0.015 C 
ENDBRANCH  15  20
ENDBRANCH   1  14
TORSDOF 2
ENDMDL
MODEL 5
REMARK VINA RESULT:      -6.9      3.948      5.143
REMARK  2 active torsions:
REMARK  status: ('A' for Active; 'I' for Inactive)
REMARK    1  A    between atoms: C_2  and  C_3 
REMARK    2  A    between atoms: C_4  and  N_5 
ROOT
HETATM    1  N   UNL     1      27.638  42.851  51.408  1.00  0.00    -0.321 N 
HETATM    2  C   UNL     1      27.154  43.744  50.415  1.00  0.00     0.141 C 
HETATM    3  N   UNL     1      27.549  44.981  50.328  1.00  0.00    -0.380 N 
HETATM    4  H   UNL     1      27.182  45.571  49.596  1.00  0.00     0.158 HD
HETATM    5  H   UNL     1      28.237  45.322  50.984  1.00  0.00     0.158 HD
HETATM    6  S   UNL     1      26.033  43.017  49.339  1.00  0.00    -0.086 SA
HETATM    7  C   UNL     1      25.926  41.501  50.388  1.00  0.00     0.093 C 
HETATM    8  C   UNL     1      27.273  41.440  51.151  1.00  0.00     0.121 C 
HETATM    9  C   UNL     1      25.734  40.211  49.622  1.00  0.00     0.158 C 
HETATM   10  S   UNL     1      27.362  39.591  49.276  1.00  0.00     0.147 S 
HETATM   11  O   UNL     1      27.658  39.806  47.877  1.00  0.00    -0.228 OA
HETATM   12  O   UNL     1      27.497  38.298  49.910  1.00  0.00    -0.228 OA
HETATM   13  C   UNL     1      28.288  40.765  50.229  1.00  0.00     0.167 C 
ENDROOT
BRANCH   1  14
HETATM   14  C   UNL     1      28.329  43.150  52.595  1.00  0.00     0.043 A 
HETATM   15  C   UNL     1      27.746  43.896  53.651  1.00  0.00    -0.028 A 
HETATM   16  C   UNL     1      28.531  44.192  54.789  1.00  0.00     0.010 A 
HETATM   17  C   UNL     1      29.849  43.754  54.901  1.00  0.00     0.001 A 
HETATM   18  C   UNL     1      30.412  43.010  53.878  1.00  0.00     0.002 A 
HETATM   19  C   UNL     1      29.661  42.715  52.741  1.00  0.00     0.030 A 
BRANCH  15  20
HETATM   20  C   UNL     1      26.280  44.327  53.664  1.00  0.00     0.013 C 
HETATM   21  C   UNL     1      26.131  45.852  53.605  1.00  0.00     0.015 C 
HETATM   22  C   UNL     1      25.538  43.766  54.883  1.00  0.00     0.015 C 
ENDBRANCH  15  20
ENDBRANCH   1  14
TORSDOF 2
ENDMDL
MODEL 6
REMARK VINA RESULT:      -6.6      2.402      3.428
REMARK  2 active torsions:
REMARK  status: ('A' for Active; 'I' for Inactive)
REMARK    1  A    between atoms: C_2  and  C_3 
REMARK    2  A    between atoms: C_4  and  N_5 
ROOT
HETATM    1  N   UNL     1      27.865  42.671  52.622  1.00  0.00    -0.321 N 
HETATM    2  C   UNL     1      27.408  41.327  52.590  1.00  0.00     0.141 C 
HETATM    3  N   UNL     1      27.347  40.578  53.653  1.00  0.00    -0.380 N 
HETATM    4  H   UNL     1      27.003  39.632  53.579  1.00  0.00     0.158 HD
HETATM    5  H   UNL     1      27.623  40.969  54.543  1.00  0.00     0.158 HD
HETATM    6  S   UNL     1      26.922  40.813  51.027  1.00  0.00    -0.086 SA
HETATM    7  C   UNL     1      27.614  42.339  50.251  1.00  0.00     0.093 C 
HETATM    8  C   UNL     1      27.589  43.410  51.370  1.00  0.00     0.121 C 
HETATM    9  C   UNL     1      26.839  42.853  49.058  1.00  0.00     0.158 C 
HETATM   10  S   UNL     1      25.634  43.989  49.700  1.00  0.00     0.147 S 
HETATM   11  O   UNL     1      24.331  43.363  49.660  1.00  0.00    -0.228 OA
HETATM   12  O   UNL     1      25.891  45.291  49.125  1.00  0.00    -0.228 OA
HETATM   13  C   UNL     1      26.187  44.019  51.385  1.00  0.00     0.167 C 
ENDROOT
BRANCH   1  14
HETATM   14  C   UNL     1      28.586  43.328  53.634  1.00  0.00     0.043 A 
HETATM   15  C   UNL     1      28.038  44.394  54.392  1.00  0.00    -0.028 A 
HETATM   16  C   UNL     1      28.852  45.029  55.358  1.00  0.00     0.010 A 
HETATM   17  C   UNL     1      30.163  44.621  55.591  1.00  0.00     0.001 A 
HETATM   18  C   UNL     1      30.691  43.569  54.864  1.00  0.00     0.002 A 
HETATM   19  C   UNL     1      29.912  42.934  53.897  1.00  0.00     0.030 A 
BRANCH  15  20
HETATM   20  C   UNL     1      26.581  44.842  54.282  1.00  0.00     0.013 C 
HETATM   21  C   UNL     1      26.397  46.305  54.699  1.00  0.00     0.015 C 
HETATM   22  C   UNL     1      25.649  43.934  55.094  1.00  0.00     0.015 C 
ENDBRANCH  15  20
ENDBRANCH   1  14
TORSDOF 2
ENDMDL
MODEL 7
REMARK VINA RESULT:      -6.5      8.957     10.709
REMARK  2 active torsions:
REMARK  status: ('A' for Active; 'I' for Inactive)
REMARK    1  A    between atoms: C_2  and  C_3 
REMARK    2  A    between atoms: C_4  and  N_5 
ROOT
HETATM    1  N   UNL     1      19.758  48.186  47.797  1.00  0.00    -0.321 N 
HETATM    2  C   UNL     1      19.135  47.299  48.715  1.00  0.00     0.141 C 
HETATM    3  N   UNL     1      19.257  47.420  50.005  1.00  0.00    -0.380 N 
HETATM    4  H   UNL     1      18.784  46.770  50.615  1.00  0.00     0.158 HD
HETATM    5  H   UNL     1      19.807  48.182  50.375  1.00  0.00     0.158 HD
HETATM    6  S   UNL     1      18.192  46.086  47.952  1.00  0.00    -0.086 SA
HETATM    7  C   UNL     1      18.851  46.544  46.289  1.00  0.00     0.093 C 
HETATM    8  C   UNL     1      19.263  48.033  46.411  1.00  0.00     0.121 C 
HETATM    9  C   UNL     1      17.864  46.398  45.152  1.00  0.00     0.158 C 
HETATM   10  S   UNL     1      17.032  47.960  45.010  1.00  0.00     0.147 S 
HETATM   11  O   UNL     1      15.693  47.829  45.541  1.00  0.00    -0.228 OA
HETATM   12  O   UNL     1      17.299  48.495  43.693  1.00  0.00    -0.228 OA
HETATM   13  C   UNL     1      18.008  48.873  46.176  1.00  0.00     0.167 C 
ENDROOT
BRANCH   1  14
HETATM   14  C   UNL     1      20.800  49.099  48.031  1.00  0.00     0.043 A 
HETATM   15  C   UNL     1      20.565  50.451  48.390  1.00  0.00    -0.028 A 
HETATM   16  C   UNL     1      21.673  51.312  48.559  1.00  0.00     0.010 A 
HETATM   17  C   UNL     1      22.980  50.860  48.400  1.00  0.00     0.001 A 
HETATM   18  C   UNL     1      23.211  49.536  48.069  1.00  0.00     0.002 A 
HETATM   19  C   UNL     1      22.133  48.670  47.885  1.00  0.00     0.030 A 
BRANCH  15  20
HETATM   20  C   UNL     1      19.174  51.011  48.688  1.00  0.00     0.013 C 
HETATM   21  C   UNL     1      19.043  52.477  48.261  1.00  0.00     0.015 C 
HETATM   22  C   UNL     1      18.807  50.851  50.168  1.00  0.00     0.015 C 
ENDBRANCH  15  20
ENDBRANCH   1  14
TORSDOF 2
ENDMDL
MODEL 8
REMARK VINA RESULT:      -6.4     12.680     14.468
REMARK  2 active torsions:
REMARK  status: ('A' for Active; 'I' for Inactive)
REMARK    1  A    between atoms: C_2  and  C_3 
REMARK    2  A    between atoms: C_4  and  N_5 
ROOT
HETATM    1  N   UNL     1      29.617  49.809  39.838  1.00  0.00    -0.321 N 
HETATM    2  C   UNL     1      28.306  50.352  39.902  1.00  0.00     0.141 C 
HETATM    3  N   UNL     1      28.030  51.568  39.530  1.00  0.00    -0.380 N 
HETATM    4  H   UNL     1      27.078  51.903  39.583  1.00  0.00     0.158 HD
HETATM    5  H   UNL     1      28.772  52.151  39.169  1.00  0.00     0.158 HD
HETATM    6  S   UNL     1      27.138  49.239  40.483  1.00  0.00    -0.086 SA
HETATM    7  C   UNL     1      28.450  48.035  40.971  1.00  0.00     0.093 C 
HETATM    8  C   UNL     1      29.651  48.344  40.042  1.00  0.00     0.121 C 
HETATM    9  C   UNL     1      28.067  46.580  40.814  1.00  0.00     0.158 C 
HETATM   10  S   UNL     1      28.554  46.111  39.172  1.00  0.00     0.147 S 
HETATM   11  O   UNL     1      27.373  46.004  38.344  1.00  0.00    -0.228 OA
HETATM   12  O   UNL     1      29.530  45.048  39.278  1.00  0.00    -0.228 OA
HETATM   13  C   UNL     1      29.414  47.597  38.730  1.00  0.00     0.167 C 
ENDROOT
BRANCH   1  14
HETATM   14  C   UNL     1      30.840  50.485  39.687  1.00  0.00     0.043 A 
HETATM   15  C   UNL     1      31.548  51.037  40.784  1.00  0.00    -0.028 A 
HETATM   16  C   UNL     1      32.747  51.743  40.534  1.00  0.00     0.010 A 
HETATM   17  C   UNL     1      33.253  51.889  39.244  1.00  0.00     0.001 A 
HETATM   18  C   UNL     1      32.571  51.334  38.175  1.00  0.00     0.002 A 
HETATM   19  C   UNL     1      31.380  50.643  38.396  1.00  0.00     0.030 A 
BRANCH  15  20
HETATM   20  C   UNL     1      31.128  50.839  42.241  1.00  0.00     0.013 C 
HETATM   21  C   UNL     1      31.505  52.040  43.115  1.00  0.00     0.015 C 
HETATM   22  C   UNL     1      31.715  49.549  42.826  1.00  0.00     0.015 C 
ENDBRANCH  15  20
ENDBRANCH   1  14
TORSDOF 2
ENDMDL
MODEL 9
REMARK VINA RESULT:      -6.3      3.029      4.702
REMARK  2 active torsions:
REMARK  status: ('A' for Active; 'I' for Inactive)
REMARK    1  A    between atoms: C_2  and  C_3 
REMARK    2  A    between atoms: C_4  and  N_5 
ROOT
HETATM    1  N   UNL     1      26.081  43.574  50.822  1.00  0.00    -0.321 N 
HETATM    2  C   UNL     1      26.355  44.810  50.176  1.00  0.00     0.141 C 
HETATM    3  N   UNL     1      27.548  45.327  50.123  1.00  0.00    -0.380 N 
HETATM    4  H   UNL     1      27.691  46.202  49.641  1.00  0.00     0.158 HD
HETATM    5  H   UNL     1      28.317  44.827  50.545  1.00  0.00     0.158 HD
HETATM    6  S   UNL     1      24.969  45.520  49.458  1.00  0.00    -0.086 SA
HETATM    7  C   UNL     1      23.852  44.298  50.275  1.00  0.00     0.093 C 
HETATM    8  C   UNL     1      24.731  43.047  50.523  1.00  0.00     0.121 C 
HETATM    9  C   UNL     1      22.643  43.897  49.458  1.00  0.00     0.158 C 
HETATM   10  S   UNL     1      23.134  42.481  48.504  1.00  0.00     0.147 S 
HETATM   11  O   UNL     1      23.321  42.884  47.128  1.00  0.00    -0.228 OA
HETATM   12  O   UNL     1      22.291  41.368  48.883  1.00  0.00    -0.228 OA
HETATM   13  C   UNL     1      24.731  42.228  49.233  1.00  0.00     0.167 C 
ENDROOT
BRANCH   1  14
HETATM   14  C   UNL     1      26.882  42.865  51.734  1.00  0.00     0.043 A 
HETATM   15  C   UNL     1      27.131  43.326  53.052  1.00  0.00    -0.028 A 
HETATM   16  C   UNL     1      27.988  42.572  53.885  1.00  0.00     0.010 A 
HETATM   17  C   UNL     1      28.574  41.387  53.449  1.00  0.00     0.001 A 
HETATM   18  C   UNL     1      28.317  40.927  52.169  1.00  0.00     0.002 A 
HETATM   19  C   UNL     1      27.483  41.659  51.324  1.00  0.00     0.030 A 
BRANCH  15  20
HETATM   20  C   UNL     1      26.452  44.556  53.653  1.00  0.00     0.013 C 
HETATM   21  C   UNL     1      27.413  45.374  54.523  1.00  0.00     0.015 C 
HETATM   22  C   UNL     1      25.201  44.175  54.454  1.00  0.00     0.015 C 
ENDBRANCH  15  20
ENDBRANCH   1  14
TORSDOF 2
ENDMDL
MODEL 10
REMARK VINA RESULT:      -6.3      3.659      6.347
REMARK  2 active torsions:
REMARK  status: ('A' for Active; 'I' for Inactive)
REMARK    1  A    between atoms: C_2  and  C_3 
REMARK    2  A    between atoms: C_4  and  N_5 
ROOT
HETATM    1  N   UNL     1      26.075  46.740  50.732  1.00  0.00    -0.321 N 
HETATM    2  C   UNL     1      26.386  45.390  50.416  1.00  0.00     0.141 C 
HETATM    3  N   UNL     1      26.940  45.039  49.292  1.00  0.00    -0.380 N 
HETATM    4  H   UNL     1      27.151  44.067  49.122  1.00  0.00     0.158 HD
HETATM    5  H   UNL     1      27.172  45.753  48.617  1.00  0.00     0.158 HD
HETATM    6  S   UNL     1      25.986  44.292  51.672  1.00  0.00    -0.086 SA
HETATM    7  C   UNL     1      25.074  45.602  52.600  1.00  0.00     0.093 C 
HETATM    8  C   UNL     1      25.716  46.939  52.153  1.00  0.00     0.121 C 
HETATM    9  C   UNL     1      25.163  45.492  54.107  1.00  0.00     0.158 C 
HETATM   10  S   UNL     1      26.581  46.444  54.593  1.00  0.00     0.147 S 
HETATM   11  O   UNL     1      27.652  45.540  54.953  1.00  0.00    -0.228 OA
HETATM   12  O   UNL     1      26.133  47.508  55.464  1.00  0.00    -0.228 OA
HETATM   13  C   UNL     1      26.960  47.156  53.014  1.00  0.00     0.167 C 
ENDROOT
BRANCH   1  14
HETATM   14  C   UNL     1      26.001  47.847  49.868  1.00  0.00     0.043 A 
HETATM   15  C   UNL     1      24.791  48.253  49.250  1.00  0.00    -0.028 A 
HETATM   16  C   UNL     1      24.818  49.349  48.358  1.00  0.00     0.010 A 
HETATM   17  C   UNL     1      25.994  50.045  48.091  1.00  0.00     0.001 A 
HETATM   18  C   UNL     1      27.171  49.661  48.710  1.00  0.00     0.002 A 
HETATM   19  C   UNL     1      27.172  48.575  49.585  1.00  0.00     0.030 A 
BRANCH  15  20
HETATM   20  C   UNL     1      23.435  47.618  49.560  1.00  0.00     0.013 C 
HETATM   21  C   UNL     1      23.258  46.269  48.853  1.00  0.00     0.015 C 
HETATM   22  C   UNL     1      22.278  48.561  49.208  1.00  0.00     0.015 C 
ENDBRANCH  15  20
ENDBRANCH   1  14
TORSDOF 2
ENDMDL
