MODEL 1
REMARK VINA RESULT:     -10.4      0.000      0.000
REMARK  6 active torsions:
REMARK  status: ('A' for Active; 'I' for Inactive)
REMARK    1  A    between atoms: C_5  and  C_6 
REMARK    2  A    between atoms: C_6  and  S_7 
REMARK    3  A    between atoms: S_7  and  C_8 
REMARK    4  A    between atoms: C_10  and  N_11 
REMARK    5  A    between atoms: C_12  and  N_13 
REMARK       I    between atoms: N_13  and  C_14 
REMARK    6  A    between atoms: C_14  and  C_15 
ROOT
HETATM    1  C   UNL     1      25.968  45.306  50.688  1.00  0.00     0.171 C 
HETATM    2  N   UNL     1      24.892  44.903  50.101  1.00  0.00    -0.210 NA
HETATM    3  C   UNL     1      23.952  45.858  49.780  1.00  0.00     0.136 C 
HETATM    4  C   UNL     1      24.172  47.187  49.938  1.00  0.00     0.144 C 
HETATM    5  C   UNL     1      25.572  47.570  50.285  1.00  0.00     0.277 C 
HETATM    6  O   UNL     1      26.115  48.598  49.897  1.00  0.00    -0.266 OA
HETATM    7  N   UNL     1      26.273  46.602  50.931  1.00  0.00    -0.300 N 
HETATM    8  H   UNL     1      27.226  46.820  51.181  1.00  0.00     0.171 HD
ENDROOT
BRANCH   1   9
HETATM    9  S   UNL     1      27.229  44.256  51.245  1.00  0.00    -0.087 SA
BRANCH   9  10
HETATM   10  C   UNL     1      26.679  43.900  52.936  1.00  0.00     0.121 C 
BRANCH  10  11
HETATM   11  C   UNL     1      27.352  44.833  53.925  1.00  0.00    -0.037 A 
HETATM   12  C   UNL     1      28.578  44.512  54.579  1.00  0.00    -0.019 A 
HETATM   13  C   UNL     1      29.117  45.440  55.509  1.00  0.00    -0.025 A 
HETATM   14  C   UNL     1      29.303  43.314  54.366  1.00  0.00     0.013 A 
HETATM   15  C   UNL     1      30.327  45.161  56.167  1.00  0.00     0.012 A 
HETATM   16  C   UNL     1      28.438  46.636  55.781  1.00  0.00     0.012 A 
HETATM   17  C   UNL     1      31.019  43.976  55.927  1.00  0.00     0.001 A 
HETATM   18  C   UNL     1      30.505  43.052  55.028  1.00  0.00     0.001 A 
HETATM   19  C   UNL     1      27.236  46.935  55.151  1.00  0.00     0.001 A 
HETATM   20  C   UNL     1      26.697  46.042  54.232  1.00  0.00     0.009 A 
ENDBRANCH  10  11
ENDBRANCH   9  10
ENDBRANCH   1   9
BRANCH   3  21
HETATM   21  N   UNL     1      22.725  45.403  49.313  1.00  0.00    -0.285 NA
HETATM   22  H   UNL     1      22.064  46.176  49.392  1.00  0.00     0.125 HD
HETATM   23  H   UNL     1      22.390  44.628  49.884  1.00  0.00     0.125 HD
ENDBRANCH   3  21
BRANCH   4  24
HETATM   24  N   UNL     1      23.162  48.115  49.757  1.00  0.00    -0.314 N 
HETATM   25  C   UNL     1      22.990  48.937  48.659  1.00  0.00     0.280 C 
HETATM   26  O   UNL     1      23.748  48.987  47.696  1.00  0.00    -0.265 OA
HETATM   27  H   UNL     1      22.643  48.380  50.587  1.00  0.00     0.169 HD
BRANCH  25  28
HETATM   28  C   UNL     1      21.852  49.829  48.776  1.00  0.00     0.144 A 
HETATM   29  O   UNL     1      20.669  49.362  49.289  1.00  0.00    -0.298 OA
HETATM   30  C   UNL     1      19.807  50.415  49.322  1.00  0.00     0.122 A 
HETATM   31 BR   UNL     1      18.061  50.318  49.972  1.00  0.00    -0.023 Br
HETATM   32  C   UNL     1      20.406  51.547  48.819  1.00  0.00     0.048 A 
HETATM   33  C   UNL     1      21.725  51.171  48.470  1.00  0.00     0.046 A 
ENDBRANCH  25  28
ENDBRANCH   4  24
TORSDOF 6
ENDMDL
MODEL 2
REMARK VINA RESULT:     -10.4      0.709      1.865
REMARK  6 active torsions:
REMARK  status: ('A' for Active; 'I' for Inactive)
REMARK    1  A    between atoms: C_5  and  C_6 
REMARK    2  A    between atoms: C_6  and  S_7 
REMARK    3  A    between atoms: S_7  and  C_8 
REMARK    4  A    between atoms: C_10  and  N_11 
REMARK    5  A    between atoms: C_12  and  N_13 
REMARK       I    between atoms: N_13  and  C_14 
REMARK    6  A    between atoms: C_14  and  C_15 
ROOT
HETATM    1  C   UNL     1      25.741  45.349  50.506  1.00  0.00     0.171 C 
HETATM    2  N   UNL     1      24.667  44.969  49.900  1.00  0.00    -0.210 NA
HETATM    3  C   UNL     1      23.737  45.939  49.594  1.00  0.00     0.136 C 
HETATM    4  C   UNL     1      23.967  47.262  49.785  1.00  0.00     0.144 C 
HETATM    5  C   UNL     1      25.366  47.625  50.153  1.00  0.00     0.277 C 
HETATM    6  O   UNL     1      25.921  48.658  49.796  1.00  0.00    -0.266 OA
HETATM    7  N   UNL     1      26.053  46.637  50.783  1.00  0.00    -0.300 N 
HETATM    8  H   UNL     1      27.005  46.840  51.047  1.00  0.00     0.171 HD
ENDROOT
BRANCH   1   9
HETATM    9  S   UNL     1      26.988  44.276  51.050  1.00  0.00    -0.087 SA
BRANCH   9  10
HETATM   10  C   UNL     1      26.946  44.555  52.841  1.00  0.00     0.121 C 
BRANCH  10  11
HETATM   11  C   UNL     1      28.238  44.090  53.486  1.00  0.00    -0.037 A 
HETATM   12  C   UNL     1      28.748  44.657  54.691  1.00  0.00    -0.019 A 
HETATM   13  C   UNL     1      29.980  44.171  55.203  1.00  0.00    -0.025 A 
HETATM   14  C   UNL     1      28.107  45.688  55.418  1.00  0.00     0.013 A 
HETATM   15  C   UNL     1      30.510  44.701  56.392  1.00  0.00     0.012 A 
HETATM   16  C   UNL     1      30.677  43.165  54.520  1.00  0.00     0.012 A 
HETATM   17  C   UNL     1      29.847  45.710  57.087  1.00  0.00     0.001 A 
HETATM   18  C   UNL     1      28.647  46.204  56.598  1.00  0.00     0.001 A 
HETATM   19  C   UNL     1      30.180  42.627  53.338  1.00  0.00     0.001 A 
HETATM   20  C   UNL     1      28.972  43.085  52.825  1.00  0.00     0.009 A 
ENDBRANCH  10  11
ENDBRANCH   9  10
ENDBRANCH   1   9
BRANCH   3  21
HETATM   21  N   UNL     1      22.511  45.505  49.105  1.00  0.00    -0.285 NA
HETATM   22  H   UNL     1      22.685  45.050  48.209  1.00  0.00     0.125 HD
HETATM   23  H   UNL     1      21.886  46.295  48.954  1.00  0.00     0.125 HD
ENDBRANCH   3  21
BRANCH   4  24
HETATM   24  N   UNL     1      22.966  48.202  49.617  1.00  0.00    -0.314 N 
HETATM   25  C   UNL     1      22.810  49.052  48.537  1.00  0.00     0.280 C 
HETATM   26  O   UNL     1      23.577  49.118  47.583  1.00  0.00    -0.265 OA
HETATM   27  H   UNL     1      22.441  48.452  50.449  1.00  0.00     0.169 HD
BRANCH  25  28
HETATM   28  C   UNL     1      21.679  49.949  48.666  1.00  0.00     0.144 A 
HETATM   29  O   UNL     1      20.507  49.496  49.214  1.00  0.00    -0.298 OA
HETATM   30  C   UNL     1      19.648  50.553  49.248  1.00  0.00     0.122 A 
HETATM   31 BR   UNL     1      17.918  50.474  49.941  1.00  0.00    -0.023 Br
HETATM   32  C   UNL     1      20.240  51.673  48.712  1.00  0.00     0.048 A 
HETATM   33  C   UNL     1      21.549  51.287  48.339  1.00  0.00     0.046 A 
ENDBRANCH  25  28
ENDBRANCH   4  24
TORSDOF 6
ENDMDL
MODEL 3
REMARK VINA RESULT:     -10.3      1.811      3.321
REMARK  6 active torsions:
REMARK  status: ('A' for Active; 'I' for Inactive)
REMARK    1  A    between atoms: C_5  and  C_6 
REMARK    2  A    between atoms: C_6  and  S_7 
REMARK    3  A    between atoms: S_7  and  C_8 
REMARK    4  A    between atoms: C_10  and  N_11 
REMARK    5  A    between atoms: C_12  and  N_13 
REMARK       I    between atoms: N_13  and  C_14 
REMARK    6  A    between atoms: C_14  and  C_15 
ROOT
HETATM    1  C   UNL     1      27.279  43.298  51.280  1.00  0.00     0.171 C 
HETATM    2  N   UNL     1      27.727  44.308  50.615  1.00  0.00    -0.210 NA
HETATM    3  C   UNL     1      26.801  45.197  50.116  1.00  0.00     0.136 C 
HETATM    4  C   UNL     1      25.477  45.119  50.405  1.00  0.00     0.144 C 
HETATM    5  C   UNL     1      25.109  44.135  51.464  1.00  0.00     0.277 C 
HETATM    6  O   UNL     1      24.196  44.303  52.266  1.00  0.00    -0.266 OA
HETATM    7  N   UNL     1      25.977  43.098  51.592  1.00  0.00    -0.300 N 
HETATM    8  H   UNL     1      25.766  42.412  52.301  1.00  0.00     0.171 HD
ENDROOT
BRANCH   1   9
HETATM    9  S   UNL     1      28.273  42.029  51.917  1.00  0.00    -0.087 SA
BRANCH   9  10
HETATM   10  C   UNL     1      27.828  42.071  53.674  1.00  0.00     0.121 C 
BRANCH  10  11
HETATM   11  C   UNL     1      28.718  43.041  54.428  1.00  0.00    -0.037 A 
HETATM   12  C   UNL     1      28.333  44.386  54.709  1.00  0.00    -0.019 A 
HETATM   13  C   UNL     1      29.246  45.225  55.400  1.00  0.00    -0.025 A 
HETATM   14  C   UNL     1      27.089  44.950  54.337  1.00  0.00     0.013 A 
HETATM   15  C   UNL     1      28.899  46.553  55.701  1.00  0.00     0.012 A 
HETATM   16  C   UNL     1      30.503  44.734  55.778  1.00  0.00     0.012 A 
HETATM   17  C   UNL     1      27.661  47.074  55.327  1.00  0.00     0.001 A 
HETATM   18  C   UNL     1      26.758  46.273  54.644  1.00  0.00     0.001 A 
HETATM   19  C   UNL     1      30.878  43.427  55.488  1.00  0.00     0.001 A 
HETATM   20  C   UNL     1      29.993  42.588  54.819  1.00  0.00     0.009 A 
ENDBRANCH  10  11
ENDBRANCH   9  10
ENDBRANCH   1   9
BRANCH   3  21
HETATM   21  N   UNL     1      27.271  46.181  49.254  1.00  0.00    -0.285 NA
HETATM   22  H   UNL     1      27.917  46.765  49.783  1.00  0.00     0.125 HD
HETATM   23  H   UNL     1      26.504  46.762  48.921  1.00  0.00     0.125 HD
ENDBRANCH   3  21
BRANCH   4  24
HETATM   24  N   UNL     1      24.548  45.923  49.770  1.00  0.00    -0.314 N 
HETATM   25  C   UNL     1      24.303  47.258  50.034  1.00  0.00     0.280 C 
HETATM   26  O   UNL     1      24.857  47.911  50.912  1.00  0.00    -0.265 OA
HETATM   27  H   UNL     1      23.832  45.445  49.234  1.00  0.00     0.169 HD
BRANCH  25  28
HETATM   28  C   UNL     1      23.243  47.823  49.222  1.00  0.00     0.144 A 
HETATM   29  O   UNL     1      22.819  49.107  49.450  1.00  0.00    -0.298 OA
HETATM   30  C   UNL     1      21.861  49.380  48.522  1.00  0.00     0.122 A 
HETATM   31 BR   UNL     1      20.982  51.019  48.376  1.00  0.00    -0.023 Br
HETATM   32  C   UNL     1      21.644  48.288  47.714  1.00  0.00     0.048 A 
HETATM   33  C   UNL     1      22.536  47.285  48.163  1.00  0.00     0.046 A 
ENDBRANCH  25  28
ENDBRANCH   4  24
TORSDOF 6
ENDMDL
MODEL 4
REMARK VINA RESULT:     -10.3      1.565      2.098
REMARK  6 active torsions:
REMARK  status: ('A' for Active; 'I' for Inactive)
REMARK    1  A    between atoms: C_5  and  C_6 
REMARK    2  A    between atoms: C_6  and  S_7 
REMARK    3  A    between atoms: S_7  and  C_8 
REMARK    4  A    between atoms: C_10  and  N_11 
REMARK    5  A    between atoms: C_12  and  N_13 
REMARK       I    between atoms: N_13  and  C_14 
REMARK    6  A    between atoms: C_14  and  C_15 
ROOT
HETATM    1  C   UNL     1      26.297  44.197  52.229  1.00  0.00     0.171 C 
HETATM    2  N   UNL     1      26.230  44.032  50.951  1.00  0.00    -0.210 NA
HETATM    3  C   UNL     1      25.406  44.882  50.246  1.00  0.00     0.136 C 
HETATM    4  C   UNL     1      24.782  45.943  50.818  1.00  0.00     0.144 C 
HETATM    5  C   UNL     1      25.203  46.259  52.213  1.00  0.00     0.277 C 
HETATM    6  O   UNL     1      25.266  47.396  52.667  1.00  0.00    -0.266 OA
HETATM    7  N   UNL     1      25.684  45.195  52.909  1.00  0.00    -0.300 N 
HETATM    8  H   UNL     1      25.983  45.367  53.856  1.00  0.00     0.171 HD
ENDROOT
BRANCH   1   9
HETATM    9  S   UNL     1      27.206  43.183  53.299  1.00  0.00    -0.087 SA
BRANCH   9  10
HETATM   10  C   UNL     1      28.795  44.056  53.357  1.00  0.00     0.121 C 
BRANCH  10  11
HETATM   11  C   UNL     1      28.935  44.828  54.655  1.00  0.00    -0.037 A 
HETATM   12  C   UNL     1      29.874  44.475  55.668  1.00  0.00    -0.019 A 
HETATM   13  C   UNL     1      29.911  45.245  56.861  1.00  0.00    -0.025 A 
HETATM   14  C   UNL     1      30.780  43.391  55.569  1.00  0.00     0.013 A 
HETATM   15  C   UNL     1      30.829  44.931  57.878  1.00  0.00     0.012 A 
HETATM   16  C   UNL     1      29.027  46.319  57.031  1.00  0.00     0.012 A 
HETATM   17  C   UNL     1      31.713  43.862  57.742  1.00  0.00     0.001 A 
HETATM   18  C   UNL     1      31.686  43.092  56.589  1.00  0.00     0.001 A 
HETATM   19  C   UNL     1      28.104  46.649  56.045  1.00  0.00     0.001 A 
HETATM   20  C   UNL     1      28.057  45.910  54.869  1.00  0.00     0.009 A 
ENDBRANCH  10  11
ENDBRANCH   9  10
ENDBRANCH   1   9
BRANCH   3  21
HETATM   21  N   UNL     1      25.200  44.590  48.903  1.00  0.00    -0.285 NA
HETATM   22  H   UNL     1      25.307  43.582  48.792  1.00  0.00     0.125 HD
HETATM   23  H   UNL     1      25.895  45.058  48.324  1.00  0.00     0.125 HD
ENDBRANCH   3  21
BRANCH   4  24
HETATM   24  N   UNL     1      23.841  46.687  50.130  1.00  0.00    -0.314 N 
HETATM   25  C   UNL     1      24.038  47.930  49.556  1.00  0.00     0.280 C 
HETATM   26  O   UNL     1      25.081  48.571  49.617  1.00  0.00    -0.265 OA
HETATM   27  H   UNL     1      22.873  46.411  50.253  1.00  0.00     0.169 HD
BRANCH  25  28
HETATM   28  C   UNL     1      22.848  48.472  48.928  1.00  0.00     0.144 A 
HETATM   29  O   UNL     1      22.359  49.688  49.329  1.00  0.00    -0.298 OA
HETATM   30  C   UNL     1      21.278  49.960  48.546  1.00  0.00     0.122 A 
HETATM   31 BR   UNL     1      20.267  51.523  48.665  1.00  0.00    -0.023 Br
HETATM   32  C   UNL     1      21.050  48.930  47.663  1.00  0.00     0.048 A 
HETATM   33  C   UNL     1      22.063  47.972  47.906  1.00  0.00     0.046 A 
ENDBRANCH  25  28
ENDBRANCH   4  24
TORSDOF 6
ENDMDL
MODEL 5
REMARK VINA RESULT:     -10.1      2.203      3.983
REMARK  6 active torsions:
REMARK  status: ('A' for Active; 'I' for Inactive)
REMARK    1  A    between atoms: C_5  and  C_6 
REMARK    2  A    between atoms: C_6  and  S_7 
REMARK    3  A    between atoms: S_7  and  C_8 
REMARK    4  A    between atoms: C_10  and  N_11 
REMARK    5  A    between atoms: C_12  and  N_13 
REMARK       I    between atoms: N_13  and  C_14 
REMARK    6  A    between atoms: C_14  and  C_15 
ROOT
HETATM    1  C   UNL     1      27.716  43.036  52.771  1.00  0.00     0.171 C 
HETATM    2  N   UNL     1      26.568  43.308  53.295  1.00  0.00    -0.210 NA
HETATM    3  C   UNL     1      25.708  44.094  52.560  1.00  0.00     0.136 C 
HETATM    4  C   UNL     1      25.969  44.474  51.284  1.00  0.00     0.144 C 
HETATM    5  C   UNL     1      27.147  43.817  50.647  1.00  0.00     0.277 C 
HETATM    6  O   UNL     1      27.209  43.529  49.457  1.00  0.00    -0.266 OA
HETATM    7  N   UNL     1      28.097  43.397  51.524  1.00  0.00    -0.300 N 
HETATM    8  H   UNL     1      28.909  42.944  51.133  1.00  0.00     0.171 HD
ENDROOT
BRANCH   1   9
HETATM    9  S   UNL     1      28.964  42.135  53.566  1.00  0.00    -0.087 SA
BRANCH   9  10
HETATM   10  C   UNL     1      30.275  43.380  53.700  1.00  0.00     0.121 C 
BRANCH  10  11
HETATM   11  C   UNL     1      30.499  43.770  55.149  1.00  0.00    -0.037 A 
HETATM   12  C   UNL     1      29.757  44.803  55.795  1.00  0.00    -0.019 A 
HETATM   13  C   UNL     1      30.058  45.112  57.148  1.00  0.00    -0.025 A 
HETATM   14  C   UNL     1      28.733  45.555  55.171  1.00  0.00     0.013 A 
HETATM   15  C   UNL     1      29.343  46.119  57.820  1.00  0.00     0.012 A 
HETATM   16  C   UNL     1      31.075  44.419  57.818  1.00  0.00     0.012 A 
HETATM   17  C   UNL     1      28.334  46.834  57.177  1.00  0.00     0.001 A 
HETATM   18  C   UNL     1      28.032  46.553  55.853  1.00  0.00     0.001 A 
HETATM   19  C   UNL     1      31.804  43.423  57.177  1.00  0.00     0.001 A 
HETATM   20  C   UNL     1      31.519  43.102  55.854  1.00  0.00     0.009 A 
ENDBRANCH  10  11
ENDBRANCH   9  10
ENDBRANCH   1   9
BRANCH   3  21
HETATM   21  N   UNL     1      24.553  44.530  53.197  1.00  0.00    -0.285 NA
HETATM   22  H   UNL     1      23.795  44.485  52.515  1.00  0.00     0.125 HD
HETATM   23  H   UNL     1      24.656  45.496  53.504  1.00  0.00     0.125 HD
ENDBRANCH   3  21
BRANCH   4  24
HETATM   24  N   UNL     1      25.170  45.388  50.622  1.00  0.00    -0.314 N 
HETATM   25  C   UNL     1      25.256  46.766  50.708  1.00  0.00     0.280 C 
HETATM   26  O   UNL     1      26.040  47.375  51.428  1.00  0.00    -0.265 OA
HETATM   27  H   UNL     1      24.308  45.028  50.227  1.00  0.00     0.169 HD
BRANCH  25  28
HETATM   28  C   UNL     1      24.256  47.458  49.918  1.00  0.00     0.144 A 
HETATM   29  O   UNL     1      24.201  48.828  49.935  1.00  0.00    -0.298 OA
HETATM   30  C   UNL     1      23.209  49.197  49.078  1.00  0.00     0.122 A 
HETATM   31 BR   UNL     1      22.749  50.967  48.710  1.00  0.00    -0.023 Br
HETATM   32  C   UNL     1      22.610  48.089  48.526  1.00  0.00     0.048 A 
HETATM   33  C   UNL     1      23.285  46.967  49.065  1.00  0.00     0.046 A 
ENDBRANCH  25  28
ENDBRANCH   4  24
TORSDOF 6
ENDMDL
MODEL 6
REMARK VINA RESULT:      -9.8      7.109      8.567
REMARK  6 active torsions:
REMARK  status: ('A' for Active; 'I' for Inactive)
REMARK    1  A    between atoms: C_5  and  C_6 
REMARK    2  A    between atoms: C_6  and  S_7 
REMARK    3  A    between atoms: S_7  and  C_8 
REMARK    4  A    between atoms: C_10  and  N_11 
REMARK    5  A    between atoms: C_12  and  N_13 
REMARK       I    between atoms: N_13  and  C_14 
REMARK    6  A    between atoms: C_14  and  C_15 
ROOT
HETATM    1  C   UNL     1      28.144  41.187  51.710  1.00  0.00     0.171 C 
HETATM    2  N   UNL     1      27.494  41.949  50.896  1.00  0.00    -0.210 NA
HETATM    3  C   UNL     1      27.566  41.647  49.554  1.00  0.00     0.136 C 
HETATM    4  C   UNL     1      28.174  40.528  49.084  1.00  0.00     0.144 C 
HETATM    5  C   UNL     1      28.581  39.536  50.120  1.00  0.00     0.277 C 
HETATM    6  O   UNL     1      28.562  38.322  49.950  1.00  0.00    -0.266 OA
HETATM    7  N   UNL     1      28.818  40.071  51.347  1.00  0.00    -0.300 N 
HETATM    8  H   UNL     1      29.092  39.432  52.078  1.00  0.00     0.171 HD
ENDROOT
BRANCH   1   9
HETATM    9  S   UNL     1      28.246  41.447  53.420  1.00  0.00    -0.087 SA
BRANCH   9  10
HETATM   10  C   UNL     1      29.697  42.529  53.532  1.00  0.00     0.121 C 
BRANCH  10  11
HETATM   11  C   UNL     1      29.387  43.757  54.367  1.00  0.00    -0.037 A 
HETATM   12  C   UNL     1      30.061  44.051  55.589  1.00  0.00    -0.019 A 
HETATM   13  C   UNL     1      29.681  45.212  56.313  1.00  0.00    -0.025 A 
HETATM   14  C   UNL     1      31.092  43.252  56.141  1.00  0.00     0.013 A 
HETATM   15  C   UNL     1      30.328  45.538  57.518  1.00  0.00     0.012 A 
HETATM   16  C   UNL     1      28.653  46.034  55.833  1.00  0.00     0.012 A 
HETATM   17  C   UNL     1      31.346  44.734  58.027  1.00  0.00     0.001 A 
HETATM   18  C   UNL     1      31.725  43.590  57.339  1.00  0.00     0.001 A 
HETATM   19  C   UNL     1      27.990  45.733  54.649  1.00  0.00     0.001 A 
HETATM   20  C   UNL     1      28.353  44.605  53.923  1.00  0.00     0.009 A 
ENDBRANCH  10  11
ENDBRANCH   9  10
ENDBRANCH   1   9
BRANCH   3  21
HETATM   21  N   UNL     1      27.015  42.567  48.669  1.00  0.00    -0.285 NA
HETATM   22  H   UNL     1      26.018  42.362  48.600  1.00  0.00     0.125 HD
HETATM   23  H   UNL     1      27.433  42.469  47.746  1.00  0.00     0.125 HD
ENDBRANCH   3  21
BRANCH   4  24
HETATM   24  N   UNL     1      28.371  40.325  47.730  1.00  0.00    -0.314 N 
HETATM   25  C   UNL     1      27.552  39.604  46.881  1.00  0.00     0.280 C 
HETATM   26  O   UNL     1      26.543  39.000  47.228  1.00  0.00    -0.265 OA
HETATM   27  H   UNL     1      29.302  40.520  47.378  1.00  0.00     0.169 HD
BRANCH  25  28
HETATM   28  C   UNL     1      28.042  39.544  45.518  1.00  0.00     0.144 A 
HETATM   29  O   UNL     1      28.373  38.334  44.964  1.00  0.00    -0.298 OA
HETATM   30  C   UNL     1      28.753  38.575  43.679  1.00  0.00     0.122 A 
HETATM   31 BR   UNL     1      29.270  37.248  42.474  1.00  0.00    -0.023 Br
HETATM   32  C   UNL     1      28.693  39.921  43.401  1.00  0.00     0.048 A 
HETATM   33  C   UNL     1      28.232  40.546  44.585  1.00  0.00     0.046 A 
ENDBRANCH  25  28
ENDBRANCH   4  24
TORSDOF 6
ENDMDL
MODEL 7
REMARK VINA RESULT:      -9.7      3.851      4.415
REMARK  6 active torsions:
REMARK  status: ('A' for Active; 'I' for Inactive)
REMARK    1  A    between atoms: C_5  and  C_6 
REMARK    2  A    between atoms: C_6  and  S_7 
REMARK    3  A    between atoms: S_7  and  C_8 
REMARK    4  A    between atoms: C_10  and  N_11 
REMARK    5  A    between atoms: C_12  and  N_13 
REMARK       I    between atoms: N_13  and  C_14 
REMARK    6  A    between atoms: C_14  and  C_15 
ROOT
HETATM    1  C   UNL     1      27.064  42.588  52.117  1.00  0.00     0.171 C 
HETATM    2  N   UNL     1      27.387  42.486  50.872  1.00  0.00    -0.210 NA
HETATM    3  C   UNL     1      26.476  42.939  49.944  1.00  0.00     0.136 C 
HETATM    4  C   UNL     1      25.338  43.591  50.289  1.00  0.00     0.144 C 
HETATM    5  C   UNL     1      25.229  43.975  51.726  1.00  0.00     0.277 C 
HETATM    6  O   UNL     1      24.683  44.999  52.121  1.00  0.00    -0.266 OA
HETATM    7  N   UNL     1      25.937  43.183  52.574  1.00  0.00    -0.300 N 
HETATM    8  H   UNL     1      25.893  43.411  53.555  1.00  0.00     0.171 HD
ENDROOT
BRANCH   1   9
HETATM    9  S   UNL     1      28.033  42.003  53.429  1.00  0.00    -0.087 SA
BRANCH   9  10
HETATM   10  C   UNL     1      29.429  43.160  53.388  1.00  0.00     0.121 C 
BRANCH  10  11
HETATM   11  C   UNL     1      29.266  44.234  54.447  1.00  0.00    -0.037 A 
HETATM   12  C   UNL     1      30.037  44.261  55.647  1.00  0.00    -0.019 A 
HETATM   13  C   UNL     1      29.793  45.294  56.590  1.00  0.00    -0.025 A 
HETATM   14  C   UNL     1      31.038  43.312  55.969  1.00  0.00     0.013 A 
HETATM   15  C   UNL     1      30.539  45.356  57.780  1.00  0.00     0.012 A 
HETATM   16  C   UNL     1      28.802  46.252  56.341  1.00  0.00     0.012 A 
HETATM   17  C   UNL     1      31.523  44.411  58.061  1.00  0.00     0.001 A 
HETATM   18  C   UNL     1      31.771  43.388  57.157  1.00  0.00     0.001 A 
HETATM   19  C   UNL     1      28.044  46.211  55.176  1.00  0.00     0.001 A 
HETATM   20  C   UNL     1      28.273  45.211  54.238  1.00  0.00     0.009 A 
ENDBRANCH  10  11
ENDBRANCH   9  10
ENDBRANCH   1   9
BRANCH   3  21
HETATM   21  N   UNL     1      26.748  42.666  48.608  1.00  0.00    -0.285 NA
HETATM   22  H   UNL     1      27.762  42.627  48.507  1.00  0.00     0.125 HD
HETATM   23  H   UNL     1      26.388  43.408  48.011  1.00  0.00     0.125 HD
ENDBRANCH   3  21
BRANCH   4  24
HETATM   24  N   UNL     1      24.366  43.897  49.354  1.00  0.00    -0.314 N 
HETATM   25  C   UNL     1      23.029  43.548  49.416  1.00  0.00     0.280 C 
HETATM   26  O   UNL     1      22.522  42.871  50.305  1.00  0.00    -0.265 OA
HETATM   27  H   UNL     1      24.697  44.196  48.443  1.00  0.00     0.169 HD
BRANCH  25  28
HETATM   28  C   UNL     1      22.263  43.986  48.265  1.00  0.00     0.144 A 
HETATM   29  O   UNL     1      21.533  43.077  47.544  1.00  0.00    -0.298 OA
HETATM   30  C   UNL     1      20.890  43.769  46.564  1.00  0.00     0.122 A 
HETATM   31 BR   UNL     1      19.732  42.996  45.324  1.00  0.00    -0.023 Br
HETATM   32  C   UNL     1      21.210  45.106  46.628  1.00  0.00     0.048 A 
HETATM   33  C   UNL     1      22.092  45.247  47.725  1.00  0.00     0.046 A 
ENDBRANCH  25  28
ENDBRANCH   4  24
TORSDOF 6
ENDMDL
MODEL 8
REMARK VINA RESULT:      -9.3      1.909      2.496
REMARK  6 active torsions:
REMARK  status: ('A' for Active; 'I' for Inactive)
REMARK    1  A    between atoms: C_5  and  C_6 
REMARK    2  A    between atoms: C_6  and  S_7 
REMARK    3  A    between atoms: S_7  and  C_8 
REMARK    4  A    between atoms: C_10  and  N_11 
REMARK    5  A    between atoms: C_12  and  N_13 
REMARK       I    between atoms: N_13  and  C_14 
REMARK    6  A    between atoms: C_14  and  C_15 
ROOT
HETATM    1  C   UNL     1      25.475  45.231  49.595  1.00  0.00     0.171 C 
HETATM    2  N   UNL     1      25.494  46.462  49.980  1.00  0.00    -0.210 NA
HETATM    3  C   UNL     1      24.364  47.215  49.748  1.00  0.00     0.136 C 
HETATM    4  C   UNL     1      23.215  46.684  49.260  1.00  0.00     0.144 C 
HETATM    5  C   UNL     1      23.178  45.194  49.184  1.00  0.00     0.277 C 
HETATM    6  O   UNL     1      22.168  44.525  49.369  1.00  0.00    -0.266 OA
HETATM    7  N   UNL     1      24.398  44.609  49.059  1.00  0.00    -0.300 N 
HETATM    8  H   UNL     1      24.417  43.602  49.008  1.00  0.00     0.171 HD
ENDROOT
BRANCH   1   9
HETATM    9  S   UNL     1      26.820  44.146  49.721  1.00  0.00    -0.087 SA
BRANCH   9  10
HETATM   10  C   UNL     1      26.319  43.113  51.124  1.00  0.00     0.121 C 
BRANCH  10  11
HETATM   11  C   UNL     1      26.701  43.770  52.437  1.00  0.00    -0.037 A 
HETATM   12  C   UNL     1      27.971  43.577  53.058  1.00  0.00    -0.019 A 
HETATM   13  C   UNL     1      28.225  44.215  54.300  1.00  0.00    -0.025 A 
HETATM   14  C   UNL     1      29.006  42.776  52.517  1.00  0.00     0.013 A 
HETATM   15  C   UNL     1      29.467  44.053  54.938  1.00  0.00     0.012 A 
HETATM   16  C   UNL     1      27.235  45.004  54.900  1.00  0.00     0.012 A 
HETATM   17  C   UNL     1      30.468  43.265  54.372  1.00  0.00     0.001 A 
HETATM   18  C   UNL     1      30.235  42.625  53.163  1.00  0.00     0.001 A 
HETATM   19  C   UNL     1      25.994  45.177  54.297  1.00  0.00     0.001 A 
HETATM   20  C   UNL     1      25.730  44.565  53.077  1.00  0.00     0.009 A 
ENDBRANCH  10  11
ENDBRANCH   9  10
ENDBRANCH   1   9
BRANCH   3  21
HETATM   21  N   UNL     1      24.452  48.579  50.000  1.00  0.00    -0.285 NA
HETATM   22  H   UNL     1      24.500  48.698  51.012  1.00  0.00     0.125 HD
HETATM   23  H   UNL     1      23.624  49.061  49.654  1.00  0.00     0.125 HD
ENDBRANCH   3  21
BRANCH   4  24
HETATM   24  N   UNL     1      22.149  47.482  48.888  1.00  0.00    -0.314 N 
HETATM   25  C   UNL     1      21.589  47.570  47.626  1.00  0.00     0.280 C 
HETATM   26  O   UNL     1      21.998  46.972  46.637  1.00  0.00    -0.265 OA
HETATM   27  H   UNL     1      21.905  48.232  49.527  1.00  0.00     0.169 HD
BRANCH  25  28
HETATM   28  C   UNL     1      20.499  48.521  47.542  1.00  0.00     0.144 A 
HETATM   29  O   UNL     1      20.612  49.746  48.149  1.00  0.00    -0.298 OA
HETATM   30  C   UNL     1      19.472  50.436  47.869  1.00  0.00     0.122 A 
HETATM   31 BR   UNL     1      19.140  52.182  48.436  1.00  0.00    -0.023 Br
HETATM   32  C   UNL     1      18.617  49.670  47.110  1.00  0.00     0.048 A 
HETATM   33  C   UNL     1      19.279  48.437  46.897  1.00  0.00     0.046 A 
ENDBRANCH  25  28
ENDBRANCH   4  24
TORSDOF 6
ENDMDL
MODEL 9
REMARK VINA RESULT:      -9.3      4.096      9.696
REMARK  6 active torsions:
REMARK  status: ('A' for Active; 'I' for Inactive)
REMARK    1  A    between atoms: C_5  and  C_6 
REMARK    2  A    between atoms: C_6  and  S_7 
REMARK    3  A    between atoms: S_7  and  C_8 
REMARK    4  A    between atoms: C_10  and  N_11 
REMARK    5  A    between atoms: C_12  and  N_13 
REMARK       I    between atoms: N_13  and  C_14 
REMARK    6  A    between atoms: C_14  and  C_15 
ROOT
HETATM    1  C   UNL     1      24.209  45.308  50.329  1.00  0.00     0.171 C 
HETATM    2  N   UNL     1      24.003  44.591  51.382  1.00  0.00    -0.210 NA
HETATM    3  C   UNL     1      24.921  44.692  52.404  1.00  0.00     0.136 C 
HETATM    4  C   UNL     1      25.935  45.593  52.395  1.00  0.00     0.144 C 
HETATM    5  C   UNL     1      25.878  46.612  51.307  1.00  0.00     0.277 C 
HETATM    6  O   UNL     1      26.255  47.772  51.436  1.00  0.00    -0.266 OA
HETATM    7  N   UNL     1      25.211  46.208  50.194  1.00  0.00    -0.300 N 
HETATM    8  H   UNL     1      25.146  46.870  49.437  1.00  0.00     0.171 HD
ENDROOT
BRANCH   1   9
HETATM    9  S   UNL     1      23.220  45.261  48.907  1.00  0.00    -0.087 SA
BRANCH   9  10
HETATM   10  C   UNL     1      23.080  47.025  48.510  1.00  0.00     0.121 C 
BRANCH  10  11
HETATM   11  C   UNL     1      21.627  47.461  48.513  1.00  0.00    -0.037 A 
HETATM   12  C   UNL     1      21.230  48.831  48.527  1.00  0.00    -0.019 A 
HETATM   13  C   UNL     1      19.845  49.138  48.556  1.00  0.00    -0.025 A 
HETATM   14  C   UNL     1      22.135  49.920  48.521  1.00  0.00     0.013 A 
HETATM   15  C   UNL     1      19.417  50.477  48.563  1.00  0.00     0.012 A 
HETATM   16  C   UNL     1      18.897  48.107  48.584  1.00  0.00     0.012 A 
HETATM   17  C   UNL     1      20.335  51.525  48.547  1.00  0.00     0.001 A 
HETATM   18  C   UNL     1      21.694  51.246  48.529  1.00  0.00     0.001 A 
HETATM   19  C   UNL     1      19.291  46.773  48.585  1.00  0.00     0.001 A 
HETATM   20  C   UNL     1      20.643  46.453  48.550  1.00  0.00     0.009 A 
ENDBRANCH  10  11
ENDBRANCH   9  10
ENDBRANCH   1   9
BRANCH   3  21
HETATM   21  N   UNL     1      24.795  43.792  53.456  1.00  0.00    -0.285 NA
HETATM   22  H   UNL     1      23.815  43.516  53.504  1.00  0.00     0.125 HD
HETATM   23  H   UNL     1      25.053  44.233  54.337  1.00  0.00     0.125 HD
ENDBRANCH   3  21
BRANCH   4  24
HETATM   24  N   UNL     1      26.933  45.571  53.353  1.00  0.00    -0.314 N 
HETATM   25  C   UNL     1      27.934  44.625  53.474  1.00  0.00     0.280 C 
HETATM   26  O   UNL     1      28.050  43.634  52.760  1.00  0.00    -0.265 OA
HETATM   27  H   UNL     1      26.786  46.159  54.167  1.00  0.00     0.169 HD
BRANCH  25  28
HETATM   28  C   UNL     1      28.815  44.856  54.602  1.00  0.00     0.144 A 
HETATM   29  O   UNL     1      29.624  43.845  55.054  1.00  0.00    -0.298 OA
HETATM   30  C   UNL     1      30.363  44.355  56.078  1.00  0.00     0.122 A 
HETATM   31 BR   UNL     1      31.652  43.391  57.020  1.00  0.00    -0.023 Br
HETATM   32  C   UNL     1      30.029  45.670  56.307  1.00  0.00     0.048 A 
HETATM   33  C   UNL     1      29.033  45.995  55.355  1.00  0.00     0.046 A 
ENDBRANCH  25  28
ENDBRANCH   4  24
TORSDOF 6
ENDMDL
MODEL 10
REMARK VINA RESULT:      -9.3      3.616      9.489
REMARK  6 active torsions:
REMARK  status: ('A' for Active; 'I' for Inactive)
REMARK    1  A    between atoms: C_5  and  C_6 
REMARK    2  A    between atoms: C_6  and  S_7 
REMARK    3  A    between atoms: S_7  and  C_8 
REMARK    4  A    between atoms: C_10  and  N_11 
REMARK    5  A    between atoms: C_12  and  N_13 
REMARK       I    between atoms: N_13  and  C_14 
REMARK    6  A    between atoms: C_14  and  C_15 
ROOT
HETATM    1  C   UNL     1      23.512  45.664  49.347  1.00  0.00     0.171 C 
HETATM    2  N   UNL     1      23.455  44.556  50.007  1.00  0.00    -0.210 NA
HETATM    3  C   UNL     1      24.416  44.343  50.971  1.00  0.00     0.136 C 
HETATM    4  C   UNL     1      25.318  45.291  51.330  1.00  0.00     0.144 C 
HETATM    5  C   UNL     1      25.078  46.652  50.768  1.00  0.00     0.277 C 
HETATM    6  O   UNL     1      25.327  47.692  51.367  1.00  0.00    -0.266 OA
HETATM    7  N   UNL     1      24.395  46.661  49.593  1.00  0.00    -0.300 N 
HETATM    8  H   UNL     1      24.208  47.562  49.181  1.00  0.00     0.171 HD
ENDROOT
BRANCH   1   9
HETATM    9  S   UNL     1      22.450  46.081  48.044  1.00  0.00    -0.087 SA
BRANCH   9  10
HETATM   10  C   UNL     1      21.173  47.031  48.912  1.00  0.00     0.121 C 
BRANCH  10  11
HETATM   11  C   UNL     1      21.363  48.519  48.684  1.00  0.00    -0.037 A 
HETATM   12  C   UNL     1      20.396  49.492  49.075  1.00  0.00    -0.019 A 
HETATM   13  C   UNL     1      20.655  50.859  48.795  1.00  0.00    -0.025 A 
HETATM   14  C   UNL     1      19.177  49.183  49.725  1.00  0.00     0.013 A 
HETATM   15  C   UNL     1      19.728  51.846  49.171  1.00  0.00     0.012 A 
HETATM   16  C   UNL     1      21.834  51.230  48.134  1.00  0.00     0.012 A 
HETATM   17  C   UNL     1      18.541  51.508  49.819  1.00  0.00     0.001 A 
HETATM   18  C   UNL     1      18.265  50.176  50.093  1.00  0.00     0.001 A 
HETATM   19  C   UNL     1      22.766  50.275  47.743  1.00  0.00     0.001 A 
HETATM   20  C   UNL     1      22.533  48.932  48.015  1.00  0.00     0.009 A 
ENDBRANCH  10  11
ENDBRANCH   9  10
ENDBRANCH   1   9
BRANCH   3  21
HETATM   21  N   UNL     1      24.458  43.082  51.552  1.00  0.00    -0.285 NA
HETATM   22  H   UNL     1      24.658  43.210  52.543  1.00  0.00     0.125 HD
HETATM   23  H   UNL     1      25.202  42.522  51.139  1.00  0.00     0.125 HD
ENDBRANCH   3  21
BRANCH   4  24
HETATM   24  N   UNL     1      26.368  45.005  52.183  1.00  0.00    -0.314 N 
HETATM   25  C   UNL     1      26.386  45.192  53.554  1.00  0.00     0.280 C 
HETATM   26  O   UNL     1      25.472  45.686  54.204  1.00  0.00    -0.265 OA
HETATM   27  H   UNL     1      27.274  44.866  51.749  1.00  0.00     0.169 HD
BRANCH  25  28
HETATM   28  C   UNL     1      27.646  44.826  54.171  1.00  0.00     0.144 A 
HETATM   29  O   UNL     1      28.123  45.551  55.232  1.00  0.00    -0.298 OA
HETATM   30  C   UNL     1      29.283  44.960  55.630  1.00  0.00     0.122 A 
HETATM   31 BR   UNL     1      30.316  45.544  57.069  1.00  0.00    -0.023 Br
HETATM   32  C   UNL     1      29.574  43.879  54.829  1.00  0.00     0.048 A 
HETATM   33  C   UNL     1      28.518  43.790  53.890  1.00  0.00     0.046 A 
ENDBRANCH  25  28
ENDBRANCH   4  24
TORSDOF 6
ENDMDL
