MODEL 1
REMARK VINA RESULT:      -8.5      0.000      0.000
REMARK  6 active torsions:
REMARK  status: ('A' for Active; 'I' for Inactive)
REMARK    1  A    between atoms: C_8  and  C_9 
REMARK    2  A    between atoms: C_9  and  C_10 
REMARK       I    between atoms: C_10  and  N_11 
REMARK    3  A    between atoms: N_11  and  C_12 
REMARK    4  A    between atoms: C_12  and  C_13 
REMARK    5  A    between atoms: C_13  and  N_14 
REMARK    6  A    between atoms: C_13  and  C_20 
ROOT
HETATM    1  C   UNL     1      25.970  46.806  51.987  1.00  0.00     0.160 C 
ENDROOT
BRANCH   1   2
HETATM    2  N   UNL     1      26.451  45.803  52.933  1.00  0.00    -0.358 N 
HETATM    3  C   UNL     1      27.086  46.177  54.106  1.00  0.00     0.226 C 
HETATM    4  O   UNL     1      27.497  47.324  54.269  1.00  0.00    -0.273 OA
HETATM    5  H   UNL     1      25.871  44.972  53.021  1.00  0.00     0.162 HD
BRANCH   3   6
HETATM    6  C   UNL     1      27.281  45.038  55.114  1.00  0.00     0.111 C 
HETATM    7  C   UNL     1      26.316  43.893  54.821  1.00  0.00     0.025 C 
BRANCH   6   8
HETATM    8  C   UNL     1      28.718  44.603  55.151  1.00  0.00     0.004 A 
HETATM    9  C   UNL     1      29.399  43.730  54.315  1.00  0.00     0.033 A 
HETATM   10  C   UNL     1      28.989  42.942  53.126  1.00  0.00     0.070 C 
HETATM   11  N   UNL     1      30.681  43.675  54.788  1.00  0.00    -0.282 N 
HETATM   12  H   UNL     1      31.458  43.126  54.434  1.00  0.00     0.189 HD
HETATM   13  N   UNL     1      30.894  44.462  55.846  1.00  0.00    -0.179 NA
HETATM   14  C   UNL     1      29.704  45.010  56.100  1.00  0.00     0.060 A 
HETATM   15  C   UNL     1      29.555  45.927  57.260  1.00  0.00     0.073 C 
ENDBRANCH   6   8
ENDBRANCH   3   6
ENDBRANCH   1   2
BRANCH   1  16
HETATM   16  C   UNL     1      26.294  46.617  50.465  1.00  0.00     0.238 C 
BRANCH  16  17
HETATM   17  N   UNL     1      25.531  45.477  49.775  1.00  0.00    -0.061 N 
HETATM   18  H   UNL     1      25.347  45.850  48.835  1.00  0.00     0.280 HD
HETATM   19  C   UNL     1      24.191  45.069  50.326  1.00  0.00     0.236 C 
HETATM   20  C   UNL     1      24.436  43.712  50.946  1.00  0.00     0.029 C 
HETATM   21  C   UNL     1      25.437  43.073  50.007  1.00  0.00     0.029 C 
HETATM   22  C   UNL     1      26.332  44.210  49.547  1.00  0.00     0.236 C 
ENDBRANCH  16  17
BRANCH  16  23
HETATM   23  C   UNL     1      26.120  47.911  49.667  1.00  0.00    -0.024 A 
HETATM   24  C   UNL     1      24.864  48.371  49.235  1.00  0.00     0.033 A 
HETATM   25  C   UNL     1      24.759  49.542  48.478  1.00  0.00     0.034 A 
HETATM   26 CL   UNL     1      23.208  50.071  47.955  1.00  0.00    -0.084 Cl
HETATM   27  C   UNL     1      25.891  50.273  48.140  1.00  0.00     0.024 A 
HETATM   28  C   UNL     1      27.144  49.829  48.559  1.00  0.00     0.002 A 
HETATM   29  C   UNL     1      27.259  48.658  49.312  1.00  0.00     0.009 A 
ENDBRANCH  16  23
ENDBRANCH   1  16
TORSDOF 6
ENDMDL
MODEL 2
REMARK VINA RESULT:      -8.3      1.306      2.000
REMARK  6 active torsions:
REMARK  status: ('A' for Active; 'I' for Inactive)
REMARK    1  A    between atoms: C_8  and  C_9 
REMARK    2  A    between atoms: C_9  and  C_10 
REMARK       I    between atoms: C_10  and  N_11 
REMARK    3  A    between atoms: N_11  and  C_12 
REMARK    4  A    between atoms: C_12  and  C_13 
REMARK    5  A    between atoms: C_13  and  N_14 
REMARK    6  A    between atoms: C_13  and  C_20 
ROOT
HETATM    1  C   UNL     1      26.056  47.094  52.107  1.00  0.00     0.160 C 
ENDROOT
BRANCH   1   2
HETATM    2  N   UNL     1      27.125  46.463  52.876  1.00  0.00    -0.358 N 
HETATM    3  C   UNL     1      27.201  46.619  54.251  1.00  0.00     0.226 C 
HETATM    4  O   UNL     1      26.549  47.485  54.829  1.00  0.00    -0.273 OA
HETATM    5  H   UNL     1      27.420  45.547  52.545  1.00  0.00     0.162 HD
BRANCH   3   6
HETATM    6  C   UNL     1      28.200  45.683  54.942  1.00  0.00     0.111 C 
HETATM    7  C   UNL     1      28.257  45.972  56.440  1.00  0.00     0.025 C 
BRANCH   6   8
HETATM    8  C   UNL     1      27.884  44.249  54.631  1.00  0.00     0.004 A 
HETATM    9  C   UNL     1      26.659  43.599  54.603  1.00  0.00     0.033 A 
HETATM   10  C   UNL     1      25.268  44.054  54.850  1.00  0.00     0.070 C 
HETATM   11  N   UNL     1      26.926  42.299  54.272  1.00  0.00    -0.282 N 
HETATM   12  H   UNL     1      26.272  41.529  54.172  1.00  0.00     0.189 HD
HETATM   13  N   UNL     1      28.222  42.059  54.056  1.00  0.00    -0.179 NA
HETATM   14  C   UNL     1      28.824  43.225  54.301  1.00  0.00     0.060 A 
HETATM   15  C   UNL     1      30.303  43.319  54.198  1.00  0.00     0.073 C 
ENDBRANCH   6   8
ENDBRANCH   3   6
ENDBRANCH   1   2
BRANCH   1  16
HETATM   16  C   UNL     1      25.901  46.719  50.592  1.00  0.00     0.238 C 
BRANCH  16  17
HETATM   17  N   UNL     1      24.788  45.706  50.284  1.00  0.00    -0.061 N 
HETATM   18  H   UNL     1      24.003  46.300  49.989  1.00  0.00     0.280 HD
HETATM   19  C   UNL     1      24.261  44.852  51.405  1.00  0.00     0.236 C 
HETATM   20  C   UNL     1      24.774  43.464  51.094  1.00  0.00     0.029 C 
HETATM   21  C   UNL     1      24.704  43.395  49.583  1.00  0.00     0.029 C 
HETATM   22  C   UNL     1      25.058  44.792  49.106  1.00  0.00     0.236 C 
ENDBRANCH  16  17
BRANCH  16  23
HETATM   23  C   UNL     1      25.737  47.952  49.702  1.00  0.00    -0.024 A 
HETATM   24  C   UNL     1      24.483  48.397  49.246  1.00  0.00     0.033 A 
HETATM   25  C   UNL     1      24.387  49.508  48.404  1.00  0.00     0.034 A 
HETATM   26 CL   UNL     1      22.838  50.018  47.856  1.00  0.00    -0.084 Cl
HETATM   27  C   UNL     1      25.526  50.197  48.003  1.00  0.00     0.024 A 
HETATM   28  C   UNL     1      26.776  49.768  48.445  1.00  0.00     0.002 A 
HETATM   29  C   UNL     1      26.882  48.654  49.282  1.00  0.00     0.009 A 
ENDBRANCH  16  23
ENDBRANCH   1  16
TORSDOF 6
ENDMDL
MODEL 3
REMARK VINA RESULT:      -8.1      3.506      7.306
REMARK  6 active torsions:
REMARK  status: ('A' for Active; 'I' for Inactive)
REMARK    1  A    between atoms: C_8  and  C_9 
REMARK    2  A    between atoms: C_9  and  C_10 
REMARK       I    between atoms: C_10  and  N_11 
REMARK    3  A    between atoms: N_11  and  C_12 
REMARK    4  A    between atoms: C_12  and  C_13 
REMARK    5  A    between atoms: C_13  and  N_14 
REMARK    6  A    between atoms: C_13  and  C_20 
ROOT
HETATM    1  C   UNL     1      26.840  44.089  49.582  1.00  0.00     0.160 C 
ENDROOT
BRANCH   1   2
HETATM    2  N   UNL     1      26.473  45.470  49.885  1.00  0.00    -0.358 N 
HETATM    3  C   UNL     1      25.177  45.922  49.689  1.00  0.00     0.226 C 
HETATM    4  O   UNL     1      24.373  45.276  49.022  1.00  0.00    -0.273 OA
HETATM    5  H   UNL     1      26.938  45.878  50.692  1.00  0.00     0.162 HD
BRANCH   3   6
HETATM    6  C   UNL     1      24.883  47.294  50.307  1.00  0.00     0.111 C 
HETATM    7  C   UNL     1      25.729  47.510  51.560  1.00  0.00     0.025 C 
BRANCH   6   8
HETATM    8  C   UNL     1      25.054  48.382  49.287  1.00  0.00     0.004 A 
HETATM    9  C   UNL     1      26.210  49.010  48.849  1.00  0.00     0.033 A 
HETATM   10  C   UNL     1      27.644  48.848  49.199  1.00  0.00     0.070 C 
HETATM   11  N   UNL     1      25.813  49.931  47.919  1.00  0.00    -0.282 N 
HETATM   12  H   UNL     1      26.388  50.585  47.396  1.00  0.00     0.189 HD
HETATM   13  N   UNL     1      24.495  49.933  47.699  1.00  0.00    -0.179 NA
HETATM   14  C   UNL     1      24.013  49.020  48.544  1.00  0.00     0.060 A 
HETATM   15  C   UNL     1      22.548  48.782  48.604  1.00  0.00     0.073 C 
ENDBRANCH   6   8
ENDBRANCH   3   6
ENDBRANCH   1   2
BRANCH   1  16
HETATM   16  C   UNL     1      26.551  42.984  50.655  1.00  0.00     0.238 C 
BRANCH  16  17
HETATM   17  N   UNL     1      27.244  41.637  50.403  1.00  0.00    -0.061 N 
HETATM   18  H   UNL     1      28.113  41.713  50.946  1.00  0.00     0.280 HD
HETATM   19  C   UNL     1      27.663  41.293  48.999  1.00  0.00     0.236 C 
HETATM   20  C   UNL     1      26.715  40.192  48.582  1.00  0.00     0.029 C 
HETATM   21  C   UNL     1      26.518  39.397  49.856  1.00  0.00     0.029 C 
HETATM   22  C   UNL     1      26.527  40.428  50.971  1.00  0.00     0.236 C 
ENDBRANCH  16  17
BRANCH  16  23
HETATM   23  C   UNL     1      26.850  43.461  52.077  1.00  0.00    -0.024 A 
HETATM   24  C   UNL     1      28.129  43.369  52.653  1.00  0.00     0.033 A 
HETATM   25  C   UNL     1      28.347  43.785  53.970  1.00  0.00     0.034 A 
HETATM   26 CL   UNL     1      29.922  43.649  54.647  1.00  0.00    -0.084 Cl
HETATM   27  C   UNL     1      27.305  44.299  54.733  1.00  0.00     0.024 A 
HETATM   28  C   UNL     1      26.031  44.395  54.178  1.00  0.00     0.002 A 
HETATM   29  C   UNL     1      25.804  43.976  52.864  1.00  0.00     0.009 A 
ENDBRANCH  16  23
ENDBRANCH   1  16
TORSDOF 6
ENDMDL
MODEL 4
REMARK VINA RESULT:      -8.0      2.347      3.362
REMARK  6 active torsions:
REMARK  status: ('A' for Active; 'I' for Inactive)
REMARK    1  A    between atoms: C_8  and  C_9 
REMARK    2  A    between atoms: C_9  and  C_10 
REMARK       I    between atoms: C_10  and  N_11 
REMARK    3  A    between atoms: N_11  and  C_12 
REMARK    4  A    between atoms: C_12  and  C_13 
REMARK    5  A    between atoms: C_13  and  N_14 
REMARK    6  A    between atoms: C_13  and  C_20 
ROOT
HETATM    1  C   UNL     1      26.692  42.650  51.788  1.00  0.00     0.160 C 
ENDROOT
BRANCH   1   2
HETATM    2  N   UNL     1      27.950  42.960  52.462  1.00  0.00    -0.358 N 
HETATM    3  C   UNL     1      28.070  42.834  53.838  1.00  0.00     0.226 C 
HETATM    4  O   UNL     1      27.079  42.717  54.554  1.00  0.00    -0.273 OA
HETATM    5  H   UNL     1      28.793  42.719  51.948  1.00  0.00     0.162 HD
BRANCH   3   6
HETATM    6  C   UNL     1      29.509  42.925  54.360  1.00  0.00     0.111 C 
HETATM    7  C   UNL     1      30.502  42.890  53.201  1.00  0.00     0.025 C 
BRANCH   6   8
HETATM    8  C   UNL     1      29.677  44.126  55.245  1.00  0.00     0.004 A 
HETATM    9  C   UNL     1      29.027  45.350  55.206  1.00  0.00     0.033 A 
HETATM   10  C   UNL     1      27.970  45.906  54.325  1.00  0.00     0.070 C 
HETATM   11  N   UNL     1      29.555  46.093  56.225  1.00  0.00    -0.282 N 
HETATM   12  H   UNL     1      29.331  47.047  56.491  1.00  0.00     0.189 HD
HETATM   13  N   UNL     1      30.476  45.439  56.940  1.00  0.00    -0.179 NA
HETATM   14  C   UNL     1      30.586  44.253  56.339  1.00  0.00     0.060 A 
HETATM   15  C   UNL     1      31.570  43.264  56.851  1.00  0.00     0.073 C 
ENDBRANCH   6   8
ENDBRANCH   3   6
ENDBRANCH   1   2
BRANCH   1  16
HETATM   16  C   UNL     1      26.372  43.370  50.433  1.00  0.00     0.238 C 
BRANCH  16  17
HETATM   17  N   UNL     1      25.143  42.833  49.685  1.00  0.00    -0.061 N 
HETATM   18  H   UNL     1      25.481  41.952  49.277  1.00  0.00     0.280 HD
HETATM   19  C   UNL     1      24.590  43.633  48.537  1.00  0.00     0.236 C 
HETATM   20  C   UNL     1      23.279  44.179  49.055  1.00  0.00     0.029 C 
HETATM   21  C   UNL     1      22.747  43.054  49.918  1.00  0.00     0.029 C 
HETATM   22  C   UNL     1      23.975  42.438  50.567  1.00  0.00     0.236 C 
ENDBRANCH  16  17
BRANCH  16  23
HETATM   23  C   UNL     1      26.255  44.887  50.593  1.00  0.00    -0.024 A 
HETATM   24  C   UNL     1      26.946  45.792  49.769  1.00  0.00     0.033 A 
HETATM   25  C   UNL     1      26.836  47.170  49.977  1.00  0.00     0.034 A 
HETATM   26 CL   UNL     1      27.704  48.249  48.957  1.00  0.00    -0.084 Cl
HETATM   27  C   UNL     1      26.040  47.672  51.000  1.00  0.00     0.024 A 
HETATM   28  C   UNL     1      25.350  46.789  51.827  1.00  0.00     0.002 A 
HETATM   29  C   UNL     1      25.458  45.410  51.629  1.00  0.00     0.009 A 
ENDBRANCH  16  23
ENDBRANCH   1  16
TORSDOF 6
ENDMDL
MODEL 5
REMARK VINA RESULT:      -8.0      4.823      7.669
REMARK  6 active torsions:
REMARK  status: ('A' for Active; 'I' for Inactive)
REMARK    1  A    between atoms: C_8  and  C_9 
REMARK    2  A    between atoms: C_9  and  C_10 
REMARK       I    between atoms: C_10  and  N_11 
REMARK    3  A    between atoms: N_11  and  C_12 
REMARK    4  A    between atoms: C_12  and  C_13 
REMARK    5  A    between atoms: C_13  and  N_14 
REMARK    6  A    between atoms: C_13  and  C_20 
ROOT
HETATM    1  C   UNL     1      29.509  42.758  52.437  1.00  0.00     0.160 C 
ENDROOT
BRANCH   1   2
HETATM    2  N   UNL     1      28.865  41.476  52.167  1.00  0.00    -0.358 N 
HETATM    3  C   UNL     1      28.030  41.315  51.072  1.00  0.00     0.226 C 
HETATM    4  O   UNL     1      27.599  42.285  50.454  1.00  0.00    -0.273 OA
HETATM    5  H   UNL     1      29.418  40.653  52.392  1.00  0.00     0.162 HD
BRANCH   3   6
HETATM    6  C   UNL     1      27.655  39.859  50.768  1.00  0.00     0.111 C 
HETATM    7  C   UNL     1      26.231  39.775  50.224  1.00  0.00     0.025 C 
BRANCH   6   8
HETATM    8  C   UNL     1      28.671  39.230  49.858  1.00  0.00     0.004 A 
HETATM    9  C   UNL     1      28.893  39.435  48.505  1.00  0.00     0.033 A 
HETATM   10  C   UNL     1      28.248  40.311  47.495  1.00  0.00     0.070 C 
HETATM   11  N   UNL     1      29.928  38.610  48.161  1.00  0.00    -0.282 N 
HETATM   12  H   UNL     1      30.353  38.481  47.248  1.00  0.00     0.189 HD
HETATM   13  N   UNL     1      30.414  37.907  49.188  1.00  0.00    -0.179 NA
HETATM   14  C   UNL     1      29.642  38.247  50.222  1.00  0.00     0.060 A 
HETATM   15  C   UNL     1      29.873  37.614  51.545  1.00  0.00     0.073 C 
ENDBRANCH   6   8
ENDBRANCH   3   6
ENDBRANCH   1   2
BRANCH   1  16
HETATM   16  C   UNL     1      28.665  43.893  53.112  1.00  0.00     0.238 C 
BRANCH  16  17
HETATM   17  N   UNL     1      27.180  43.562  53.321  1.00  0.00    -0.061 N 
HETATM   18  H   UNL     1      27.045  42.715  52.755  1.00  0.00     0.280 HD
HETATM   19  C   UNL     1      26.148  44.547  52.842  1.00  0.00     0.236 C 
HETATM   20  C   UNL     1      25.568  45.132  54.110  1.00  0.00     0.029 C 
HETATM   21  C   UNL     1      25.552  43.956  55.063  1.00  0.00     0.029 C 
HETATM   22  C   UNL     1      26.802  43.160  54.733  1.00  0.00     0.236 C 
ENDBRANCH  16  17
BRANCH  16  23
HETATM   23  C   UNL     1      29.278  44.368  54.431  1.00  0.00    -0.024 A 
HETATM   24  C   UNL     1      30.235  43.618  55.135  1.00  0.00     0.033 A 
HETATM   25  C   UNL     1      30.741  44.076  56.355  1.00  0.00     0.034 A 
HETATM   26 CL   UNL     1      31.903  43.127  57.196  1.00  0.00    -0.084 Cl
HETATM   27  C   UNL     1      30.309  45.282  56.895  1.00  0.00     0.024 A 
HETATM   28  C   UNL     1      29.359  46.037  56.210  1.00  0.00     0.002 A 
HETATM   29  C   UNL     1      28.845  45.584  54.992  1.00  0.00     0.009 A 
ENDBRANCH  16  23
ENDBRANCH   1  16
TORSDOF 6
ENDMDL
MODEL 6
REMARK VINA RESULT:      -7.9     12.230     14.323
REMARK  6 active torsions:
REMARK  status: ('A' for Active; 'I' for Inactive)
REMARK    1  A    between atoms: C_8  and  C_9 
REMARK    2  A    between atoms: C_9  and  C_10 
REMARK       I    between atoms: C_10  and  N_11 
REMARK    3  A    between atoms: N_11  and  C_12 
REMARK    4  A    between atoms: C_12  and  C_13 
REMARK    5  A    between atoms: C_13  and  N_14 
REMARK    6  A    between atoms: C_13  and  C_20 
ROOT
HETATM    1  C   UNL     1      32.275  49.722  42.424  1.00  0.00     0.160 C 
ENDROOT
BRANCH   1   2
HETATM    2  N   UNL     1      32.071  49.319  41.035  1.00  0.00    -0.358 N 
HETATM    3  C   UNL     1      30.926  48.638  40.652  1.00  0.00     0.226 C 
HETATM    4  O   UNL     1      30.182  48.127  41.485  1.00  0.00    -0.273 OA
HETATM    5  H   UNL     1      32.422  49.968  40.335  1.00  0.00     0.162 HD
BRANCH   3   6
HETATM    6  C   UNL     1      30.729  48.531  39.135  1.00  0.00     0.111 C 
HETATM    7  C   UNL     1      30.125  47.178  38.768  1.00  0.00     0.025 C 
BRANCH   6   8
HETATM    8  C   UNL     1      29.928  49.692  38.622  1.00  0.00     0.004 A 
HETATM    9  C   UNL     1      28.553  49.859  38.560  1.00  0.00     0.033 A 
HETATM   10  C   UNL     1      27.411  49.002  38.964  1.00  0.00     0.070 C 
HETATM   11  N   UNL     1      28.345  51.090  38.000  1.00  0.00    -0.282 N 
HETATM   12  H   UNL     1      27.461  51.543  37.787  1.00  0.00     0.189 HD
HETATM   13  N   UNL     1      29.475  51.746  37.719  1.00  0.00    -0.179 NA
HETATM   14  C   UNL     1      30.447  50.899  38.060  1.00  0.00     0.060 A 
HETATM   15  C   UNL     1      31.864  51.287  37.841  1.00  0.00     0.073 C 
ENDBRANCH   6   8
ENDBRANCH   3   6
ENDBRANCH   1   2
BRANCH   1  16
HETATM   16  C   UNL     1      32.296  51.253  42.764  1.00  0.00     0.238 C 
BRANCH  16  17
HETATM   17  N   UNL     1      33.656  51.941  42.581  1.00  0.00    -0.061 N 
HETATM   18  H   UNL     1      33.402  52.901  42.319  1.00  0.00     0.280 HD
HETATM   19  C   UNL     1      34.574  51.446  41.496  1.00  0.00     0.236 C 
HETATM   20  C   UNL     1      35.702  50.765  42.238  1.00  0.00     0.029 C 
HETATM   21  C   UNL     1      35.882  51.628  43.470  1.00  0.00     0.029 C 
HETATM   22  C   UNL     1      34.482  52.080  43.844  1.00  0.00     0.236 C 
ENDBRANCH  16  17
BRANCH  16  23
HETATM   23  C   UNL     1      31.218  52.032  42.008  1.00  0.00    -0.024 A 
HETATM   24  C   UNL     1      29.860  51.669  42.036  1.00  0.00     0.033 A 
HETATM   25  C   UNL     1      28.917  52.391  41.299  1.00  0.00     0.034 A 
HETATM   26 CL   UNL     1      27.265  51.913  41.348  1.00  0.00    -0.084 Cl
HETATM   27  C   UNL     1      29.301  53.481  40.527  1.00  0.00     0.024 A 
HETATM   28  C   UNL     1      30.643  53.852  40.488  1.00  0.00     0.002 A 
HETATM   29  C   UNL     1      31.594  53.133  41.216  1.00  0.00     0.009 A 
ENDBRANCH  16  23
ENDBRANCH   1  16
TORSDOF 6
ENDMDL
MODEL 7
REMARK VINA RESULT:      -7.9      4.739      8.049
REMARK  6 active torsions:
REMARK  status: ('A' for Active; 'I' for Inactive)
REMARK    1  A    between atoms: C_8  and  C_9 
REMARK    2  A    between atoms: C_9  and  C_10 
REMARK       I    between atoms: C_10  and  N_11 
REMARK    3  A    between atoms: N_11  and  C_12 
REMARK    4  A    between atoms: C_12  and  C_13 
REMARK    5  A    between atoms: C_13  and  N_14 
REMARK    6  A    between atoms: C_13  and  C_20 
ROOT
HETATM    1  C   UNL     1      28.064  41.556  52.218  1.00  0.00     0.160 C 
ENDROOT
BRANCH   1   2
HETATM    2  N   UNL     1      28.689  40.679  51.231  1.00  0.00    -0.358 N 
HETATM    3  C   UNL     1      27.939  40.090  50.226  1.00  0.00     0.226 C 
HETATM    4  O   UNL     1      26.712  40.068  50.278  1.00  0.00    -0.273 OA
HETATM    5  H   UNL     1      29.631  40.940  50.949  1.00  0.00     0.162 HD
BRANCH   3   6
HETATM    6  C   UNL     1      28.769  39.430  49.118  1.00  0.00     0.111 C 
HETATM    7  C   UNL     1      29.605  38.286  49.684  1.00  0.00     0.025 C 
BRANCH   6   8
HETATM    8  C   UNL     1      27.889  39.008  47.977  1.00  0.00     0.004 A 
HETATM    9  C   UNL     1      27.645  39.642  46.767  1.00  0.00     0.033 A 
HETATM   10  C   UNL     1      28.139  40.908  46.171  1.00  0.00     0.070 C 
HETATM   11  N   UNL     1      26.764  38.844  46.092  1.00  0.00    -0.282 N 
HETATM   12  H   UNL     1      26.350  38.997  45.177  1.00  0.00     0.189 HD
HETATM   13  N   UNL     1      26.438  37.729  46.753  1.00  0.00    -0.179 NA
HETATM   14  C   UNL     1      27.088  37.828  47.914  1.00  0.00     0.060 A 
HETATM   15  C   UNL     1      26.921  36.763  48.937  1.00  0.00     0.073 C 
ENDBRANCH   6   8
ENDBRANCH   3   6
ENDBRANCH   1   2
BRANCH   1  16
HETATM   16  C   UNL     1      28.386  43.090  52.167  1.00  0.00     0.238 C 
BRANCH  16  17
HETATM   17  N   UNL     1      27.211  43.987  51.749  1.00  0.00    -0.061 N 
HETATM   18  H   UNL     1      27.244  44.754  52.432  1.00  0.00     0.280 HD
HETATM   19  C   UNL     1      25.816  43.428  51.823  1.00  0.00     0.236 C 
HETATM   20  C   UNL     1      25.404  43.253  50.379  1.00  0.00     0.029 C 
HETATM   21  C   UNL     1      26.036  44.442  49.686  1.00  0.00     0.029 C 
HETATM   22  C   UNL     1      27.361  44.655  50.397  1.00  0.00     0.236 C 
ENDBRANCH  16  17
BRANCH  16  23
HETATM   23  C   UNL     1      28.985  43.603  53.478  1.00  0.00    -0.024 A 
HETATM   24  C   UNL     1      28.451  44.699  54.177  1.00  0.00     0.033 A 
HETATM   25  C   UNL     1      29.055  45.154  55.353  1.00  0.00     0.034 A 
HETATM   26 CL   UNL     1      28.383  46.506  56.177  1.00  0.00    -0.084 Cl
HETATM   27  C   UNL     1      30.191  44.531  55.855  1.00  0.00     0.024 A 
HETATM   28  C   UNL     1      30.733  43.443  55.173  1.00  0.00     0.002 A 
HETATM   29  C   UNL     1      30.140  42.985  53.994  1.00  0.00     0.009 A 
ENDBRANCH  16  23
ENDBRANCH   1  16
TORSDOF 6
ENDMDL
MODEL 8
REMARK VINA RESULT:      -7.8     11.941     13.495
REMARK  6 active torsions:
REMARK  status: ('A' for Active; 'I' for Inactive)
REMARK    1  A    between atoms: C_8  and  C_9 
REMARK    2  A    between atoms: C_9  and  C_10 
REMARK       I    between atoms: C_10  and  N_11 
REMARK    3  A    between atoms: N_11  and  C_12 
REMARK    4  A    between atoms: C_12  and  C_13 
REMARK    5  A    between atoms: C_13  and  N_14 
REMARK    6  A    between atoms: C_13  and  C_20 
ROOT
HETATM    1  C   UNL     1      30.986  48.056  39.746  1.00  0.00     0.160 C 
ENDROOT
BRANCH   1   2
HETATM    2  N   UNL     1      31.694  49.066  40.529  1.00  0.00    -0.358 N 
HETATM    3  C   UNL     1      32.886  48.764  41.168  1.00  0.00     0.226 C 
HETATM    4  O   UNL     1      33.249  47.601  41.320  1.00  0.00    -0.273 OA
HETATM    5  H   UNL     1      31.646  50.014  40.164  1.00  0.00     0.162 HD
BRANCH   3   6
HETATM    6  C   UNL     1      33.642  49.984  41.710  1.00  0.00     0.111 C 
HETATM    7  C   UNL     1      35.069  50.013  41.169  1.00  0.00     0.025 C 
BRANCH   6   8
HETATM    8  C   UNL     1      32.879  51.246  41.431  1.00  0.00     0.004 A 
HETATM    9  C   UNL     1      32.763  51.966  40.251  1.00  0.00     0.033 A 
HETATM   10  C   UNL     1      33.313  51.768  38.887  1.00  0.00     0.070 C 
HETATM   11  N   UNL     1      31.963  53.038  40.538  1.00  0.00    -0.282 N 
HETATM   12  H   UNL     1      31.671  53.788  39.919  1.00  0.00     0.189 HD
HETATM   13  N   UNL     1      31.529  53.057  41.802  1.00  0.00    -0.179 NA
HETATM   14  C   UNL     1      32.101  51.993  42.368  1.00  0.00     0.060 A 
HETATM   15  C   UNL     1      31.871  51.721  43.810  1.00  0.00     0.073 C 
ENDBRANCH   6   8
ENDBRANCH   3   6
ENDBRANCH   1   2
BRANCH   1  16
HETATM   16  C   UNL     1      29.700  48.485  38.958  1.00  0.00     0.238 C 
BRANCH  16  17
HETATM   17  N   UNL     1      28.425  47.712  39.326  1.00  0.00    -0.061 N 
HETATM   18  H   UNL     1      27.790  48.449  39.659  1.00  0.00     0.280 HD
HETATM   19  C   UNL     1      28.492  46.695  40.433  1.00  0.00     0.236 C 
HETATM   20  C   UNL     1      28.366  45.363  39.729  1.00  0.00     0.029 C 
HETATM   21  C   UNL     1      27.388  45.650  38.608  1.00  0.00     0.029 C 
HETATM   22  C   UNL     1      27.705  47.066  38.160  1.00  0.00     0.236 C 
ENDBRANCH  16  17
BRANCH  16  23
HETATM   23  C   UNL     1      29.436  49.989  39.049  1.00  0.00    -0.024 A 
HETATM   24  C   UNL     1      28.733  50.571  40.117  1.00  0.00     0.033 A 
HETATM   25  C   UNL     1      28.485  51.947  40.139  1.00  0.00     0.034 A 
HETATM   26 CL   UNL     1      27.611  52.626  41.455  1.00  0.00    -0.084 Cl
HETATM   27  C   UNL     1      28.931  52.765  39.107  1.00  0.00     0.024 A 
HETATM   28  C   UNL     1      29.629  52.203  38.041  1.00  0.00     0.002 A 
HETATM   29  C   UNL     1      29.876  50.828  38.008  1.00  0.00     0.009 A 
ENDBRANCH  16  23
ENDBRANCH   1  16
TORSDOF 6
ENDMDL
MODEL 9
REMARK VINA RESULT:      -7.7     11.770     13.133
REMARK  6 active torsions:
REMARK  status: ('A' for Active; 'I' for Inactive)
REMARK    1  A    between atoms: C_8  and  C_9 
REMARK    2  A    between atoms: C_9  and  C_10 
REMARK       I    between atoms: C_10  and  N_11 
REMARK    3  A    between atoms: N_11  and  C_12 
REMARK    4  A    between atoms: C_12  and  C_13 
REMARK    5  A    between atoms: C_13  and  N_14 
REMARK    6  A    between atoms: C_13  and  C_20 
ROOT
HETATM    1  C   UNL     1      29.754  47.851  41.015  1.00  0.00     0.160 C 
ENDROOT
BRANCH   1   2
HETATM    2  N   UNL     1      30.797  48.662  41.637  1.00  0.00    -0.358 N 
HETATM    3  C   UNL     1      32.131  48.487  41.302  1.00  0.00     0.226 C 
HETATM    4  O   UNL     1      32.505  47.493  40.685  1.00  0.00    -0.273 OA
HETATM    5  H   UNL     1      30.541  49.626  41.834  1.00  0.00     0.162 HD
BRANCH   3   6
HETATM    6  C   UNL     1      33.066  49.585  41.822  1.00  0.00     0.111 C 
HETATM    7  C   UNL     1      34.475  49.397  41.266  1.00  0.00     0.025 C 
BRANCH   6   8
HETATM    8  C   UNL     1      32.497  50.944  41.537  1.00  0.00     0.004 A 
HETATM    9  C   UNL     1      32.278  51.574  40.321  1.00  0.00     0.033 A 
HETATM   10  C   UNL     1      32.505  51.161  38.914  1.00  0.00     0.070 C 
HETATM   11  N   UNL     1      31.750  52.800  40.618  1.00  0.00    -0.282 N 
HETATM   12  H   UNL     1      31.479  53.540  39.978  1.00  0.00     0.189 HD
HETATM   13  N   UNL     1      31.584  53.007  41.928  1.00  0.00    -0.179 NA
HETATM   14  C   UNL     1      32.062  51.902  42.504  1.00  0.00     0.060 A 
HETATM   15  C   UNL     1      32.075  51.799  43.986  1.00  0.00     0.073 C 
ENDBRANCH   6   8
ENDBRANCH   3   6
ENDBRANCH   1   2
BRANCH   1  16
HETATM   16  C   UNL     1      28.938  48.464  39.826  1.00  0.00     0.238 C 
BRANCH  16  17
HETATM   17  N   UNL     1      27.612  47.754  39.513  1.00  0.00    -0.061 N 
HETATM   18  H   UNL     1      27.880  46.763  39.465  1.00  0.00     0.280 HD
HETATM   19  C   UNL     1      26.922  48.057  38.210  1.00  0.00     0.236 C 
HETATM   20  C   UNL     1      25.700  48.852  38.608  1.00  0.00     0.029 C 
HETATM   21  C   UNL     1      25.273  48.211  39.912  1.00  0.00     0.029 C 
HETATM   22  C   UNL     1      26.567  47.829  40.608  1.00  0.00     0.236 C 
ENDBRANCH  16  17
BRANCH  16  23
HETATM   23  C   UNL     1      28.691  49.963  40.001  1.00  0.00    -0.024 A 
HETATM   24  C   UNL     1      28.799  50.878  38.940  1.00  0.00     0.033 A 
HETATM   25  C   UNL     1      28.599  52.245  39.156  1.00  0.00     0.034 A 
HETATM   26 CL   UNL     1      28.751  53.338  37.837  1.00  0.00    -0.084 Cl
HETATM   27  C   UNL     1      28.287  52.725  40.423  1.00  0.00     0.024 A 
HETATM   28  C   UNL     1      28.177  51.831  41.486  1.00  0.00     0.002 A 
HETATM   29  C   UNL     1      28.381  50.464  41.279  1.00  0.00     0.009 A 
ENDBRANCH  16  23
ENDBRANCH   1  16
TORSDOF 6
ENDMDL
MODEL 10
REMARK VINA RESULT:      -7.7     12.323     14.037
REMARK  6 active torsions:
REMARK  status: ('A' for Active; 'I' for Inactive)
REMARK    1  A    between atoms: C_8  and  C_9 
REMARK    2  A    between atoms: C_9  and  C_10 
REMARK       I    between atoms: C_10  and  N_11 
REMARK    3  A    between atoms: N_11  and  C_12 
REMARK    4  A    between atoms: C_12  and  C_13 
REMARK    5  A    between atoms: C_13  and  N_14 
REMARK    6  A    between atoms: C_13  and  C_20 
ROOT
HETATM    1  C   UNL     1      26.762  50.126  39.618  1.00  0.00     0.160 C 
ENDROOT
BRANCH   1   2
HETATM    2  N   UNL     1      27.760  51.098  39.181  1.00  0.00    -0.358 N 
HETATM    3  C   UNL     1      28.288  52.025  40.067  1.00  0.00     0.226 C 
HETATM    4  O   UNL     1      27.759  52.236  41.155  1.00  0.00    -0.273 OA
HETATM    5  H   UNL     1      28.424  50.762  38.488  1.00  0.00     0.162 HD
BRANCH   3   6
HETATM    6  C   UNL     1      29.511  52.785  39.538  1.00  0.00     0.111 C 
HETATM    7  C   UNL     1      29.394  54.274  39.852  1.00  0.00     0.025 C 
BRANCH   6   8
HETATM    8  C   UNL     1      30.779  52.171  40.055  1.00  0.00     0.004 A 
HETATM    9  C   UNL     1      31.281  52.134  41.347  1.00  0.00     0.033 A 
HETATM   10  C   UNL     1      30.777  52.655  42.643  1.00  0.00     0.070 C 
HETATM   11  N   UNL     1      32.470  51.464  41.274  1.00  0.00    -0.282 N 
HETATM   12  H   UNL     1      33.124  51.258  42.024  1.00  0.00     0.189 HD
HETATM   13  N   UNL     1      32.768  51.038  40.043  1.00  0.00    -0.179 NA
HETATM   14  C   UNL     1      31.767  51.486  39.283  1.00  0.00     0.060 A 
HETATM   15  C   UNL     1      31.790  51.230  37.820  1.00  0.00     0.073 C 
ENDBRANCH   6   8
ENDBRANCH   3   6
ENDBRANCH   1   2
BRANCH   1  16
HETATM   16  C   UNL     1      27.139  48.605  39.599  1.00  0.00     0.238 C 
BRANCH  16  17
HETATM   17  N   UNL     1      26.731  47.851  38.325  1.00  0.00    -0.061 N 
HETATM   18  H   UNL     1      27.625  47.491  37.966  1.00  0.00     0.280 HD
HETATM   19  C   UNL     1      26.116  48.628  37.193  1.00  0.00     0.236 C 
HETATM   20  C   UNL     1      24.668  48.195  37.182  1.00  0.00     0.029 C 
HETATM   21  C   UNL     1      24.738  46.727  37.547  1.00  0.00     0.029 C 
HETATM   22  C   UNL     1      25.873  46.622  38.550  1.00  0.00     0.236 C 
ENDBRANCH  16  17
BRANCH  16  23
HETATM   23  C   UNL     1      28.623  48.369  39.885  1.00  0.00    -0.024 A 
HETATM   24  C   UNL     1      29.194  48.585  41.151  1.00  0.00     0.033 A 
HETATM   25  C   UNL     1      30.564  48.391  41.355  1.00  0.00     0.034 A 
HETATM   26 CL   UNL     1      31.232  48.675  42.914  1.00  0.00    -0.084 Cl
HETATM   27  C   UNL     1      31.386  47.978  40.313  1.00  0.00     0.024 A 
HETATM   28  C   UNL     1      30.835  47.761  39.052  1.00  0.00     0.002 A 
HETATM   29  C   UNL     1      29.469  47.958  38.837  1.00  0.00     0.009 A 
ENDBRANCH  16  23
ENDBRANCH   1  16
TORSDOF 6
ENDMDL
