MODEL 1
REMARK VINA RESULT:      -8.1      0.000      0.000
REMARK  4 active torsions:
REMARK  status: ('A' for Active; 'I' for Inactive)
REMARK    1  A    between atoms: C_5  and  C_6 
REMARK    2  A    between atoms: C_6  and  N_7 
REMARK    3  A    between atoms: C_6  and  C_18 
REMARK    4  A    between atoms: N_7  and  C_8 
ROOT
HETATM    1  C   UNL     1      25.033  47.014  50.643  1.00  0.00     0.290 C 
ENDROOT
BRANCH   1   2
HETATM    2  C   UNL     1      24.650  45.759  49.885  1.00  0.00     0.021 A 
HETATM    3  C   UNL     1      23.319  45.438  49.574  1.00  0.00     0.055 A 
HETATM    4  C   UNL     1      23.023  44.260  48.893  1.00  0.00     0.117 A 
HETATM    5  C   UNL     1      24.027  43.374  48.518  1.00  0.00     0.045 A 
HETATM    6  F   UNL     1      21.749  43.980  48.590  1.00  0.00    -0.206 F 
HETATM    7  C   UNL     1      25.352  43.671  48.828  1.00  0.00     0.046 A 
HETATM    8  C   UNL     1      25.652  44.852  49.505  1.00  0.00     0.125 A 
HETATM    9  F   UNL     1      26.934  45.126  49.786  1.00  0.00    -0.205 F 
ENDBRANCH   1   2
BRANCH   1  10
HETATM   10  N   UNL     1      26.033  46.800  51.718  1.00  0.00     0.101 N 
HETATM   11  H   UNL     1      26.558  47.666  51.816  1.00  0.00     0.317 HD
BRANCH  10  12
HETATM   12  C   UNL     1      25.509  46.289  52.991  1.00  0.00     0.225 C 
HETATM   13  C   UNL     1      26.150  46.895  54.258  1.00  0.00     0.069 C 
HETATM   14  C   UNL     1      27.579  46.422  54.436  1.00  0.00     0.190 C 
HETATM   15  N   UNL     1      27.582  44.918  54.507  1.00  0.00    -0.067 N 
HETATM   16  C   UNL     1      28.267  46.777  55.739  1.00  0.00     0.035 C 
HETATM   17  H   UNL     1      26.937  44.629  55.259  1.00  0.00     0.280 HD
HETATM   18  C   UNL     1      27.100  44.279  53.242  1.00  0.00     0.237 C 
HETATM   19  C   UNL     1      28.963  44.549  54.985  1.00  0.00     0.235 C 
HETATM   20  C   UNL     1      25.670  44.750  52.994  1.00  0.00     0.063 C 
HETATM   21  C   UNL     1      29.401  45.755  55.820  1.00  0.00     0.030 C 
ENDBRANCH  10  12
ENDBRANCH   1  10
BRANCH   1  22
HETATM   22  C   UNL     1      25.517  48.113  49.703  1.00  0.00    -0.018 A 
HETATM   23  C   UNL     1      26.886  48.391  49.591  1.00  0.00     0.029 A 
HETATM   24  C   UNL     1      27.298  49.390  48.722  1.00  0.00     0.116 A 
HETATM   25  N   UNL     1      26.452  50.122  47.969  1.00  0.00    -0.273 NA
HETATM   26  C   UNL     1      25.136  49.864  48.106  1.00  0.00     0.116 A 
HETATM   27  C   UNL     1      24.627  48.884  48.943  1.00  0.00     0.029 A 
ENDBRANCH   1  22
TORSDOF 4
ENDMDL
MODEL 2
REMARK VINA RESULT:      -8.1      0.842      1.749
REMARK  4 active torsions:
REMARK  status: ('A' for Active; 'I' for Inactive)
REMARK    1  A    between atoms: C_5  and  C_6 
REMARK    2  A    between atoms: C_6  and  N_7 
REMARK    3  A    between atoms: C_6  and  C_18 
REMARK    4  A    between atoms: N_7  and  C_8 
ROOT
HETATM    1  C   UNL     1      25.059  47.071  50.592  1.00  0.00     0.290 C 
ENDROOT
BRANCH   1   2
HETATM    2  C   UNL     1      24.966  45.717  49.919  1.00  0.00     0.021 A 
HETATM    3  C   UNL     1      26.066  44.851  49.803  1.00  0.00     0.055 A 
HETATM    4  C   UNL     1      25.928  43.626  49.156  1.00  0.00     0.117 A 
HETATM    5  C   UNL     1      24.713  43.237  48.604  1.00  0.00     0.045 A 
HETATM    6  F   UNL     1      26.984  42.807  49.070  1.00  0.00    -0.206 F 
HETATM    7  C   UNL     1      23.614  44.087  48.701  1.00  0.00     0.046 A 
HETATM    8  C   UNL     1      23.748  45.313  49.352  1.00  0.00     0.125 A 
HETATM    9  F   UNL     1      22.677  46.113  49.444  1.00  0.00    -0.205 F 
ENDBRANCH   1   2
BRANCH   1  10
HETATM   10  N   UNL     1      26.045  47.140  51.699  1.00  0.00     0.101 N 
HETATM   11  H   UNL     1      26.528  48.030  51.614  1.00  0.00     0.317 HD
BRANCH  10  12
HETATM   12  C   UNL     1      25.517  46.889  53.046  1.00  0.00     0.225 C 
HETATM   13  C   UNL     1      26.413  47.376  54.206  1.00  0.00     0.069 C 
HETATM   14  C   UNL     1      27.665  46.530  54.331  1.00  0.00     0.190 C 
HETATM   15  N   UNL     1      27.257  45.096  54.540  1.00  0.00    -0.067 N 
HETATM   16  C   UNL     1      28.539  46.766  55.546  1.00  0.00     0.035 C 
HETATM   17  H   UNL     1      26.628  45.055  55.357  1.00  0.00     0.280 HD
HETATM   18  C   UNL     1      26.505  44.533  53.375  1.00  0.00     0.237 C 
HETATM   19  C   UNL     1      28.519  44.385  54.956  1.00  0.00     0.235 C 
HETATM   20  C   UNL     1      25.244  45.372  53.181  1.00  0.00     0.063 C 
HETATM   21  C   UNL     1      29.348  45.472  55.644  1.00  0.00     0.030 C 
ENDBRANCH  10  12
ENDBRANCH   1  10
BRANCH   1  22
HETATM   22  C   UNL     1      25.339  48.182  49.585  1.00  0.00    -0.018 A 
HETATM   23  C   UNL     1      26.659  48.550  49.293  1.00  0.00     0.029 A 
HETATM   24  C   UNL     1      26.885  49.556  48.367  1.00  0.00     0.116 A 
HETATM   25  N   UNL     1      25.900  50.214  47.723  1.00  0.00    -0.273 NA
HETATM   26  C   UNL     1      24.633  49.870  48.032  1.00  0.00     0.116 A 
HETATM   27  C   UNL     1      24.306  48.875  48.939  1.00  0.00     0.029 A 
ENDBRANCH   1  22
TORSDOF 4
ENDMDL
MODEL 3
REMARK VINA RESULT:      -8.1      3.398      7.773
REMARK  4 active torsions:
REMARK  status: ('A' for Active; 'I' for Inactive)
REMARK    1  A    between atoms: C_5  and  C_6 
REMARK    2  A    between atoms: C_6  and  N_7 
REMARK    3  A    between atoms: C_6  and  C_18 
REMARK    4  A    between atoms: N_7  and  C_8 
ROOT
HETATM    1  C   UNL     1      27.959  44.582  54.976  1.00  0.00     0.290 C 
ENDROOT
BRANCH   1   2
HETATM    2  C   UNL     1      29.108  44.780  55.943  1.00  0.00     0.021 A 
HETATM    3  C   UNL     1      30.234  43.941  55.964  1.00  0.00     0.055 A 
HETATM    4  C   UNL     1      31.252  44.159  56.890  1.00  0.00     0.117 A 
HETATM    5  C   UNL     1      31.175  45.194  57.815  1.00  0.00     0.045 A 
HETATM    6  F   UNL     1      32.326  43.359  56.883  1.00  0.00    -0.206 F 
HETATM    7  C   UNL     1      30.060  46.029  57.815  1.00  0.00     0.046 A 
HETATM    8  C   UNL     1      29.042  45.817  56.887  1.00  0.00     0.125 A 
HETATM    9  F   UNL     1      27.981  46.637  56.895  1.00  0.00    -0.205 F 
ENDBRANCH   1   2
BRANCH   1  10
HETATM   10  N   UNL     1      27.572  45.802  54.225  1.00  0.00     0.101 N 
HETATM   11  H   UNL     1      28.013  45.743  53.310  1.00  0.00     0.317 HD
BRANCH  10  12
HETATM   12  C   UNL     1      26.133  46.089  54.161  1.00  0.00     0.225 C 
HETATM   13  C   UNL     1      25.261  44.955  53.581  1.00  0.00     0.069 C 
HETATM   14  C   UNL     1      25.489  44.788  52.091  1.00  0.00     0.190 C 
HETATM   15  N   UNL     1      25.184  46.095  51.409  1.00  0.00    -0.067 N 
HETATM   16  C   UNL     1      24.558  43.848  51.352  1.00  0.00     0.035 C 
HETATM   17  H   UNL     1      24.226  46.378  51.668  1.00  0.00     0.280 HD
HETATM   18  C   UNL     1      26.101  47.198  51.836  1.00  0.00     0.237 C 
HETATM   19  C   UNL     1      25.134  45.768  49.939  1.00  0.00     0.235 C 
HETATM   20  C   UNL     1      25.937  47.387  53.342  1.00  0.00     0.063 C 
HETATM   21  C   UNL     1      24.693  44.303  49.898  1.00  0.00     0.030 C 
ENDBRANCH  10  12
ENDBRANCH   1  10
BRANCH   1  22
HETATM   22  C   UNL     1      28.236  43.444  53.999  1.00  0.00    -0.018 A 
HETATM   23  C   UNL     1      28.917  43.696  52.800  1.00  0.00     0.029 A 
HETATM   24  C   UNL     1      29.162  42.641  51.935  1.00  0.00     0.116 A 
HETATM   25  N   UNL     1      28.779  41.371  52.177  1.00  0.00    -0.273 NA
HETATM   26  C   UNL     1      28.100  41.146  53.320  1.00  0.00     0.116 A 
HETATM   27  C   UNL     1      27.811  42.132  54.249  1.00  0.00     0.029 A 
ENDBRANCH   1  22
TORSDOF 4
ENDMDL
MODEL 4
REMARK VINA RESULT:      -7.8      2.060      3.103
REMARK  4 active torsions:
REMARK  status: ('A' for Active; 'I' for Inactive)
REMARK    1  A    between atoms: C_5  and  C_6 
REMARK    2  A    between atoms: C_6  and  N_7 
REMARK    3  A    between atoms: C_6  and  C_18 
REMARK    4  A    between atoms: N_7  and  C_8 
ROOT
HETATM    1  C   UNL     1      25.707  44.269  51.410  1.00  0.00     0.290 C 
ENDROOT
BRANCH   1   2
HETATM    2  C   UNL     1      25.716  43.182  50.354  1.00  0.00     0.021 A 
HETATM    3  C   UNL     1      26.878  42.808  49.660  1.00  0.00     0.055 A 
HETATM    4  C   UNL     1      26.823  41.815  48.685  1.00  0.00     0.117 A 
HETATM    5  C   UNL     1      25.625  41.183  48.369  1.00  0.00     0.045 A 
HETATM    6  F   UNL     1      27.945  41.461  48.047  1.00  0.00    -0.206 F 
HETATM    7  C   UNL     1      24.461  41.549  49.040  1.00  0.00     0.046 A 
HETATM    8  C   UNL     1      24.514  42.539  50.020  1.00  0.00     0.125 A 
HETATM    9  F   UNL     1      23.385  42.870  50.662  1.00  0.00    -0.205 F 
ENDBRANCH   1   2
BRANCH   1  10
HETATM   10  N   UNL     1      26.909  44.287  52.280  1.00  0.00     0.101 N 
HETATM   11  H   UNL     1      27.251  45.245  52.299  1.00  0.00     0.317 HD
BRANCH  10  12
HETATM   12  C   UNL     1      26.744  43.702  53.617  1.00  0.00     0.225 C 
HETATM   13  C   UNL     1      27.101  44.636  54.794  1.00  0.00     0.069 C 
HETATM   14  C   UNL     1      28.596  44.878  54.874  1.00  0.00     0.190 C 
HETATM   15  N   UNL     1      29.291  43.550  55.020  1.00  0.00    -0.067 N 
HETATM   16  C   UNL     1      29.111  45.612  56.095  1.00  0.00     0.035 C 
HETATM   17  H   UNL     1      28.890  43.064  55.837  1.00  0.00     0.280 HD
HETATM   18  C   UNL     1      29.090  42.659  53.834  1.00  0.00     0.237 C 
HETATM   19  C   UNL     1      30.709  43.888  55.398  1.00  0.00     0.235 C 
HETATM   20  C   UNL     1      27.591  42.409  53.684  1.00  0.00     0.063 C 
HETATM   21  C   UNL     1      30.590  45.226  56.131  1.00  0.00     0.030 C 
ENDBRANCH  10  12
ENDBRANCH   1  10
BRANCH   1  22
HETATM   22  C   UNL     1      25.497  45.648  50.795  1.00  0.00    -0.018 A 
HETATM   23  C   UNL     1      26.560  46.559  50.729  1.00  0.00     0.029 A 
HETATM   24  C   UNL     1      26.343  47.803  50.157  1.00  0.00     0.116 A 
HETATM   25  N   UNL     1      25.155  48.197  49.655  1.00  0.00    -0.273 NA
HETATM   26  C   UNL     1      24.133  47.323  49.749  1.00  0.00     0.116 A 
HETATM   27  C   UNL     1      24.252  46.057  50.298  1.00  0.00     0.029 A 
ENDBRANCH   1  22
TORSDOF 4
ENDMDL
MODEL 5
REMARK VINA RESULT:      -7.7      2.227      6.443
REMARK  4 active torsions:
REMARK  status: ('A' for Active; 'I' for Inactive)
REMARK    1  A    between atoms: C_5  and  C_6 
REMARK    2  A    between atoms: C_6  and  N_7 
REMARK    3  A    between atoms: C_6  and  C_18 
REMARK    4  A    between atoms: N_7  and  C_8 
ROOT
HETATM    1  C   UNL     1      24.972  46.321  50.928  1.00  0.00     0.290 C 
ENDROOT
BRANCH   1   2
HETATM    2  C   UNL     1      25.374  47.504  50.071  1.00  0.00     0.021 A 
HETATM    3  C   UNL     1      26.713  47.885  49.885  1.00  0.00     0.055 A 
HETATM    4  C   UNL     1      27.023  48.994  49.102  1.00  0.00     0.117 A 
HETATM    5  C   UNL     1      26.024  49.752  48.500  1.00  0.00     0.045 A 
HETATM    6  F   UNL     1      28.306  49.331  48.922  1.00  0.00    -0.206 F 
HETATM    7  C   UNL     1      24.690  49.394  48.683  1.00  0.00     0.046 A 
HETATM    8  C   UNL     1      24.378  48.282  49.462  1.00  0.00     0.125 A 
HETATM    9  F   UNL     1      23.089  47.947  49.619  1.00  0.00    -0.205 F 
ENDBRANCH   1   2
BRANCH   1  10
HETATM   10  N   UNL     1      25.083  45.006  50.250  1.00  0.00     0.101 N 
HETATM   11  H   UNL     1      25.913  44.548  50.619  1.00  0.00     0.317 HD
BRANCH  10  12
HETATM   12  C   UNL     1      23.885  44.159  50.288  1.00  0.00     0.225 C 
HETATM   13  C   UNL     1      24.140  42.647  50.102  1.00  0.00     0.069 C 
HETATM   14  C   UNL     1      24.554  42.327  48.679  1.00  0.00     0.190 C 
HETATM   15  N   UNL     1      23.473  42.803  47.745  1.00  0.00    -0.067 N 
HETATM   16  C   UNL     1      24.645  40.863  48.300  1.00  0.00     0.035 C 
HETATM   17  H   UNL     1      22.582  42.375  48.039  1.00  0.00     0.280 HD
HETATM   18  C   UNL     1      23.285  44.287  47.786  1.00  0.00     0.237 C 
HETATM   19  C   UNL     1      23.806  42.185  46.412  1.00  0.00     0.235 C 
HETATM   20  C   UNL     1      22.899  44.672  49.212  1.00  0.00     0.063 C 
HETATM   21  C   UNL     1      24.548  40.896  46.774  1.00  0.00     0.030 C 
ENDBRANCH  10  12
ENDBRANCH   1  10
BRANCH   1  22
HETATM   22  C   UNL     1      25.747  46.289  52.242  1.00  0.00    -0.018 A 
HETATM   23  C   UNL     1      26.606  45.219  52.525  1.00  0.00     0.029 A 
HETATM   24  C   UNL     1      27.305  45.220  53.723  1.00  0.00     0.116 A 
HETATM   25  N   UNL     1      27.205  46.198  54.645  1.00  0.00    -0.273 NA
HETATM   26  C   UNL     1      26.355  47.209  54.373  1.00  0.00     0.116 A 
HETATM   27  C   UNL     1      25.617  47.299  53.204  1.00  0.00     0.029 A 
ENDBRANCH   1  22
TORSDOF 4
ENDMDL
MODEL 6
REMARK VINA RESULT:      -7.6     11.000     12.186
REMARK  4 active torsions:
REMARK  status: ('A' for Active; 'I' for Inactive)
REMARK    1  A    between atoms: C_5  and  C_6 
REMARK    2  A    between atoms: C_6  and  N_7 
REMARK    3  A    between atoms: C_6  and  C_18 
REMARK    4  A    between atoms: N_7  and  C_8 
ROOT
HETATM    1  C   UNL     1      29.452  49.309  40.362  1.00  0.00     0.290 C 
ENDROOT
BRANCH   1   2
HETATM    2  C   UNL     1      28.545  48.357  39.611  1.00  0.00     0.021 A 
HETATM    3  C   UNL     1      28.994  47.570  38.538  1.00  0.00     0.055 A 
HETATM    4  C   UNL     1      28.109  46.727  37.870  1.00  0.00     0.117 A 
HETATM    5  C   UNL     1      26.770  46.651  38.237  1.00  0.00     0.045 A 
HETATM    6  F   UNL     1      28.561  45.971  36.860  1.00  0.00    -0.206 F 
HETATM    7  C   UNL     1      26.306  47.433  39.292  1.00  0.00     0.046 A 
HETATM    8  C   UNL     1      27.190  48.274  39.965  1.00  0.00     0.125 A 
HETATM    9  F   UNL     1      26.726  49.011  40.985  1.00  0.00    -0.205 F 
ENDBRANCH   1   2
BRANCH   1  10
HETATM   10  N   UNL     1      30.893  48.957  40.305  1.00  0.00     0.101 N 
HETATM   11  H   UNL     1      31.391  49.786  39.992  1.00  0.00     0.317 HD
BRANCH  10  12
HETATM   12  C   UNL     1      31.458  48.362  41.523  1.00  0.00     0.225 C 
HETATM   13  C   UNL     1      31.307  49.212  42.802  1.00  0.00     0.069 C 
HETATM   14  C   UNL     1      32.195  50.441  42.759  1.00  0.00     0.190 C 
HETATM   15  N   UNL     1      33.623  49.996  42.582  1.00  0.00    -0.067 N 
HETATM   16  C   UNL     1      32.300  51.261  44.029  1.00  0.00     0.035 C 
HETATM   17  H   UNL     1      33.848  49.329  43.337  1.00  0.00     0.280 HD
HETATM   18  C   UNL     1      33.851  49.287  41.284  1.00  0.00     0.237 C 
HETATM   19  C   UNL     1      34.454  51.222  42.856  1.00  0.00     0.235 C 
HETATM   20  C   UNL     1      32.951  48.054  41.258  1.00  0.00     0.063 C 
HETATM   21  C   UNL     1      33.601  52.040  43.829  1.00  0.00     0.030 C 
ENDBRANCH  10  12
ENDBRANCH   1  10
BRANCH   1  22
HETATM   22  C   UNL     1      29.257  50.751  39.905  1.00  0.00    -0.018 A 
HETATM   23  C   UNL     1      29.162  51.782  40.849  1.00  0.00     0.029 A 
HETATM   24  C   UNL     1      28.994  53.085  40.404  1.00  0.00     0.116 A 
HETATM   25  N   UNL     1      28.913  53.425  39.102  1.00  0.00    -0.273 NA
HETATM   26  C   UNL     1      28.979  52.422  38.204  1.00  0.00     0.116 A 
HETATM   27  C   UNL     1      29.151  51.091  38.549  1.00  0.00     0.029 A 
ENDBRANCH   1  22
TORSDOF 4
ENDMDL
MODEL 7
REMARK VINA RESULT:      -7.5     11.654     13.911
REMARK  4 active torsions:
REMARK  status: ('A' for Active; 'I' for Inactive)
REMARK    1  A    between atoms: C_5  and  C_6 
REMARK    2  A    between atoms: C_6  and  N_7 
REMARK    3  A    between atoms: C_6  and  C_18 
REMARK    4  A    between atoms: N_7  and  C_8 
ROOT
HETATM    1  C   UNL     1      31.500  51.231  41.661  1.00  0.00     0.290 C 
ENDROOT
BRANCH   1   2
HETATM    2  C   UNL     1      32.859  51.492  42.279  1.00  0.00     0.021 A 
HETATM    3  C   UNL     1      34.054  51.397  41.548  1.00  0.00     0.055 A 
HETATM    4  C   UNL     1      35.277  51.627  42.173  1.00  0.00     0.117 A 
HETATM    5  C   UNL     1      35.346  51.943  43.525  1.00  0.00     0.045 A 
HETATM    6  F   UNL     1      36.405  51.549  41.455  1.00  0.00    -0.206 F 
HETATM    7  C   UNL     1      34.171  52.031  44.268  1.00  0.00     0.046 A 
HETATM    8  C   UNL     1      32.945  51.805  43.644  1.00  0.00     0.125 A 
HETATM    9  F   UNL     1      31.824  51.905  44.372  1.00  0.00    -0.205 F 
ENDBRANCH   1   2
BRANCH   1  10
HETATM   10  N   UNL     1      31.044  52.282  40.718  1.00  0.00     0.101 N 
HETATM   11  H   UNL     1      31.121  51.896  39.780  1.00  0.00     0.317 HD
BRANCH  10  12
HETATM   12  C   UNL     1      29.728  52.870  40.998  1.00  0.00     0.225 C 
HETATM   13  C   UNL     1      28.648  51.874  41.475  1.00  0.00     0.069 C 
HETATM   14  C   UNL     1      28.211  50.954  40.352  1.00  0.00     0.190 C 
HETATM   15  N   UNL     1      27.693  51.795  39.215  1.00  0.00    -0.067 N 
HETATM   16  C   UNL     1      27.018  50.059  40.619  1.00  0.00     0.035 C 
HETATM   17  H   UNL     1      26.950  52.410  39.581  1.00  0.00     0.280 HD
HETATM   18  C   UNL     1      28.746  52.679  38.624  1.00  0.00     0.237 C 
HETATM   19  C   UNL     1      27.006  50.825  38.290  1.00  0.00     0.235 C 
HETATM   20  C   UNL     1      29.250  53.609  39.725  1.00  0.00     0.063 C 
HETATM   21  C   UNL     1      26.535  49.699  39.214  1.00  0.00     0.030 C 
ENDBRANCH  10  12
ENDBRANCH   1  10
BRANCH   1  22
HETATM   22  C   UNL     1      31.444  49.868  40.979  1.00  0.00    -0.018 A 
HETATM   23  C   UNL     1      31.790  48.711  41.689  1.00  0.00     0.029 A 
HETATM   24  C   UNL     1      31.721  47.484  41.046  1.00  0.00     0.116 A 
HETATM   25  N   UNL     1      31.340  47.335  39.761  1.00  0.00    -0.273 NA
HETATM   26  C   UNL     1      31.036  48.458  39.080  1.00  0.00     0.116 A 
HETATM   27  C   UNL     1      31.070  49.727  39.635  1.00  0.00     0.029 A 
ENDBRANCH   1  22
TORSDOF 4
ENDMDL
MODEL 8
REMARK VINA RESULT:      -7.5      3.613      6.768
REMARK  4 active torsions:
REMARK  status: ('A' for Active; 'I' for Inactive)
REMARK    1  A    between atoms: C_5  and  C_6 
REMARK    2  A    between atoms: C_6  and  N_7 
REMARK    3  A    between atoms: C_6  and  C_18 
REMARK    4  A    between atoms: N_7  and  C_8 
ROOT
HETATM    1  C   UNL     1      26.631  43.702  51.324  1.00  0.00     0.290 C 
ENDROOT
BRANCH   1   2
HETATM    2  C   UNL     1      26.360  45.104  50.816  1.00  0.00     0.021 A 
HETATM    3  C   UNL     1      27.267  45.804  50.004  1.00  0.00     0.055 A 
HETATM    4  C   UNL     1      26.974  47.099  49.583  1.00  0.00     0.117 A 
HETATM    5  C   UNL     1      25.794  47.729  49.961  1.00  0.00     0.045 A 
HETATM    6  F   UNL     1      27.844  47.743  48.795  1.00  0.00    -0.206 F 
HETATM    7  C   UNL     1      24.888  47.053  50.774  1.00  0.00     0.046 A 
HETATM    8  C   UNL     1      25.176  45.756  51.194  1.00  0.00     0.125 A 
HETATM    9  F   UNL     1      24.287  45.117  51.968  1.00  0.00    -0.205 F 
ENDBRANCH   1   2
BRANCH   1  10
HETATM   10  N   UNL     1      26.983  42.724  50.266  1.00  0.00     0.101 N 
HETATM   11  H   UNL     1      27.990  42.584  50.311  1.00  0.00     0.317 HD
BRANCH  10  12
HETATM   12  C   UNL     1      26.220  41.469  50.269  1.00  0.00     0.225 C 
HETATM   13  C   UNL     1      27.002  40.224  50.739  1.00  0.00     0.069 C 
HETATM   14  C   UNL     1      28.046  39.809  49.720  1.00  0.00     0.190 C 
HETATM   15  N   UNL     1      27.358  39.541  48.408  1.00  0.00    -0.067 N 
HETATM   16  C   UNL     1      28.753  38.489  49.955  1.00  0.00     0.035 C 
HETATM   17  H   UNL     1      26.615  38.844  48.570  1.00  0.00     0.280 HD
HETATM   18  C   UNL     1      26.702  40.760  47.840  1.00  0.00     0.237 C 
HETATM   19  C   UNL     1      28.392  38.852  47.556  1.00  0.00     0.235 C 
HETATM   20  C   UNL     1      25.659  41.244  48.845  1.00  0.00     0.063 C 
HETATM   21  C   UNL     1      29.290  38.135  48.567  1.00  0.00     0.030 C 
ENDBRANCH  10  12
ENDBRANCH   1  10
BRANCH   1  22
HETATM   22  C   UNL     1      27.703  43.694  52.409  1.00  0.00    -0.018 A 
HETATM   23  C   UNL     1      28.914  43.022  52.197  1.00  0.00     0.029 A 
HETATM   24  C   UNL     1      29.874  43.039  53.196  1.00  0.00     0.116 A 
HETATM   25  N   UNL     1      29.712  43.668  54.378  1.00  0.00    -0.273 NA
HETATM   26  C   UNL     1      28.532  44.289  54.582  1.00  0.00     0.116 A 
HETATM   27  C   UNL     1      27.514  44.332  53.643  1.00  0.00     0.029 A 
ENDBRANCH   1  22
TORSDOF 4
ENDMDL
MODEL 9
REMARK VINA RESULT:      -7.4      2.554      4.336
REMARK  4 active torsions:
REMARK  status: ('A' for Active; 'I' for Inactive)
REMARK    1  A    between atoms: C_5  and  C_6 
REMARK    2  A    between atoms: C_6  and  N_7 
REMARK    3  A    between atoms: C_6  and  C_18 
REMARK    4  A    between atoms: N_7  and  C_8 
ROOT
HETATM    1  C   UNL     1      26.110  43.664  52.593  1.00  0.00     0.290 C 
ENDROOT
BRANCH   1   2
HETATM    2  C   UNL     1      26.455  42.413  51.812  1.00  0.00     0.021 A 
HETATM    3  C   UNL     1      27.667  41.724  51.979  1.00  0.00     0.055 A 
HETATM    4  C   UNL     1      27.939  40.590  51.218  1.00  0.00     0.117 A 
HETATM    5  C   UNL     1      27.031  40.122  50.275  1.00  0.00     0.045 A 
HETATM    6  F   UNL     1      29.093  39.937  51.405  1.00  0.00    -0.206 F 
HETATM    7  C   UNL     1      25.828  40.799  50.088  1.00  0.00     0.046 A 
HETATM    8  C   UNL     1      25.552  41.932  50.851  1.00  0.00     0.125 A 
HETATM    9  F   UNL     1      24.384  42.564  50.665  1.00  0.00    -0.205 F 
ENDBRANCH   1   2
BRANCH   1  10
HETATM   10  N   UNL     1      26.987  43.917  53.764  1.00  0.00     0.101 N 
HETATM   11  H   UNL     1      27.203  43.012  54.176  1.00  0.00     0.317 HD
BRANCH  10  12
HETATM   12  C   UNL     1      28.177  44.740  53.511  1.00  0.00     0.225 C 
HETATM   13  C   UNL     1      29.529  44.036  53.753  1.00  0.00     0.069 C 
HETATM   14  C   UNL     1      29.773  43.798  55.230  1.00  0.00     0.190 C 
HETATM   15  N   UNL     1      29.728  45.123  55.945  1.00  0.00    -0.067 N 
HETATM   16  C   UNL     1      31.145  43.296  55.632  1.00  0.00     0.035 C 
HETATM   17  H   UNL     1      30.407  45.755  55.494  1.00  0.00     0.280 HD
HETATM   18  C   UNL     1      28.386  45.781  55.858  1.00  0.00     0.237 C 
HETATM   19  C   UNL     1      30.274  44.846  57.321  1.00  0.00     0.235 C 
HETATM   20  C   UNL     1      28.073  46.015  54.382  1.00  0.00     0.063 C 
HETATM   21  C   UNL     1      31.228  43.667  57.113  1.00  0.00     0.030 C 
ENDBRANCH  10  12
ENDBRANCH   1  10
BRANCH   1  22
HETATM   22  C   UNL     1      26.082  44.898  51.697  1.00  0.00    -0.018 A 
HETATM   23  C   UNL     1      25.247  45.978  52.012  1.00  0.00     0.029 A 
HETATM   24  C   UNL     1      25.249  47.090  51.184  1.00  0.00     0.116 A 
HETATM   25  N   UNL     1      26.012  47.198  50.078  1.00  0.00    -0.273 NA
HETATM   26  C   UNL     1      26.792  46.141  49.770  1.00  0.00     0.116 A 
HETATM   27  C   UNL     1      26.863  44.989  50.536  1.00  0.00     0.029 A 
ENDBRANCH   1  22
TORSDOF 4
ENDMDL
MODEL 10
REMARK VINA RESULT:      -7.3     17.390     19.431
REMARK  4 active torsions:
REMARK  status: ('A' for Active; 'I' for Inactive)
REMARK    1  A    between atoms: C_5  and  C_6 
REMARK    2  A    between atoms: C_6  and  N_7 
REMARK    3  A    between atoms: C_6  and  C_18 
REMARK    4  A    between atoms: N_7  and  C_8 
ROOT
HETATM    1  C   UNL     1      38.878  43.111  64.180  1.00  0.00     0.290 C 
ENDROOT
BRANCH   1   2
HETATM    2  C   UNL     1      39.294  41.674  63.940  1.00  0.00     0.021 A 
HETATM    3  C   UNL     1      39.170  41.048  62.689  1.00  0.00     0.055 A 
HETATM    4  C   UNL     1      39.549  39.718  62.531  1.00  0.00     0.117 A 
HETATM    5  C   UNL     1      40.045  38.979  63.600  1.00  0.00     0.045 A 
HETATM    6  F   UNL     1      39.440  39.143  61.326  1.00  0.00    -0.206 F 
HETATM    7  C   UNL     1      40.165  39.581  64.850  1.00  0.00     0.046 A 
HETATM    8  C   UNL     1      39.790  40.914  65.010  1.00  0.00     0.125 A 
HETATM    9  F   UNL     1      39.923  41.480  66.218  1.00  0.00    -0.205 F 
ENDBRANCH   1   2
BRANCH   1  10
HETATM   10  N   UNL     1      37.838  43.282  65.224  1.00  0.00     0.101 N 
HETATM   11  H   UNL     1      38.253  43.830  65.974  1.00  0.00     0.317 HD
BRANCH  10  12
HETATM   12  C   UNL     1      36.546  43.809  64.765  1.00  0.00     0.225 C 
HETATM   13  C   UNL     1      36.617  45.143  63.991  1.00  0.00     0.069 C 
HETATM   14  C   UNL     1      36.979  46.296  64.907  1.00  0.00     0.190 C 
HETATM   15  N   UNL     1      35.956  46.374  66.009  1.00  0.00    -0.067 N 
HETATM   16  C   UNL     1      36.890  47.693  64.327  1.00  0.00     0.035 C 
HETATM   17  H   UNL     1      35.021  46.446  65.577  1.00  0.00     0.280 HD
HETATM   18  C   UNL     1      35.947  45.156  66.878  1.00  0.00     0.237 C 
HETATM   19  C   UNL     1      36.201  47.700  66.680  1.00  0.00     0.235 C 
HETATM   20  C   UNL     1      35.620  43.953  65.996  1.00  0.00     0.063 C 
HETATM   21  C   UNL     1      36.786  48.577  65.570  1.00  0.00     0.030 C 
ENDBRANCH  10  12
ENDBRANCH   1  10
BRANCH   1  22
HETATM   22  C   UNL     1      40.077  43.998  64.499  1.00  0.00    -0.018 A 
HETATM   23  C   UNL     1      40.140  44.684  65.719  1.00  0.00     0.029 A 
HETATM   24  C   UNL     1      41.246  45.476  65.987  1.00  0.00     0.116 A 
HETATM   25  N   UNL     1      42.277  45.633  65.133  1.00  0.00    -0.273 NA
HETATM   26  C   UNL     1      42.193  44.990  63.951  1.00  0.00     0.116 A 
HETATM   27  C   UNL     1      41.133  44.173  63.594  1.00  0.00     0.029 A 
ENDBRANCH   1  22
TORSDOF 4
ENDMDL
