MODEL 1
REMARK VINA RESULT:     -11.2      0.000      0.000
REMARK  5 active torsions:
REMARK  status: ('A' for Active; 'I' for Inactive)
REMARK    1  A    between atoms: C_4  and  C_5 
REMARK    2  A    between atoms: C_5  and  N_6 
REMARK       I    between atoms: N_6  and  C_7 
REMARK    3  A    between atoms: C_7  and  C_8 
REMARK    4  A    between atoms: C_20  and  N_21 
REMARK       I    between atoms: N_21  and  C_22 
REMARK    5  A    between atoms: C_22  and  C_23 
ROOT
HETATM    1  C   UNL     1      27.058  44.671  52.487  1.00  0.00     0.079 A 
HETATM    2  C   UNL     1      27.928  44.728  53.507  1.00  0.00     0.131 A 
HETATM    3  N   UNL     1      28.876  43.711  53.665  1.00  0.00    -0.259 N 
HETATM    4  C   UNL     1      29.595  43.983  54.851  1.00  0.00     0.071 A 
HETATM    5  C   UNL     1      29.042  45.168  55.392  1.00  0.00     0.061 A 
HETATM    6  C   UNL     1      29.545  45.723  56.546  1.00  0.00     0.032 A 
HETATM    7  C   UNL     1      30.588  45.046  57.188  1.00  0.00     0.002 A 
HETATM    8  C   UNL     1      31.117  43.849  56.659  1.00  0.00     0.002 A 
HETATM    9  C   UNL     1      30.620  43.302  55.471  1.00  0.00     0.032 A 
HETATM   10  N   UNL     1      28.076  45.677  54.509  1.00  0.00    -0.339 N 
HETATM   11  C   UNL     1      29.032  42.637  52.818  1.00  0.00     0.281 A 
HETATM   12  O   UNL     1      29.863  41.732  52.916  1.00  0.00    -0.265 OA
HETATM   13  C   UNL     1      28.053  42.593  51.656  1.00  0.00     0.105 A 
HETATM   14  C   UNL     1      27.118  43.552  51.562  1.00  0.00     0.056 A 
HETATM   15  H   UNL     1      27.254  46.181  54.824  1.00  0.00     0.167 HD
ENDROOT
BRANCH   1  16
HETATM   16  C   UNL     1      26.064  45.770  52.324  1.00  0.00     0.255 C 
HETATM   17  N   UNL     1      25.747  46.033  51.016  1.00  0.00    -0.353 N 
HETATM   18  H   UNL     1      26.202  45.525  50.269  1.00  0.00     0.163 HD
HETATM   19  O   UNL     1      25.606  46.382  53.283  1.00  0.00    -0.268 OA
BRANCH  17  20
HETATM   20  C   UNL     1      24.743  47.002  50.648  1.00  0.00     0.161 C 
BRANCH  20  21
HETATM   21  C   UNL     1      25.336  48.053  49.748  1.00  0.00    -0.041 A 
HETATM   22  C   UNL     1      26.727  48.235  49.685  1.00  0.00     0.009 A 
HETATM   23  C   UNL     1      27.276  49.243  48.890  1.00  0.00     0.001 A 
HETATM   24  C   UNL     1      26.441  50.075  48.147  1.00  0.00     0.000 A 
HETATM   25  C   UNL     1      25.059  49.903  48.199  1.00  0.00     0.001 A 
HETATM   26  C   UNL     1      24.508  48.900  49.000  1.00  0.00     0.009 A 
ENDBRANCH  20  21
ENDBRANCH  17  20
ENDBRANCH   1  16
BRANCH  13  27
HETATM   27  N   UNL     1      28.222  41.533  50.781  1.00  0.00    -0.318 N 
HETATM   28  C   UNL     1      27.334  40.514  50.502  1.00  0.00     0.256 C 
HETATM   29  O   UNL     1      26.227  40.380  51.014  1.00  0.00    -0.267 OA
HETATM   30  H   UNL     1      29.075  41.612  50.230  1.00  0.00     0.169 HD
BRANCH  28  31
HETATM   31  C   UNL     1      27.755  39.541  49.451  1.00  0.00     0.032 A 
HETATM   32  C   UNL     1      26.980  39.273  48.312  1.00  0.00     0.020 A 
HETATM   33  C   UNL     1      27.427  38.341  47.370  1.00  0.00     0.043 A 
HETATM   34  C   UNL     1      28.642  37.691  47.562  1.00  0.00     0.116 A 
HETATM   35  F   UNL     1      29.064  36.799  46.657  1.00  0.00    -0.206 F 
HETATM   36  C   UNL     1      29.429  37.958  48.675  1.00  0.00     0.043 A 
HETATM   37  C   UNL     1      28.987  38.887  49.620  1.00  0.00     0.020 A 
ENDBRANCH  28  31
ENDBRANCH  13  27
TORSDOF 5
ENDMDL
MODEL 2
REMARK VINA RESULT:     -11.2      3.403      8.570
REMARK  5 active torsions:
REMARK  status: ('A' for Active; 'I' for Inactive)
REMARK    1  A    between atoms: C_4  and  C_5 
REMARK    2  A    between atoms: C_5  and  N_6 
REMARK       I    between atoms: N_6  and  C_7 
REMARK    3  A    between atoms: C_7  and  C_8 
REMARK    4  A    between atoms: C_20  and  N_21 
REMARK       I    between atoms: N_21  and  C_22 
REMARK    5  A    between atoms: C_22  and  C_23 
ROOT
HETATM    1  C   UNL     1      26.586  44.949  53.018  1.00  0.00     0.079 A 
HETATM    2  C   UNL     1      27.001  43.900  52.291  1.00  0.00     0.131 A 
HETATM    3  N   UNL     1      26.587  43.774  50.960  1.00  0.00    -0.259 N 
HETATM    4  C   UNL     1      27.099  42.551  50.471  1.00  0.00     0.071 A 
HETATM    5  C   UNL     1      27.808  41.956  51.542  1.00  0.00     0.061 A 
HETATM    6  C   UNL     1      28.459  40.755  51.383  1.00  0.00     0.032 A 
HETATM    7  C   UNL     1      28.353  40.123  50.138  1.00  0.00     0.002 A 
HETATM    8  C   UNL     1      27.621  40.707  49.082  1.00  0.00     0.002 A 
HETATM    9  C   UNL     1      26.983  41.941  49.241  1.00  0.00     0.032 A 
HETATM   10  N   UNL     1      27.824  42.837  52.636  1.00  0.00    -0.339 N 
HETATM   11  C   UNL     1      25.797  44.680  50.288  1.00  0.00     0.281 A 
HETATM   12  O   UNL     1      25.426  44.611  49.116  1.00  0.00    -0.265 OA
HETATM   13  C   UNL     1      25.349  45.873  51.117  1.00  0.00     0.105 A 
HETATM   14  C   UNL     1      25.715  45.938  52.407  1.00  0.00     0.056 A 
HETATM   15  H   UNL     1      27.826  42.518  53.599  1.00  0.00     0.167 HD
ENDROOT
BRANCH   1  16
HETATM   16  C   UNL     1      27.047  45.075  54.430  1.00  0.00     0.255 C 
HETATM   17  N   UNL     1      28.099  45.942  54.587  1.00  0.00    -0.353 N 
HETATM   18  H   UNL     1      28.510  46.397  53.782  1.00  0.00     0.163 HD
HETATM   19  O   UNL     1      26.536  44.436  55.342  1.00  0.00    -0.268 OA
BRANCH  17  20
HETATM   20  C   UNL     1      28.639  46.267  55.885  1.00  0.00     0.161 C 
BRANCH  20  21
HETATM   21  C   UNL     1      29.712  45.283  56.268  1.00  0.00    -0.041 A 
HETATM   22  C   UNL     1      30.072  44.246  55.391  1.00  0.00     0.009 A 
HETATM   23  C   UNL     1      31.030  43.302  55.766  1.00  0.00     0.001 A 
HETATM   24  C   UNL     1      31.640  43.387  57.016  1.00  0.00     0.000 A 
HETATM   25  C   UNL     1      31.292  44.412  57.893  1.00  0.00     0.001 A 
HETATM   26  C   UNL     1      30.329  45.354  57.523  1.00  0.00     0.009 A 
ENDBRANCH  20  21
ENDBRANCH  17  20
ENDBRANCH   1  16
BRANCH  13  27
HETATM   27  N   UNL     1      24.580  46.806  50.441  1.00  0.00    -0.318 N 
HETATM   28  C   UNL     1      25.011  47.932  49.769  1.00  0.00     0.256 C 
HETATM   29  O   UNL     1      26.180  48.297  49.677  1.00  0.00    -0.267 OA
HETATM   30  H   UNL     1      23.601  46.534  50.375  1.00  0.00     0.169 HD
BRANCH  28  31
HETATM   31  C   UNL     1      23.961  48.721  49.061  1.00  0.00     0.032 A 
HETATM   32  C   UNL     1      24.246  49.892  48.343  1.00  0.00     0.020 A 
HETATM   33  C   UNL     1      23.213  50.591  47.712  1.00  0.00     0.043 A 
HETATM   34  C   UNL     1      21.907  50.116  47.790  1.00  0.00     0.116 A 
HETATM   35  F   UNL     1      20.922  50.790  47.183  1.00  0.00    -0.206 F 
HETATM   36  C   UNL     1      21.611  48.948  48.481  1.00  0.00     0.043 A 
HETATM   37  C   UNL     1      22.639  48.247  49.115  1.00  0.00     0.020 A 
ENDBRANCH  28  31
ENDBRANCH  13  27
TORSDOF 5
ENDMDL
MODEL 3
REMARK VINA RESULT:     -10.8      2.903      6.990
REMARK  5 active torsions:
REMARK  status: ('A' for Active; 'I' for Inactive)
REMARK    1  A    between atoms: C_4  and  C_5 
REMARK    2  A    between atoms: C_5  and  N_6 
REMARK       I    between atoms: N_6  and  C_7 
REMARK    3  A    between atoms: C_7  and  C_8 
REMARK    4  A    between atoms: C_20  and  N_21 
REMARK       I    between atoms: N_21  and  C_22 
REMARK    5  A    between atoms: C_22  and  C_23 
ROOT
HETATM    1  C   UNL     1      26.522  43.807  50.474  1.00  0.00     0.079 A 
HETATM    2  C   UNL     1      26.693  42.578  49.961  1.00  0.00     0.131 A 
HETATM    3  N   UNL     1      27.619  41.707  50.546  1.00  0.00    -0.259 N 
HETATM    4  C   UNL     1      27.650  40.533  49.761  1.00  0.00     0.071 A 
HETATM    5  C   UNL     1      26.738  40.736  48.698  1.00  0.00     0.061 A 
HETATM    6  C   UNL     1      26.510  39.756  47.760  1.00  0.00     0.032 A 
HETATM    7  C   UNL     1      27.248  38.573  47.870  1.00  0.00     0.002 A 
HETATM    8  C   UNL     1      28.177  38.386  48.916  1.00  0.00     0.002 A 
HETATM    9  C   UNL     1      28.387  39.375  49.882  1.00  0.00     0.032 A 
HETATM   10  N   UNL     1      26.079  41.964  48.879  1.00  0.00    -0.339 N 
HETATM   11  C   UNL     1      28.371  41.988  51.665  1.00  0.00     0.281 A 
HETATM   12  O   UNL     1      29.182  41.242  52.216  1.00  0.00    -0.265 OA
HETATM   13  C   UNL     1      28.155  43.375  52.248  1.00  0.00     0.105 A 
HETATM   14  C   UNL     1      27.302  44.209  51.632  1.00  0.00     0.056 A 
HETATM   15  H   UNL     1      25.770  42.541  48.104  1.00  0.00     0.167 HD
ENDROOT
BRANCH   1  16
HETATM   16  C   UNL     1      25.522  44.717  49.847  1.00  0.00     0.255 C 
HETATM   17  N   UNL     1      25.278  45.851  50.580  1.00  0.00    -0.353 N 
HETATM   18  H   UNL     1      25.733  45.988  51.473  1.00  0.00     0.163 HD
HETATM   19  O   UNL     1      24.966  44.445  48.789  1.00  0.00    -0.268 OA
BRANCH  17  20
HETATM   20  C   UNL     1      24.406  46.899  50.108  1.00  0.00     0.161 C 
BRANCH  20  21
HETATM   21  C   UNL     1      25.213  48.026  49.521  1.00  0.00    -0.041 A 
HETATM   22  C   UNL     1      24.586  49.038  48.775  1.00  0.00     0.009 A 
HETATM   23  C   UNL     1      25.338  50.055  48.187  1.00  0.00     0.001 A 
HETATM   24  C   UNL     1      26.723  50.076  48.342  1.00  0.00     0.000 A 
HETATM   25  C   UNL     1      27.357  49.079  49.082  1.00  0.00     0.001 A 
HETATM   26  C   UNL     1      26.606  48.056  49.666  1.00  0.00     0.009 A 
ENDBRANCH  20  21
ENDBRANCH  17  20
ENDBRANCH   1  16
BRANCH  13  27
HETATM   27  N   UNL     1      28.883  43.654  53.392  1.00  0.00    -0.318 N 
HETATM   28  C   UNL     1      28.620  44.612  54.351  1.00  0.00     0.256 C 
HETATM   29  O   UNL     1      27.676  45.396  54.327  1.00  0.00    -0.267 OA
HETATM   30  H   UNL     1      29.634  42.985  53.553  1.00  0.00     0.169 HD
BRANCH  28  31
HETATM   31  C   UNL     1      29.539  44.639  55.527  1.00  0.00     0.032 A 
HETATM   32  C   UNL     1      30.567  43.701  55.708  1.00  0.00     0.020 A 
HETATM   33  C   UNL     1      31.386  43.776  56.839  1.00  0.00     0.043 A 
HETATM   34  C   UNL     1      31.185  44.786  57.774  1.00  0.00     0.116 A 
HETATM   35  F   UNL     1      31.972  44.852  58.855  1.00  0.00    -0.206 F 
HETATM   36  C   UNL     1      30.183  45.733  57.599  1.00  0.00     0.043 A 
HETATM   37  C   UNL     1      29.361  45.662  56.473  1.00  0.00     0.020 A 
ENDBRANCH  28  31
ENDBRANCH  13  27
TORSDOF 5
ENDMDL
MODEL 4
REMARK VINA RESULT:     -10.7      2.886      8.256
REMARK  5 active torsions:
REMARK  status: ('A' for Active; 'I' for Inactive)
REMARK    1  A    between atoms: C_4  and  C_5 
REMARK    2  A    between atoms: C_5  and  N_6 
REMARK       I    between atoms: N_6  and  C_7 
REMARK    3  A    between atoms: C_7  and  C_8 
REMARK    4  A    between atoms: C_20  and  N_21 
REMARK       I    between atoms: N_21  and  C_22 
REMARK    5  A    between atoms: C_22  and  C_23 
ROOT
HETATM    1  C   UNL     1      28.376  42.338  52.039  1.00  0.00     0.079 A 
HETATM    2  C   UNL     1      28.293  41.307  51.184  1.00  0.00     0.131 A 
HETATM    3  N   UNL     1      27.615  41.467  49.971  1.00  0.00    -0.259 N 
HETATM    4  C   UNL     1      27.614  40.214  49.318  1.00  0.00     0.071 A 
HETATM    5  C   UNL     1      28.290  39.314  50.176  1.00  0.00     0.061 A 
HETATM    6  C   UNL     1      28.488  38.001  49.815  1.00  0.00     0.032 A 
HETATM    7  C   UNL     1      27.953  37.580  48.592  1.00  0.00     0.002 A 
HETATM    8  C   UNL     1      27.255  38.475  47.753  1.00  0.00     0.002 A 
HETATM    9  C   UNL     1      27.079  39.815  48.112  1.00  0.00     0.032 A 
HETATM   10  N   UNL     1      28.791  40.015  51.285  1.00  0.00    -0.339 N 
HETATM   11  C   UNL     1      27.036  42.639  49.537  1.00  0.00     0.281 A 
HETATM   12  O   UNL     1      26.446  42.821  48.471  1.00  0.00    -0.265 OA
HETATM   13  C   UNL     1      27.152  43.804  50.505  1.00  0.00     0.105 A 
HETATM   14  C   UNL     1      27.760  43.606  51.686  1.00  0.00     0.056 A 
HETATM   15  H   UNL     1      28.877  39.599  52.206  1.00  0.00     0.167 HD
ENDROOT
BRANCH   1  16
HETATM   16  C   UNL     1      29.114  42.156  53.321  1.00  0.00     0.255 C 
HETATM   17  N   UNL     1      30.025  43.149  53.576  1.00  0.00    -0.353 N 
HETATM   18  H   UNL     1      30.169  43.893  52.905  1.00  0.00     0.163 HD
HETATM   19  O   UNL     1      28.926  41.187  54.049  1.00  0.00    -0.268 OA
BRANCH  17  20
HETATM   20  C   UNL     1      30.782  43.202  54.803  1.00  0.00     0.161 C 
BRANCH  20  21
HETATM   21  C   UNL     1      30.240  44.278  55.706  1.00  0.00    -0.041 A 
HETATM   22  C   UNL     1      30.799  44.489  56.977  1.00  0.00     0.009 A 
HETATM   23  C   UNL     1      30.264  45.451  57.836  1.00  0.00     0.001 A 
HETATM   24  C   UNL     1      29.171  46.215  57.432  1.00  0.00     0.000 A 
HETATM   25  C   UNL     1      28.610  46.017  56.172  1.00  0.00     0.001 A 
HETATM   26  C   UNL     1      29.138  45.050  55.314  1.00  0.00     0.009 A 
ENDBRANCH  20  21
ENDBRANCH  17  20
ENDBRANCH   1  16
BRANCH  13  27
HETATM   27  N   UNL     1      26.601  44.996  50.063  1.00  0.00    -0.318 N 
HETATM   28  C   UNL     1      25.423  45.587  50.473  1.00  0.00     0.256 C 
HETATM   29  O   UNL     1      24.653  45.126  51.310  1.00  0.00    -0.267 OA
HETATM   30  H   UNL     1      27.221  45.506  49.437  1.00  0.00     0.169 HD
BRANCH  28  31
HETATM   31  C   UNL     1      25.112  46.920  49.877  1.00  0.00     0.032 A 
HETATM   32  C   UNL     1      23.804  47.330  49.576  1.00  0.00     0.020 A 
HETATM   33  C   UNL     1      23.583  48.588  49.007  1.00  0.00     0.043 A 
HETATM   34  C   UNL     1      24.659  49.432  48.752  1.00  0.00     0.116 A 
HETATM   35  F   UNL     1      24.440  50.635  48.207  1.00  0.00    -0.206 F 
HETATM   36  C   UNL     1      25.958  49.048  49.061  1.00  0.00     0.043 A 
HETATM   37  C   UNL     1      26.185  47.792  49.627  1.00  0.00     0.020 A 
ENDBRANCH  28  31
ENDBRANCH  13  27
TORSDOF 5
ENDMDL
MODEL 5
REMARK VINA RESULT:     -10.5      4.607      8.603
REMARK  5 active torsions:
REMARK  status: ('A' for Active; 'I' for Inactive)
REMARK    1  A    between atoms: C_4  and  C_5 
REMARK    2  A    between atoms: C_5  and  N_6 
REMARK       I    between atoms: N_6  and  C_7 
REMARK    3  A    between atoms: C_7  and  C_8 
REMARK    4  A    between atoms: C_20  and  N_21 
REMARK       I    between atoms: N_21  and  C_22 
REMARK    5  A    between atoms: C_22  and  C_23 
ROOT
HETATM    1  C   UNL     1      23.617  47.595  49.155  1.00  0.00     0.079 A 
HETATM    2  C   UNL     1      23.115  46.478  48.604  1.00  0.00     0.131 A 
HETATM    3  N   UNL     1      23.570  45.228  49.039  1.00  0.00    -0.259 N 
HETATM    4  C   UNL     1      22.941  44.248  48.240  1.00  0.00     0.071 A 
HETATM    5  C   UNL     1      22.121  44.945  47.321  1.00  0.00     0.061 A 
HETATM    6  C   UNL     1      21.342  44.269  46.410  1.00  0.00     0.032 A 
HETATM    7  C   UNL     1      21.429  42.872  46.396  1.00  0.00     0.002 A 
HETATM    8  C   UNL     1      22.269  42.184  47.296  1.00  0.00     0.002 A 
HETATM    9  C   UNL     1      23.039  42.873  48.238  1.00  0.00     0.032 A 
HETATM   10  N   UNL     1      22.160  46.318  47.611  1.00  0.00    -0.339 N 
HETATM   11  C   UNL     1      24.489  45.027  50.045  1.00  0.00     0.281 A 
HETATM   12  O   UNL     1      24.900  43.944  50.464  1.00  0.00    -0.265 OA
HETATM   13  C   UNL     1      25.036  46.299  50.673  1.00  0.00     0.105 A 
HETATM   14  C   UNL     1      24.623  47.485  50.196  1.00  0.00     0.056 A 
HETATM   15  H   UNL     1      22.078  47.034  46.897  1.00  0.00     0.167 HD
ENDROOT
BRANCH   1  16
HETATM   16  C   UNL     1      23.112  48.918  48.690  1.00  0.00     0.255 C 
HETATM   17  N   UNL     1      22.534  49.665  49.685  1.00  0.00    -0.353 N 
HETATM   18  H   UNL     1      22.451  49.290  50.621  1.00  0.00     0.163 HD
HETATM   19  O   UNL     1      23.193  49.272  47.519  1.00  0.00    -0.268 OA
BRANCH  17  20
HETATM   20  C   UNL     1      22.058  51.008  49.461  1.00  0.00     0.161 C 
BRANCH  20  21
HETATM   21  C   UNL     1      20.553  51.037  49.465  1.00  0.00    -0.041 A 
HETATM   22  C   UNL     1      19.857  52.004  48.721  1.00  0.00     0.009 A 
HETATM   23  C   UNL     1      18.464  52.066  48.765  1.00  0.00     0.001 A 
HETATM   24  C   UNL     1      17.751  51.159  49.547  1.00  0.00     0.000 A 
HETATM   25  C   UNL     1      18.430  50.193  50.288  1.00  0.00     0.001 A 
HETATM   26  C   UNL     1      19.825  50.135  50.251  1.00  0.00     0.009 A 
ENDBRANCH  20  21
ENDBRANCH  17  20
ENDBRANCH   1  16
BRANCH  13  27
HETATM   27  N   UNL     1      25.937  46.106  51.706  1.00  0.00    -0.318 N 
HETATM   28  C   UNL     1      26.016  46.792  52.901  1.00  0.00     0.256 C 
HETATM   29  O   UNL     1      25.282  47.718  53.235  1.00  0.00    -0.267 OA
HETATM   30  H   UNL     1      26.527  45.288  51.566  1.00  0.00     0.169 HD
BRANCH  28  31
HETATM   31  C   UNL     1      27.046  46.317  53.870  1.00  0.00     0.032 A 
HETATM   32  C   UNL     1      27.575  47.136  54.879  1.00  0.00     0.020 A 
HETATM   33  C   UNL     1      28.548  46.631  55.747  1.00  0.00     0.043 A 
HETATM   34  C   UNL     1      28.979  45.314  55.613  1.00  0.00     0.116 A 
HETATM   35  F   UNL     1      29.911  44.837  56.448  1.00  0.00    -0.206 F 
HETATM   36  C   UNL     1      28.452  44.485  54.631  1.00  0.00     0.043 A 
HETATM   37  C   UNL     1      27.482  44.985  53.760  1.00  0.00     0.020 A 
ENDBRANCH  28  31
ENDBRANCH  13  27
TORSDOF 5
ENDMDL
MODEL 6
REMARK VINA RESULT:     -10.3      2.916      7.245
REMARK  5 active torsions:
REMARK  status: ('A' for Active; 'I' for Inactive)
REMARK    1  A    between atoms: C_4  and  C_5 
REMARK    2  A    between atoms: C_5  and  N_6 
REMARK       I    between atoms: N_6  and  C_7 
REMARK    3  A    between atoms: C_7  and  C_8 
REMARK    4  A    between atoms: C_20  and  N_21 
REMARK       I    between atoms: N_21  and  C_22 
REMARK    5  A    between atoms: C_22  and  C_23 
ROOT
HETATM    1  C   UNL     1      28.113  42.354  52.078  1.00  0.00     0.079 A 
HETATM    2  C   UNL     1      28.666  42.894  53.176  1.00  0.00     0.131 A 
HETATM    3  N   UNL     1      28.261  44.166  53.599  1.00  0.00    -0.259 N 
HETATM    4  C   UNL     1      29.056  44.513  54.713  1.00  0.00     0.071 A 
HETATM    5  C   UNL     1      29.944  43.432  54.927  1.00  0.00     0.061 A 
HETATM    6  C   UNL     1      30.843  43.445  55.968  1.00  0.00     0.032 A 
HETATM    7  C   UNL     1      30.879  44.587  56.776  1.00  0.00     0.002 A 
HETATM    8  C   UNL     1      30.011  45.675  56.542  1.00  0.00     0.002 A 
HETATM    9  C   UNL     1      29.080  45.646  55.498  1.00  0.00     0.032 A 
HETATM   10  N   UNL     1      29.636  42.394  54.032  1.00  0.00    -0.339 N 
HETATM   11  C   UNL     1      27.283  44.925  52.996  1.00  0.00     0.281 A 
HETATM   12  O   UNL     1      26.891  46.039  53.349  1.00  0.00    -0.265 OA
HETATM   13  C   UNL     1      26.653  44.295  51.766  1.00  0.00     0.105 A 
HETATM   14  C   UNL     1      27.101  43.099  51.350  1.00  0.00     0.056 A 
HETATM   15  H   UNL     1      30.337  41.765  53.656  1.00  0.00     0.167 HD
ENDROOT
BRANCH   1  16
HETATM   16  C   UNL     1      28.546  40.994  51.648  1.00  0.00     0.255 C 
HETATM   17  N   UNL     1      28.387  40.767  50.305  1.00  0.00    -0.353 N 
HETATM   18  H   UNL     1      27.976  41.477  49.713  1.00  0.00     0.163 HD
HETATM   19  O   UNL     1      28.975  40.165  52.443  1.00  0.00    -0.268 OA
BRANCH  17  20
HETATM   20  C   UNL     1      28.823  39.544  49.675  1.00  0.00     0.161 C 
BRANCH  20  21
HETATM   21  C   UNL     1      28.485  39.563  48.208  1.00  0.00    -0.041 A 
HETATM   22  C   UNL     1      28.377  38.362  47.487  1.00  0.00     0.009 A 
HETATM   23  C   UNL     1      28.116  38.379  46.116  1.00  0.00     0.001 A 
HETATM   24  C   UNL     1      27.954  39.594  45.453  1.00  0.00     0.000 A 
HETATM   25  C   UNL     1      28.057  40.792  46.158  1.00  0.00     0.001 A 
HETATM   26  C   UNL     1      28.325  40.777  47.529  1.00  0.00     0.009 A 
ENDBRANCH  20  21
ENDBRANCH  17  20
ENDBRANCH   1  16
BRANCH  13  27
HETATM   27  N   UNL     1      25.646  45.038  51.172  1.00  0.00    -0.318 N 
HETATM   28  C   UNL     1      25.735  45.845  50.055  1.00  0.00     0.256 C 
HETATM   29  O   UNL     1      26.757  46.042  49.404  1.00  0.00    -0.267 OA
HETATM   30  H   UNL     1      24.732  44.860  51.583  1.00  0.00     0.169 HD
BRANCH  28  31
HETATM   31  C   UNL     1      24.463  46.471  49.590  1.00  0.00     0.032 A 
HETATM   32  C   UNL     1      23.399  45.724  49.062  1.00  0.00     0.020 A 
HETATM   33  C   UNL     1      22.238  46.375  48.633  1.00  0.00     0.043 A 
HETATM   34  C   UNL     1      22.139  47.759  48.743  1.00  0.00     0.116 A 
HETATM   35  F   UNL     1      21.024  48.375  48.330  1.00  0.00    -0.206 F 
HETATM   36  C   UNL     1      23.176  48.510  49.280  1.00  0.00     0.043 A 
HETATM   37  C   UNL     1      24.339  47.866  49.708  1.00  0.00     0.020 A 
ENDBRANCH  28  31
ENDBRANCH  13  27
TORSDOF 5
ENDMDL
MODEL 7
REMARK VINA RESULT:     -10.1      3.013      8.772
REMARK  5 active torsions:
REMARK  status: ('A' for Active; 'I' for Inactive)
REMARK    1  A    between atoms: C_4  and  C_5 
REMARK    2  A    between atoms: C_5  and  N_6 
REMARK       I    between atoms: N_6  and  C_7 
REMARK    3  A    between atoms: C_7  and  C_8 
REMARK    4  A    between atoms: C_20  and  N_21 
REMARK       I    between atoms: N_21  and  C_22 
REMARK    5  A    between atoms: C_22  and  C_23 
ROOT
HETATM    1  C   UNL     1      26.403  42.575  50.445  1.00  0.00     0.079 A 
HETATM    2  C   UNL     1      25.718  43.654  50.035  1.00  0.00     0.131 A 
HETATM    3  N   UNL     1      25.747  44.824  50.801  1.00  0.00    -0.259 N 
HETATM    4  C   UNL     1      24.883  45.756  50.184  1.00  0.00     0.071 A 
HETATM    5  C   UNL     1      24.336  45.107  49.051  1.00  0.00     0.061 A 
HETATM    6  C   UNL     1      23.468  45.760  48.208  1.00  0.00     0.032 A 
HETATM    7  C   UNL     1      23.109  47.072  48.540  1.00  0.00     0.002 A 
HETATM    8  C   UNL     1      23.635  47.705  49.686  1.00  0.00     0.002 A 
HETATM    9  C   UNL     1      24.539  47.045  50.526  1.00  0.00     0.032 A 
HETATM   10  N   UNL     1      24.927  43.841  48.910  1.00  0.00    -0.339 N 
HETATM   11  C   UNL     1      26.471  44.993  51.960  1.00  0.00     0.281 A 
HETATM   12  O   UNL     1      26.533  46.011  52.651  1.00  0.00    -0.265 OA
HETATM   13  C   UNL     1      27.257  43.770  52.405  1.00  0.00     0.105 A 
HETATM   14  C   UNL     1      27.166  42.644  51.680  1.00  0.00     0.056 A 
HETATM   15  H   UNL     1      24.432  43.042  48.527  1.00  0.00     0.167 HD
ENDROOT
BRANCH   1  16
HETATM   16  C   UNL     1      26.373  41.341  49.610  1.00  0.00     0.255 C 
HETATM   17  N   UNL     1      27.566  41.069  48.990  1.00  0.00    -0.353 N 
HETATM   18  H   UNL     1      28.349  41.701  49.093  1.00  0.00     0.163 HD
HETATM   19  O   UNL     1      25.359  40.662  49.486  1.00  0.00    -0.268 OA
BRANCH  17  20
HETATM   20  C   UNL     1      27.769  39.877  48.204  1.00  0.00     0.161 C 
BRANCH  20  21
HETATM   21  C   UNL     1      28.231  38.744  49.082  1.00  0.00    -0.041 A 
HETATM   22  C   UNL     1      27.410  37.623  49.288  1.00  0.00     0.009 A 
HETATM   23  C   UNL     1      27.813  36.596  50.143  1.00  0.00     0.001 A 
HETATM   24  C   UNL     1      29.042  36.676  50.795  1.00  0.00     0.000 A 
HETATM   25  C   UNL     1      29.866  37.782  50.597  1.00  0.00     0.001 A 
HETATM   26  C   UNL     1      29.461  38.814  49.748  1.00  0.00     0.009 A 
ENDBRANCH  20  21
ENDBRANCH  17  20
ENDBRANCH   1  16
BRANCH  13  27
HETATM   27  N   UNL     1      28.014  43.941  53.552  1.00  0.00    -0.318 N 
HETATM   28  C   UNL     1      29.344  43.624  53.744  1.00  0.00     0.256 C 
HETATM   29  O   UNL     1      30.079  43.115  52.903  1.00  0.00    -0.267 OA
HETATM   30  H   UNL     1      27.517  44.452  54.278  1.00  0.00     0.169 HD
BRANCH  28  31
HETATM   31  C   UNL     1      29.925  43.991  55.069  1.00  0.00     0.032 A 
HETATM   32  C   UNL     1      29.607  45.185  55.733  1.00  0.00     0.020 A 
HETATM   33  C   UNL     1      30.196  45.474  56.968  1.00  0.00     0.043 A 
HETATM   34  C   UNL     1      31.087  44.570  57.537  1.00  0.00     0.116 A 
HETATM   35  F   UNL     1      31.648  44.853  58.720  1.00  0.00    -0.206 F 
HETATM   36  C   UNL     1      31.399  43.375  56.902  1.00  0.00     0.043 A 
HETATM   37  C   UNL     1      30.815  43.082  55.668  1.00  0.00     0.020 A 
ENDBRANCH  28  31
ENDBRANCH  13  27
TORSDOF 5
ENDMDL
MODEL 8
REMARK VINA RESULT:     -10.1      3.632      8.643
REMARK  5 active torsions:
REMARK  status: ('A' for Active; 'I' for Inactive)
REMARK    1  A    between atoms: C_4  and  C_5 
REMARK    2  A    between atoms: C_5  and  N_6 
REMARK       I    between atoms: N_6  and  C_7 
REMARK    3  A    between atoms: C_7  and  C_8 
REMARK    4  A    between atoms: C_20  and  N_21 
REMARK       I    between atoms: N_21  and  C_22 
REMARK    5  A    between atoms: C_22  and  C_23 
ROOT
HETATM    1  C   UNL     1      25.650  43.712  50.213  1.00  0.00     0.079 A 
HETATM    2  C   UNL     1      26.357  43.839  51.346  1.00  0.00     0.131 A 
HETATM    3  N   UNL     1      26.306  45.041  52.062  1.00  0.00    -0.259 N 
HETATM    4  C   UNL     1      27.199  44.923  53.151  1.00  0.00     0.071 A 
HETATM    5  C   UNL     1      27.785  43.639  53.052  1.00  0.00     0.061 A 
HETATM    6  C   UNL     1      28.689  43.197  53.990  1.00  0.00     0.032 A 
HETATM    7  C   UNL     1      29.043  44.083  55.014  1.00  0.00     0.002 A 
HETATM    8  C   UNL     1      28.476  45.373  55.092  1.00  0.00     0.002 A 
HETATM    9  C   UNL     1      27.537  45.808  54.151  1.00  0.00     0.032 A 
HETATM   10  N   UNL     1      27.192  42.937  51.990  1.00  0.00    -0.339 N 
HETATM   11  C   UNL     1      25.538  46.132  51.722  1.00  0.00     0.281 A 
HETATM   12  O   UNL     1      25.456  47.197  52.334  1.00  0.00    -0.265 OA
HETATM   13  C   UNL     1      24.728  45.969  50.446  1.00  0.00     0.105 A 
HETATM   14  C   UNL     1      24.841  44.826  49.750  1.00  0.00     0.056 A 
HETATM   15  H   UNL     1      27.696  42.258  51.430  1.00  0.00     0.167 HD
ENDROOT
BRANCH   1  16
HETATM   16  C   UNL     1      25.705  42.421  49.469  1.00  0.00     0.255 C 
HETATM   17  N   UNL     1      26.847  42.265  48.725  1.00  0.00    -0.353 N 
HETATM   18  H   UNL     1      27.537  43.004  48.690  1.00  0.00     0.163 HD
HETATM   19  O   UNL     1      24.792  41.603  49.515  1.00  0.00    -0.268 OA
BRANCH  17  20
HETATM   20  C   UNL     1      27.131  41.051  47.999  1.00  0.00     0.161 C 
BRANCH  20  21
HETATM   21  C   UNL     1      28.011  40.145  48.818  1.00  0.00    -0.041 A 
HETATM   22  C   UNL     1      28.629  39.030  48.230  1.00  0.00     0.009 A 
HETATM   23  C   UNL     1      29.403  38.160  48.999  1.00  0.00     0.001 A 
HETATM   24  C   UNL     1      29.571  38.398  50.362  1.00  0.00     0.000 A 
HETATM   25  C   UNL     1      28.965  39.502  50.957  1.00  0.00     0.001 A 
HETATM   26  C   UNL     1      28.184  40.370  50.190  1.00  0.00     0.009 A 
ENDBRANCH  20  21
ENDBRANCH  17  20
ENDBRANCH   1  16
BRANCH  13  27
HETATM   27  N   UNL     1      23.928  47.049  50.113  1.00  0.00    -0.318 N 
HETATM   28  C   UNL     1      24.296  48.204  49.451  1.00  0.00     0.256 C 
HETATM   29  O   UNL     1      25.428  48.462  49.055  1.00  0.00    -0.267 OA
HETATM   30  H   UNL     1      22.943  46.885  50.312  1.00  0.00     0.169 HD
BRANCH  28  31
HETATM   31  C   UNL     1      23.200  49.173  49.157  1.00  0.00     0.032 A 
HETATM   32  C   UNL     1      21.843  48.821  49.201  1.00  0.00     0.020 A 
HETATM   33  C   UNL     1      20.866  49.776  48.902  1.00  0.00     0.043 A 
HETATM   34  C   UNL     1      21.244  51.074  48.574  1.00  0.00     0.116 A 
HETATM   35  F   UNL     1      20.303  51.984  48.289  1.00  0.00    -0.206 F 
HETATM   36  C   UNL     1      22.583  51.444  48.545  1.00  0.00     0.043 A 
HETATM   37  C   UNL     1      23.563  50.494  48.840  1.00  0.00     0.020 A 
ENDBRANCH  28  31
ENDBRANCH  13  27
TORSDOF 5
ENDMDL
MODEL 9
REMARK VINA RESULT:      -9.8      1.576      2.221
REMARK  5 active torsions:
REMARK  status: ('A' for Active; 'I' for Inactive)
REMARK    1  A    between atoms: C_4  and  C_5 
REMARK    2  A    between atoms: C_5  and  N_6 
REMARK       I    between atoms: N_6  and  C_7 
REMARK    3  A    between atoms: C_7  and  C_8 
REMARK    4  A    between atoms: C_20  and  N_21 
REMARK       I    between atoms: N_21  and  C_22 
REMARK    5  A    between atoms: C_22  and  C_23 
ROOT
HETATM    1  C   UNL     1      26.700  44.528  52.417  1.00  0.00     0.079 A 
HETATM    2  C   UNL     1      27.680  44.543  53.334  1.00  0.00     0.131 A 
HETATM    3  N   UNL     1      28.512  43.426  53.474  1.00  0.00    -0.259 N 
HETATM    4  C   UNL     1      29.387  43.683  54.553  1.00  0.00     0.071 A 
HETATM    5  C   UNL     1      29.043  44.962  55.052  1.00  0.00     0.061 A 
HETATM    6  C   UNL     1      29.735  45.525  56.100  1.00  0.00     0.032 A 
HETATM    7  C   UNL     1      30.756  44.766  56.683  1.00  0.00     0.002 A 
HETATM    8  C   UNL     1      31.076  43.479  56.199  1.00  0.00     0.002 A 
HETATM    9  C   UNL     1      30.387  42.922  55.117  1.00  0.00     0.032 A 
HETATM   10  N   UNL     1      28.051  45.529  54.236  1.00  0.00    -0.339 N 
HETATM   11  C   UNL     1      28.443  42.287  52.704  1.00  0.00     0.281 A 
HETATM   12  O   UNL     1      29.167  41.293  52.788  1.00  0.00    -0.265 OA
HETATM   13  C   UNL     1      27.341  42.290  51.657  1.00  0.00     0.105 A 
HETATM   14  C   UNL     1      26.522  43.352  51.583  1.00  0.00     0.056 A 
HETATM   15  H   UNL     1      27.336  46.154  54.593  1.00  0.00     0.167 HD
ENDROOT
BRANCH   1  16
HETATM   16  C   UNL     1      25.831  45.731  52.271  1.00  0.00     0.255 C 
HETATM   17  N   UNL     1      25.612  46.093  50.966  1.00  0.00    -0.353 N 
HETATM   18  H   UNL     1      26.053  45.581  50.214  1.00  0.00     0.163 HD
HETATM   19  O   UNL     1      25.387  46.336  53.240  1.00  0.00    -0.268 OA
BRANCH  17  20
HETATM   20  C   UNL     1      24.732  47.179  50.608  1.00  0.00     0.161 C 
BRANCH  20  21
HETATM   21  C   UNL     1      23.823  46.765  49.481  1.00  0.00    -0.041 A 
HETATM   22  C   UNL     1      23.003  47.711  48.844  1.00  0.00     0.009 A 
HETATM   23  C   UNL     1      22.122  47.320  47.835  1.00  0.00     0.001 A 
HETATM   24  C   UNL     1      22.054  45.983  47.449  1.00  0.00     0.000 A 
HETATM   25  C   UNL     1      22.865  45.036  48.072  1.00  0.00     0.001 A 
HETATM   26  C   UNL     1      23.742  45.424  49.087  1.00  0.00     0.009 A 
ENDBRANCH  20  21
ENDBRANCH  17  20
ENDBRANCH   1  16
BRANCH  13  27
HETATM   27  N   UNL     1      27.285  41.161  50.857  1.00  0.00    -0.318 N 
HETATM   28  C   UNL     1      27.401  41.090  49.483  1.00  0.00     0.256 C 
HETATM   29  O   UNL     1      27.565  42.051  48.736  1.00  0.00    -0.267 OA
HETATM   30  H   UNL     1      27.251  40.299  51.396  1.00  0.00     0.169 HD
BRANCH  28  31
HETATM   31  C   UNL     1      27.377  39.722  48.888  1.00  0.00     0.032 A 
HETATM   32  C   UNL     1      26.873  38.606  49.572  1.00  0.00     0.020 A 
HETATM   33  C   UNL     1      26.891  37.348  48.962  1.00  0.00     0.043 A 
HETATM   34  C   UNL     1      27.400  37.211  47.673  1.00  0.00     0.116 A 
HETATM   35  F   UNL     1      27.414  36.004  47.095  1.00  0.00    -0.206 F 
HETATM   36  C   UNL     1      27.886  38.310  46.976  1.00  0.00     0.043 A 
HETATM   37  C   UNL     1      27.872  39.568  47.582  1.00  0.00     0.020 A 
ENDBRANCH  28  31
ENDBRANCH  13  27
TORSDOF 5
ENDMDL
MODEL 10
REMARK VINA RESULT:      -9.8      5.325     10.418
REMARK  5 active torsions:
REMARK  status: ('A' for Active; 'I' for Inactive)
REMARK    1  A    between atoms: C_4  and  C_5 
REMARK    2  A    between atoms: C_5  and  N_6 
REMARK       I    between atoms: N_6  and  C_7 
REMARK    3  A    between atoms: C_7  and  C_8 
REMARK    4  A    between atoms: C_20  and  N_21 
REMARK       I    between atoms: N_21  and  C_22 
REMARK    5  A    between atoms: C_22  and  C_23 
ROOT
HETATM    1  C   UNL     1      24.723  45.037  49.417  1.00  0.00     0.079 A 
HETATM    2  C   UNL     1      24.298  44.172  48.483  1.00  0.00     0.131 A 
HETATM    3  N   UNL     1      23.096  44.417  47.809  1.00  0.00    -0.259 N 
HETATM    4  C   UNL     1      22.858  43.317  46.955  1.00  0.00     0.071 A 
HETATM    5  C   UNL     1      23.934  42.417  47.150  1.00  0.00     0.061 A 
HETATM    6  C   UNL     1      24.017  41.244  46.436  1.00  0.00     0.032 A 
HETATM    7  C   UNL     1      22.975  40.953  45.547  1.00  0.00     0.002 A 
HETATM    8  C   UNL     1      21.891  41.841  45.377  1.00  0.00     0.002 A 
HETATM    9  C   UNL     1      21.824  43.045  46.086  1.00  0.00     0.032 A 
HETATM   10  N   UNL     1      24.869  42.993  48.025  1.00  0.00    -0.339 N 
HETATM   11  C   UNL     1      22.298  45.523  47.993  1.00  0.00     0.281 A 
HETATM   12  O   UNL     1      21.244  45.779  47.409  1.00  0.00    -0.265 OA
HETATM   13  C   UNL     1      22.798  46.504  49.041  1.00  0.00     0.105 A 
HETATM   14  C   UNL     1      23.926  46.215  49.711  1.00  0.00     0.056 A 
HETATM   15  H   UNL     1      25.431  42.445  48.667  1.00  0.00     0.167 HD
ENDROOT
BRANCH   1  16
HETATM   16  C   UNL     1      26.012  44.769  50.115  1.00  0.00     0.255 C 
HETATM   17  N   UNL     1      25.894  44.706  51.480  1.00  0.00    -0.353 N 
HETATM   18  H   UNL     1      24.998  44.871  51.923  1.00  0.00     0.163 HD
HETATM   19  O   UNL     1      27.070  44.645  49.507  1.00  0.00    -0.268 OA
BRANCH  17  20
HETATM   20  C   UNL     1      27.008  44.374  52.334  1.00  0.00     0.161 C 
BRANCH  20  21
HETATM   21  C   UNL     1      27.143  45.390  53.437  1.00  0.00    -0.041 A 
HETATM   22  C   UNL     1      26.318  46.526  53.463  1.00  0.00     0.009 A 
HETATM   23  C   UNL     1      26.477  47.495  54.455  1.00  0.00     0.001 A 
HETATM   24  C   UNL     1      27.458  47.337  55.433  1.00  0.00     0.000 A 
HETATM   25  C   UNL     1      28.281  46.213  55.418  1.00  0.00     0.001 A 
HETATM   26  C   UNL     1      28.128  45.246  54.422  1.00  0.00     0.009 A 
ENDBRANCH  20  21
ENDBRANCH  17  20
ENDBRANCH   1  16
BRANCH  13  27
HETATM   27  N   UNL     1      22.018  47.636  49.210  1.00  0.00    -0.318 N 
HETATM   28  C   UNL     1      22.098  48.830  48.522  1.00  0.00     0.256 C 
HETATM   29  O   UNL     1      22.907  49.083  47.635  1.00  0.00    -0.267 OA
HETATM   30  H   UNL     1      21.248  47.488  49.859  1.00  0.00     0.169 HD
BRANCH  28  31
HETATM   31  C   UNL     1      21.072  49.859  48.865  1.00  0.00     0.032 A 
HETATM   32  C   UNL     1      20.979  51.089  48.197  1.00  0.00     0.020 A 
HETATM   33  C   UNL     1      20.001  52.014  48.575  1.00  0.00     0.043 A 
HETATM   34  C   UNL     1      19.117  51.705  49.605  1.00  0.00     0.116 A 
HETATM   35  F   UNL     1      18.183  52.595  49.962  1.00  0.00    -0.206 F 
HETATM   36  C   UNL     1      19.184  50.483  50.263  1.00  0.00     0.043 A 
HETATM   37  C   UNL     1      20.160  49.557  49.891  1.00  0.00     0.020 A 
ENDBRANCH  28  31
ENDBRANCH  13  27
TORSDOF 5
ENDMDL
