MODEL 1
REMARK VINA RESULT:      -8.2      0.000      0.000
REMARK  7 active torsions:
REMARK  status: ('A' for Active; 'I' for Inactive)
REMARK    1  A    between atoms: O_2  and  C_3 
REMARK    2  A    between atoms: C_4  and  O_5 
REMARK    3  A    between atoms: C_9  and  C_10 
REMARK    4  A    between atoms: C_10  and  N_11 
REMARK    5  A    between atoms: C_14  and  C_15 
REMARK    6  A    between atoms: C_15  and  N_16 
REMARK    7  A    between atoms: N_16  and  C_17 
ROOT
HETATM    1  N   UNL     1      25.322  46.620  52.182  1.00  0.00    -0.067 N 
HETATM    2  H   UNL     1      24.356  46.914  51.964  1.00  0.00     0.280 HD
HETATM    3  C   UNL     1      25.689  47.275  53.497  1.00  0.00     0.241 C 
HETATM    4  C   UNL     1      26.250  46.153  54.369  1.00  0.00     0.031 C 
HETATM    5  C   UNL     1      25.427  44.952  53.907  1.00  0.00     0.035 C 
HETATM    6  C   UNL     1      25.290  45.121  52.402  1.00  0.00     0.235 C 
ENDROOT
BRANCH   1   7
HETATM    7  C   UNL     1      26.125  47.025  50.964  1.00  0.00     0.274 C 
BRANCH   7   8
HETATM    8  C   UNL     1      25.375  47.893  49.988  1.00  0.00    -0.012 A 
HETATM    9  C   UNL     1      26.020  48.834  49.167  1.00  0.00     0.021 A 
HETATM   10  C   UNL     1      25.290  49.616  48.274  1.00  0.00     0.059 A 
HETATM   11 BR   UNL     1      27.904  49.074  49.212  1.00  0.00    -0.050 Br
HETATM   12  C   UNL     1      23.914  49.448  48.191  1.00  0.00     0.100 A 
HETATM   13  C   UNL     1      23.239  48.512  48.977  1.00  0.00     0.101 A 
HETATM   14  C   UNL     1      23.971  47.750  49.887  1.00  0.00     0.049 A 
BRANCH  12  15
HETATM   15  O   UNL     1      23.232  50.226  47.299  1.00  0.00    -0.358 OA
HETATM   16  H   UNL     1      22.281  50.043  47.434  1.00  0.00     0.218 HD
ENDBRANCH  12  15
BRANCH  13  17
HETATM   17  O   UNL     1      21.889  48.446  48.772  1.00  0.00    -0.353 OA
HETATM   18  C   UNL     1      21.371  47.262  48.177  1.00  0.00     0.210 C 
ENDBRANCH  13  17
ENDBRANCH   7   8
ENDBRANCH   1   7
BRANCH   4  19
HETATM   19  C   UNL     1      27.769  45.995  54.175  1.00  0.00     0.127 C 
BRANCH  19  20
HETATM   20  N   UNL     1      28.490  46.213  55.432  1.00  0.00    -0.376 N 
HETATM   21  H   UNL     1      28.695  47.187  55.638  1.00  0.00     0.161 HD
BRANCH  20  22
HETATM   22  C   UNL     1      29.445  45.287  55.841  1.00  0.00     0.100 A 
HETATM   23  N   UNL     1      30.057  45.475  57.025  1.00  0.00    -0.353 N 
HETATM   24  H   UNL     1      29.797  46.285  57.581  1.00  0.00     0.166 HD
HETATM   25  C   UNL     1      30.986  44.644  57.526  1.00  0.00     0.089 A 
HETATM   26  C   UNL     1      31.356  43.508  56.825  1.00  0.00     0.017 A 
HETATM   27  C   UNL     1      30.740  43.245  55.611  1.00  0.00     0.005 A 
HETATM   28  C   UNL     1      29.779  44.130  55.122  1.00  0.00     0.048 A 
ENDBRANCH  20  22
ENDBRANCH  19  20
ENDBRANCH   4  19
TORSDOF 7
ENDMDL
MODEL 2
REMARK VINA RESULT:      -7.9      2.788      3.705
REMARK  7 active torsions:
REMARK  status: ('A' for Active; 'I' for Inactive)
REMARK    1  A    between atoms: O_2  and  C_3 
REMARK    2  A    between atoms: C_4  and  O_5 
REMARK    3  A    between atoms: C_9  and  C_10 
REMARK    4  A    between atoms: C_10  and  N_11 
REMARK    5  A    between atoms: C_14  and  C_15 
REMARK    6  A    between atoms: C_15  and  N_16 
REMARK    7  A    between atoms: N_16  and  C_17 
ROOT
HETATM    1  N   UNL     1      26.598  42.530  51.679  1.00  0.00    -0.067 N 
HETATM    2  H   UNL     1      25.730  41.990  51.529  1.00  0.00     0.280 HD
HETATM    3  C   UNL     1      26.391  43.343  52.940  1.00  0.00     0.241 C 
HETATM    4  C   UNL     1      27.627  43.084  53.799  1.00  0.00     0.031 C 
HETATM    5  C   UNL     1      27.964  41.639  53.441  1.00  0.00     0.035 C 
HETATM    6  C   UNL     1      27.703  41.529  51.947  1.00  0.00     0.235 C 
ENDROOT
BRANCH   1   7
HETATM    7  C   UNL     1      26.793  43.299  50.390  1.00  0.00     0.274 C 
BRANCH   7   8
HETATM    8  C   UNL     1      26.009  44.583  50.310  1.00  0.00    -0.012 A 
HETATM    9  C   UNL     1      24.609  44.604  50.179  1.00  0.00     0.021 A 
HETATM   10  C   UNL     1      23.921  45.813  50.112  1.00  0.00     0.059 A 
HETATM   11 BR   UNL     1      23.588  43.004  50.109  1.00  0.00    -0.050 Br
HETATM   12  C   UNL     1      24.630  47.005  50.190  1.00  0.00     0.100 A 
HETATM   13  C   UNL     1      26.018  47.025  50.337  1.00  0.00     0.101 A 
HETATM   14  C   UNL     1      26.705  45.813  50.379  1.00  0.00     0.049 A 
BRANCH  12  15
HETATM   15  O   UNL     1      23.921  48.172  50.129  1.00  0.00    -0.358 OA
HETATM   16  H   UNL     1      23.498  48.290  51.002  1.00  0.00     0.218 HD
ENDBRANCH  12  15
BRANCH  13  17
HETATM   17  O   UNL     1      26.577  48.271  50.419  1.00  0.00    -0.353 OA
HETATM   18  C   UNL     1      27.338  48.725  49.307  1.00  0.00     0.210 C 
ENDBRANCH  13  17
ENDBRANCH   7   8
ENDBRANCH   1   7
BRANCH   4  19
HETATM   19  C   UNL     1      28.749  44.094  53.491  1.00  0.00     0.127 C 
BRANCH  19  20
HETATM   20  N   UNL     1      28.932  45.038  54.597  1.00  0.00    -0.376 N 
HETATM   21  H   UNL     1      28.900  46.017  54.327  1.00  0.00     0.161 HD
BRANCH  20  22
HETATM   22  C   UNL     1      29.806  44.717  55.631  1.00  0.00     0.100 A 
HETATM   23  N   UNL     1      29.809  45.489  56.733  1.00  0.00    -0.353 N 
HETATM   24  H   UNL     1      29.170  46.277  56.773  1.00  0.00     0.166 HD
HETATM   25  C   UNL     1      30.602  45.271  57.796  1.00  0.00     0.089 A 
HETATM   26  C   UNL     1      31.470  44.192  57.807  1.00  0.00     0.017 A 
HETATM   27  C   UNL     1      31.492  43.343  56.711  1.00  0.00     0.005 A 
HETATM   28  C   UNL     1      30.655  43.600  55.626  1.00  0.00     0.048 A 
ENDBRANCH  20  22
ENDBRANCH  19  20
ENDBRANCH   4  19
TORSDOF 7
ENDMDL
MODEL 3
REMARK VINA RESULT:      -7.8      4.200      9.025
REMARK  7 active torsions:
REMARK  status: ('A' for Active; 'I' for Inactive)
REMARK    1  A    between atoms: O_2  and  C_3 
REMARK    2  A    between atoms: C_4  and  O_5 
REMARK    3  A    between atoms: C_9  and  C_10 
REMARK    4  A    between atoms: C_10  and  N_11 
REMARK    5  A    between atoms: C_14  and  C_15 
REMARK    6  A    between atoms: C_15  and  N_16 
REMARK    7  A    between atoms: N_16  and  C_17 
ROOT
HETATM    1  N   UNL     1      25.904  45.164  51.922  1.00  0.00    -0.067 N 
HETATM    2  H   UNL     1      26.548  44.370  52.073  1.00  0.00     0.280 HD
HETATM    3  C   UNL     1      26.400  45.899  50.695  1.00  0.00     0.241 C 
HETATM    4  C   UNL     1      25.173  46.072  49.800  1.00  0.00     0.031 C 
HETATM    5  C   UNL     1      24.380  44.803  50.101  1.00  0.00     0.035 C 
HETATM    6  C   UNL     1      24.545  44.577  51.596  1.00  0.00     0.235 C 
ENDROOT
BRANCH   1   7
HETATM    7  C   UNL     1      25.925  45.921  53.232  1.00  0.00     0.274 C 
BRANCH   7   8
HETATM    8  C   UNL     1      27.160  45.689  54.062  1.00  0.00    -0.012 A 
HETATM    9  C   UNL     1      27.588  46.598  55.047  1.00  0.00     0.021 A 
HETATM   10  C   UNL     1      28.735  46.345  55.796  1.00  0.00     0.059 A 
HETATM   11 BR   UNL     1      26.627  48.193  55.420  1.00  0.00    -0.050 Br
HETATM   12  C   UNL     1      29.449  45.174  55.573  1.00  0.00     0.100 A 
HETATM   13  C   UNL     1      29.046  44.239  54.617  1.00  0.00     0.101 A 
HETATM   14  C   UNL     1      27.912  44.509  53.852  1.00  0.00     0.049 A 
BRANCH  12  15
HETATM   15  O   UNL     1      30.564  44.954  56.331  1.00  0.00    -0.358 OA
HETATM   16  H   UNL     1      31.320  45.321  55.833  1.00  0.00     0.218 HD
ENDBRANCH  12  15
BRANCH  13  17
HETATM   17  O   UNL     1      29.835  43.126  54.522  1.00  0.00    -0.353 OA
HETATM   18  C   UNL     1      30.274  42.740  53.226  1.00  0.00     0.210 C 
ENDBRANCH  13  17
ENDBRANCH   7   8
ENDBRANCH   1   7
BRANCH   4  19
HETATM   19  C   UNL     1      24.425  47.380  50.119  1.00  0.00     0.127 C 
BRANCH  19  20
HETATM   20  N   UNL     1      23.123  47.424  49.447  1.00  0.00    -0.376 N 
HETATM   21  H   UNL     1      22.989  46.708  48.739  1.00  0.00     0.161 HD
BRANCH  20  22
HETATM   22  C   UNL     1      22.527  48.655  49.193  1.00  0.00     0.100 A 
HETATM   23  N   UNL     1      21.249  48.841  49.573  1.00  0.00    -0.353 N 
HETATM   24  H   UNL     1      20.765  48.076  50.035  1.00  0.00     0.166 HD
HETATM   25  C   UNL     1      20.573  49.987  49.387  1.00  0.00     0.089 A 
HETATM   26  C   UNL     1      21.194  51.072  48.790  1.00  0.00     0.017 A 
HETATM   27  C   UNL     1      22.519  50.951  48.403  1.00  0.00     0.005 A 
HETATM   28  C   UNL     1      23.189  49.746  48.611  1.00  0.00     0.048 A 
ENDBRANCH  20  22
ENDBRANCH  19  20
ENDBRANCH   4  19
TORSDOF 7
ENDMDL
MODEL 4
REMARK VINA RESULT:      -7.7      1.785      2.400
REMARK  7 active torsions:
REMARK  status: ('A' for Active; 'I' for Inactive)
REMARK    1  A    between atoms: O_2  and  C_3 
REMARK    2  A    between atoms: C_4  and  O_5 
REMARK    3  A    between atoms: C_9  and  C_10 
REMARK    4  A    between atoms: C_10  and  N_11 
REMARK    5  A    between atoms: C_14  and  C_15 
REMARK    6  A    between atoms: C_15  and  N_16 
REMARK    7  A    between atoms: N_16  and  C_17 
ROOT
HETATM    1  N   UNL     1      25.276  45.417  52.621  1.00  0.00    -0.067 N 
HETATM    2  H   UNL     1      24.270  45.625  52.519  1.00  0.00     0.280 HD
HETATM    3  C   UNL     1      25.813  46.371  53.668  1.00  0.00     0.241 C 
HETATM    4  C   UNL     1      26.588  45.499  54.655  1.00  0.00     0.031 C 
HETATM    5  C   UNL     1      25.784  44.201  54.629  1.00  0.00     0.035 C 
HETATM    6  C   UNL     1      25.385  44.010  53.174  1.00  0.00     0.235 C 
ENDROOT
BRANCH   1   7
HETATM    7  C   UNL     1      25.834  45.550  51.220  1.00  0.00     0.274 C 
BRANCH   7   8
HETATM    8  C   UNL     1      24.971  46.355  50.284  1.00  0.00    -0.012 A 
HETATM    9  C   UNL     1      23.829  45.819  49.664  1.00  0.00     0.021 A 
HETATM   10  C   UNL     1      23.055  46.599  48.806  1.00  0.00     0.059 A 
HETATM   11 BR   UNL     1      23.270  44.030  49.973  1.00  0.00    -0.050 Br
HETATM   12  C   UNL     1      23.414  47.921  48.579  1.00  0.00     0.100 A 
HETATM   13  C   UNL     1      24.531  48.494  49.190  1.00  0.00     0.101 A 
HETATM   14  C   UNL     1      25.316  47.703  50.027  1.00  0.00     0.049 A 
BRANCH  12  15
HETATM   15  O   UNL     1      22.627  48.658  47.739  1.00  0.00    -0.358 OA
HETATM   16  H   UNL     1      22.372  49.465  48.228  1.00  0.00     0.218 HD
ENDBRANCH  12  15
BRANCH  13  17
HETATM   17  O   UNL     1      24.749  49.810  48.887  1.00  0.00    -0.353 OA
HETATM   18  C   UNL     1      25.866  50.118  48.062  1.00  0.00     0.210 C 
ENDBRANCH  13  17
ENDBRANCH   7   8
ENDBRANCH   1   7
BRANCH   4  19
HETATM   19  C   UNL     1      28.061  45.344  54.232  1.00  0.00     0.127 C 
BRANCH  19  20
HETATM   20  N   UNL     1      28.960  45.989  55.192  1.00  0.00    -0.376 N 
HETATM   21  H   UNL     1      29.311  46.897  54.899  1.00  0.00     0.161 HD
BRANCH  20  22
HETATM   22  C   UNL     1      29.834  45.208  55.941  1.00  0.00     0.100 A 
HETATM   23  N   UNL     1      30.144  45.605  57.189  1.00  0.00    -0.353 N 
HETATM   24  H   UNL     1      29.724  46.460  57.543  1.00  0.00     0.166 HD
HETATM   25  C   UNL     1      30.968  44.928  58.006  1.00  0.00     0.089 A 
HETATM   26  C   UNL     1      31.544  43.741  57.586  1.00  0.00     0.017 A 
HETATM   27  C   UNL     1      31.241  43.265  56.320  1.00  0.00     0.005 A 
HETATM   28  C   UNL     1      30.381  43.994  55.499  1.00  0.00     0.048 A 
ENDBRANCH  20  22
ENDBRANCH  19  20
ENDBRANCH   4  19
TORSDOF 7
ENDMDL
MODEL 5
REMARK VINA RESULT:      -7.6      4.305      8.861
REMARK  7 active torsions:
REMARK  status: ('A' for Active; 'I' for Inactive)
REMARK    1  A    between atoms: O_2  and  C_3 
REMARK    2  A    between atoms: C_4  and  O_5 
REMARK    3  A    between atoms: C_9  and  C_10 
REMARK    4  A    between atoms: C_10  and  N_11 
REMARK    5  A    between atoms: C_14  and  C_15 
REMARK    6  A    between atoms: C_15  and  N_16 
REMARK    7  A    between atoms: N_16  and  C_17 
ROOT
HETATM    1  N   UNL     1      26.409  43.758  51.385  1.00  0.00    -0.067 N 
HETATM    2  H   UNL     1      26.963  42.906  51.202  1.00  0.00     0.280 HD
HETATM    3  C   UNL     1      27.166  44.911  50.758  1.00  0.00     0.241 C 
HETATM    4  C   UNL     1      26.136  45.667  49.921  1.00  0.00     0.031 C 
HETATM    5  C   UNL     1      25.221  44.539  49.449  1.00  0.00     0.035 C 
HETATM    6  C   UNL     1      25.098  43.604  50.641  1.00  0.00     0.235 C 
ENDROOT
BRANCH   1   7
HETATM    7  C   UNL     1      26.240  43.784  52.889  1.00  0.00     0.274 C 
BRANCH   7   8
HETATM    8  C   UNL     1      27.535  43.824  53.657  1.00  0.00    -0.012 A 
HETATM    9  C   UNL     1      28.486  42.791  53.584  1.00  0.00     0.021 A 
HETATM   10  C   UNL     1      29.674  42.867  54.309  1.00  0.00     0.059 A 
HETATM   11 BR   UNL     1      28.217  41.260  52.492  1.00  0.00    -0.050 Br
HETATM   12  C   UNL     1      29.920  43.985  55.096  1.00  0.00     0.100 A 
HETATM   13  C   UNL     1      29.009  45.039  55.179  1.00  0.00     0.101 A 
HETATM   14  C   UNL     1      27.811  44.946  54.473  1.00  0.00     0.049 A 
BRANCH  12  15
HETATM   15  O   UNL     1      31.099  44.030  55.785  1.00  0.00    -0.358 OA
HETATM   16  H   UNL     1      30.869  44.084  56.733  1.00  0.00     0.218 HD
ENDBRANCH  12  15
BRANCH  13  17
HETATM   17  O   UNL     1      29.396  46.081  55.977  1.00  0.00    -0.353 OA
HETATM   18  C   UNL     1      28.825  46.160  57.278  1.00  0.00     0.210 C 
ENDBRANCH  13  17
ENDBRANCH   7   8
ENDBRANCH   1   7
BRANCH   4  19
HETATM   19  C   UNL     1      25.427  46.756  50.748  1.00  0.00     0.127 C 
BRANCH  19  20
HETATM   20  N   UNL     1      24.084  47.029  50.228  1.00  0.00    -0.376 N 
HETATM   21  H   UNL     1      23.584  46.208  49.899  1.00  0.00     0.161 HD
BRANCH  20  22
HETATM   22  C   UNL     1      23.849  48.209  49.531  1.00  0.00     0.100 A 
HETATM   23  N   UNL     1      22.602  48.716  49.527  1.00  0.00    -0.353 N 
HETATM   24  H   UNL     1      21.877  48.220  50.036  1.00  0.00     0.166 HD
HETATM   25  C   UNL     1      22.259  49.851  48.896  1.00  0.00     0.089 A 
HETATM   26  C   UNL     1      23.214  50.584  48.212  1.00  0.00     0.017 A 
HETATM   27  C   UNL     1      24.523  50.128  48.204  1.00  0.00     0.005 A 
HETATM   28  C   UNL     1      24.844  48.945  48.869  1.00  0.00     0.048 A 
ENDBRANCH  20  22
ENDBRANCH  19  20
ENDBRANCH   4  19
TORSDOF 7
ENDMDL
MODEL 6
REMARK VINA RESULT:      -7.5      1.750      2.446
REMARK  7 active torsions:
REMARK  status: ('A' for Active; 'I' for Inactive)
REMARK    1  A    between atoms: O_2  and  C_3 
REMARK    2  A    between atoms: C_4  and  O_5 
REMARK    3  A    between atoms: C_9  and  C_10 
REMARK    4  A    between atoms: C_10  and  N_11 
REMARK    5  A    between atoms: C_14  and  C_15 
REMARK    6  A    between atoms: C_15  and  N_16 
REMARK    7  A    between atoms: N_16  and  C_17 
ROOT
HETATM    1  N   UNL     1      24.543  45.576  50.561  1.00  0.00    -0.067 N 
HETATM    2  H   UNL     1      23.599  45.997  50.571  1.00  0.00     0.280 HD
HETATM    3  C   UNL     1      24.677  44.781  51.843  1.00  0.00     0.241 C 
HETATM    4  C   UNL     1      25.184  43.404  51.417  1.00  0.00     0.031 C 
HETATM    5  C   UNL     1      24.517  43.229  50.055  1.00  0.00     0.035 C 
HETATM    6  C   UNL     1      24.581  44.601  49.402  1.00  0.00     0.235 C 
ENDROOT
BRANCH   1   7
HETATM    7  C   UNL     1      25.479  46.752  50.380  1.00  0.00     0.274 C 
BRANCH   7   8
HETATM    8  C   UNL     1      24.912  47.875  49.553  1.00  0.00    -0.012 A 
HETATM    9  C   UNL     1      25.721  48.869  48.975  1.00  0.00     0.021 A 
HETATM   10  C   UNL     1      25.157  49.890  48.214  1.00  0.00     0.059 A 
HETATM   11 BR   UNL     1      27.610  48.863  49.180  1.00  0.00    -0.050 Br
HETATM   12  C   UNL     1      23.782  49.911  48.016  1.00  0.00     0.100 A 
HETATM   13  C   UNL     1      22.947  48.933  48.558  1.00  0.00     0.101 A 
HETATM   14  C   UNL     1      23.514  47.927  49.341  1.00  0.00     0.049 A 
BRANCH  12  15
HETATM   15  O   UNL     1      23.265  50.922  47.257  1.00  0.00    -0.358 OA
HETATM   16  H   UNL     1      22.338  50.682  47.061  1.00  0.00     0.218 HD
ENDBRANCH  12  15
BRANCH  13  17
HETATM   17  O   UNL     1      21.619  49.072  48.264  1.00  0.00    -0.353 OA
HETATM   18  C   UNL     1      20.680  48.569  49.206  1.00  0.00     0.210 C 
ENDBRANCH  13  17
ENDBRANCH   7   8
ENDBRANCH   1   7
BRANCH   4  19
HETATM   19  C   UNL     1      26.723  43.357  51.382  1.00  0.00     0.127 C 
BRANCH  19  20
HETATM   20  N   UNL     1      27.305  44.343  52.296  1.00  0.00    -0.376 N 
HETATM   21  H   UNL     1      27.302  45.298  51.946  1.00  0.00     0.161 HD
BRANCH  20  22
HETATM   22  C   UNL     1      28.394  43.985  53.084  1.00  0.00     0.100 A 
HETATM   23  N   UNL     1      28.501  44.519  54.315  1.00  0.00    -0.353 N 
HETATM   24  H   UNL     1      27.779  45.163  54.627  1.00  0.00     0.166 HD
HETATM   25  C   UNL     1      29.502  44.241  55.166  1.00  0.00     0.089 A 
HETATM   26  C   UNL     1      30.496  43.347  54.804  1.00  0.00     0.017 A 
HETATM   27  C   UNL     1      30.425  42.741  53.559  1.00  0.00     0.005 A 
HETATM   28  C   UNL     1      29.372  43.054  52.701  1.00  0.00     0.048 A 
ENDBRANCH  20  22
ENDBRANCH  19  20
ENDBRANCH   4  19
TORSDOF 7
ENDMDL
MODEL 7
REMARK VINA RESULT:      -7.5      3.131      3.897
REMARK  7 active torsions:
REMARK  status: ('A' for Active; 'I' for Inactive)
REMARK    1  A    between atoms: O_2  and  C_3 
REMARK    2  A    between atoms: C_4  and  O_5 
REMARK    3  A    between atoms: C_9  and  C_10 
REMARK    4  A    between atoms: C_10  and  N_11 
REMARK    5  A    between atoms: C_14  and  C_15 
REMARK    6  A    between atoms: C_15  and  N_16 
REMARK    7  A    between atoms: N_16  and  C_17 
ROOT
HETATM    1  N   UNL     1      26.124  43.252  52.438  1.00  0.00    -0.067 N 
HETATM    2  H   UNL     1      25.286  42.651  52.366  1.00  0.00     0.280 HD
HETATM    3  C   UNL     1      25.954  44.084  53.691  1.00  0.00     0.241 C 
HETATM    4  C   UNL     1      27.265  43.932  54.461  1.00  0.00     0.031 C 
HETATM    5  C   UNL     1      27.673  42.503  54.113  1.00  0.00     0.035 C 
HETATM    6  C   UNL     1      27.311  42.334  52.646  1.00  0.00     0.235 C 
ENDROOT
BRANCH   1   7
HETATM    7  C   UNL     1      26.170  43.995  51.120  1.00  0.00     0.274 C 
BRANCH   7   8
HETATM    8  C   UNL     1      24.858  44.031  50.382  1.00  0.00    -0.012 A 
HETATM    9  C   UNL     1      24.196  45.235  50.081  1.00  0.00     0.021 A 
HETATM   10  C   UNL     1      22.983  45.225  49.394  1.00  0.00     0.059 A 
HETATM   11 BR   UNL     1      24.917  46.922  50.570  1.00  0.00    -0.050 Br
HETATM   12  C   UNL     1      22.438  44.012  48.992  1.00  0.00     0.100 A 
HETATM   13  C   UNL     1      23.075  42.798  49.257  1.00  0.00     0.101 A 
HETATM   14  C   UNL     1      24.274  42.811  49.968  1.00  0.00     0.049 A 
BRANCH  12  15
HETATM   15  O   UNL     1      21.253  44.041  48.313  1.00  0.00    -0.358 OA
HETATM   16  H   UNL     1      21.054  44.982  48.135  1.00  0.00     0.218 HD
ENDBRANCH  12  15
BRANCH  13  17
HETATM   17  O   UNL     1      22.430  41.688  48.785  1.00  0.00    -0.353 OA
HETATM   18  C   UNL     1      23.117  40.882  47.836  1.00  0.00     0.210 C 
ENDBRANCH  13  17
ENDBRANCH   7   8
ENDBRANCH   1   7
BRANCH   4  19
HETATM   19  C   UNL     1      28.289  45.006  54.047  1.00  0.00     0.127 C 
BRANCH  19  20
HETATM   20  N   UNL     1      28.731  45.792  55.201  1.00  0.00    -0.376 N 
HETATM   21  H   UNL     1      28.787  46.793  55.035  1.00  0.00     0.161 HD
BRANCH  20  22
HETATM   22  C   UNL     1      29.685  45.261  56.064  1.00  0.00     0.100 A 
HETATM   23  N   UNL     1      29.772  45.759  57.311  1.00  0.00    -0.353 N 
HETATM   24  H   UNL     1      29.135  46.502  57.581  1.00  0.00     0.166 HD
HETATM   25  C   UNL     1      30.647  45.320  58.231  1.00  0.00     0.089 A 
HETATM   26  C   UNL     1      31.519  44.287  57.927  1.00  0.00     0.017 A 
HETATM   27  C   UNL     1      31.458  43.714  56.666  1.00  0.00     0.005 A 
HETATM   28  C   UNL     1      30.537  44.195  55.736  1.00  0.00     0.048 A 
ENDBRANCH  20  22
ENDBRANCH  19  20
ENDBRANCH   4  19
TORSDOF 7
ENDMDL
MODEL 8
REMARK VINA RESULT:      -7.3      5.387      8.349
REMARK  7 active torsions:
REMARK  status: ('A' for Active; 'I' for Inactive)
REMARK    1  A    between atoms: O_2  and  C_3 
REMARK    2  A    between atoms: C_4  and  O_5 
REMARK    3  A    between atoms: C_9  and  C_10 
REMARK    4  A    between atoms: C_10  and  N_11 
REMARK    5  A    between atoms: C_14  and  C_15 
REMARK    6  A    between atoms: C_15  and  N_16 
REMARK    7  A    between atoms: N_16  and  C_17 
ROOT
HETATM    1  N   UNL     1      26.415  44.694  52.099  1.00  0.00    -0.067 N 
HETATM    2  H   UNL     1      26.719  45.582  52.529  1.00  0.00     0.280 HD
HETATM    3  C   UNL     1      25.007  44.920  51.586  1.00  0.00     0.241 C 
HETATM    4  C   UNL     1      25.015  44.421  50.142  1.00  0.00     0.031 C 
HETATM    5  C   UNL     1      26.437  44.758  49.698  1.00  0.00     0.035 C 
HETATM    6  C   UNL     1      27.312  44.449  50.903  1.00  0.00     0.235 C 
ENDROOT
BRANCH   1   7
HETATM    7  C   UNL     1      26.589  43.664  53.194  1.00  0.00     0.274 C 
BRANCH   7   8
HETATM    8  C   UNL     1      27.873  43.797  53.971  1.00  0.00    -0.012 A 
HETATM    9  C   UNL     1      28.913  42.856  53.874  1.00  0.00     0.021 A 
HETATM   10  C   UNL     1      30.087  43.017  54.608  1.00  0.00     0.059 A 
HETATM   11 BR   UNL     1      28.787  41.340  52.736  1.00  0.00    -0.050 Br
HETATM   12  C   UNL     1      30.229  44.129  55.428  1.00  0.00     0.100 A 
HETATM   13  C   UNL     1      29.226  45.094  55.537  1.00  0.00     0.101 A 
HETATM   14  C   UNL     1      28.043  44.915  54.821  1.00  0.00     0.049 A 
BRANCH  12  15
HETATM   15  O   UNL     1      31.396  44.259  56.126  1.00  0.00    -0.358 OA
HETATM   16  H   UNL     1      31.160  44.253  57.074  1.00  0.00     0.218 HD
ENDBRANCH  12  15
BRANCH  13  17
HETATM   17  O   UNL     1      29.515  46.142  56.367  1.00  0.00    -0.353 OA
HETATM   18  C   UNL     1      28.919  46.141  57.659  1.00  0.00     0.210 C 
ENDBRANCH  13  17
ENDBRANCH   7   8
ENDBRANCH   1   7
BRANCH   4  19
HETATM   19  C   UNL     1      24.662  42.924  50.062  1.00  0.00     0.127 C 
BRANCH  19  20
HETATM   20  N   UNL     1      25.208  42.314  48.847  1.00  0.00    -0.376 N 
HETATM   21  H   UNL     1      24.540  42.210  48.088  1.00  0.00     0.161 HD
BRANCH  20  22
HETATM   22  C   UNL     1      26.168  41.312  48.957  1.00  0.00     0.100 A 
HETATM   23  N   UNL     1      25.842  40.178  49.604  1.00  0.00    -0.353 N 
HETATM   24  H   UNL     1      24.905  40.091  49.986  1.00  0.00     0.166 HD
HETATM   25  C   UNL     1      26.682  39.142  49.765  1.00  0.00     0.089 A 
HETATM   26  C   UNL     1      27.962  39.194  49.237  1.00  0.00     0.017 A 
HETATM   27  C   UNL     1      28.346  40.326  48.535  1.00  0.00     0.005 A 
HETATM   28  C   UNL     1      27.448  41.382  48.387  1.00  0.00     0.048 A 
ENDBRANCH  20  22
ENDBRANCH  19  20
ENDBRANCH   4  19
TORSDOF 7
ENDMDL
MODEL 9
REMARK VINA RESULT:      -7.3      2.713      3.878
REMARK  7 active torsions:
REMARK  status: ('A' for Active; 'I' for Inactive)
REMARK    1  A    between atoms: O_2  and  C_3 
REMARK    2  A    between atoms: C_4  and  O_5 
REMARK    3  A    between atoms: C_9  and  C_10 
REMARK    4  A    between atoms: C_10  and  N_11 
REMARK    5  A    between atoms: C_14  and  C_15 
REMARK    6  A    between atoms: C_15  and  N_16 
REMARK    7  A    between atoms: N_16  and  C_17 
ROOT
HETATM    1  N   UNL     1      26.845  42.723  53.237  1.00  0.00    -0.067 N 
HETATM    2  H   UNL     1      26.026  42.100  53.152  1.00  0.00     0.280 HD
HETATM    3  C   UNL     1      27.863  41.988  54.084  1.00  0.00     0.241 C 
HETATM    4  C   UNL     1      29.176  42.073  53.308  1.00  0.00     0.031 C 
HETATM    5  C   UNL     1      28.691  42.041  51.860  1.00  0.00     0.035 C 
HETATM    6  C   UNL     1      27.427  42.886  51.848  1.00  0.00     0.235 C 
ENDROOT
BRANCH   1   7
HETATM    7  C   UNL     1      26.284  44.011  53.802  1.00  0.00     0.274 C 
BRANCH   7   8
HETATM    8  C   UNL     1      25.714  44.945  52.766  1.00  0.00    -0.012 A 
HETATM    9  C   UNL     1      25.946  46.331  52.794  1.00  0.00     0.021 A 
HETATM   10  C   UNL     1      25.402  47.161  51.815  1.00  0.00     0.059 A 
HETATM   11 BR   UNL     1      27.016  47.140  54.139  1.00  0.00    -0.050 Br
HETATM   12  C   UNL     1      24.639  46.603  50.797  1.00  0.00     0.100 A 
HETATM   13  C   UNL     1      24.402  45.230  50.726  1.00  0.00     0.101 A 
HETATM   14  C   UNL     1      24.926  44.407  51.722  1.00  0.00     0.049 A 
BRANCH  12  15
HETATM   15  O   UNL     1      24.129  47.446  49.850  1.00  0.00    -0.358 OA
HETATM   16  H   UNL     1      24.893  47.845  49.388  1.00  0.00     0.218 HD
ENDBRANCH  12  15
BRANCH  13  17
HETATM   17  O   UNL     1      23.649  44.824  49.659  1.00  0.00    -0.353 OA
HETATM   18  C   UNL     1      22.661  43.827  49.892  1.00  0.00     0.210 C 
ENDBRANCH  13  17
ENDBRANCH   7   8
ENDBRANCH   1   7
BRANCH   4  19
HETATM   19  C   UNL     1      29.972  43.337  53.684  1.00  0.00     0.127 C 
BRANCH  19  20
HETATM   20  N   UNL     1      30.714  43.144  54.933  1.00  0.00    -0.376 N 
HETATM   21  H   UNL     1      30.850  42.173  55.199  1.00  0.00     0.161 HD
BRANCH  20  22
HETATM   22  C   UNL     1      30.537  44.045  55.978  1.00  0.00     0.100 A 
HETATM   23  N   UNL     1      31.277  43.892  57.092  1.00  0.00    -0.353 N 
HETATM   24  H   UNL     1      31.942  43.125  57.129  1.00  0.00     0.166 HD
HETATM   25  C   UNL     1      31.198  44.704  58.159  1.00  0.00     0.089 A 
HETATM   26  C   UNL     1      30.330  45.783  58.151  1.00  0.00     0.017 A 
HETATM   27  C   UNL     1      29.561  46.011  57.020  1.00  0.00     0.005 A 
HETATM   28  C   UNL     1      29.669  45.147  55.930  1.00  0.00     0.048 A 
ENDBRANCH  20  22
ENDBRANCH  19  20
ENDBRANCH   4  19
TORSDOF 7
ENDMDL
MODEL 10
REMARK VINA RESULT:      -7.2      6.066      8.790
REMARK  7 active torsions:
REMARK  status: ('A' for Active; 'I' for Inactive)
REMARK    1  A    between atoms: O_2  and  C_3 
REMARK    2  A    between atoms: C_4  and  O_5 
REMARK    3  A    between atoms: C_9  and  C_10 
REMARK    4  A    between atoms: C_10  and  N_11 
REMARK    5  A    between atoms: C_14  and  C_15 
REMARK    6  A    between atoms: C_15  and  N_16 
REMARK    7  A    between atoms: N_16  and  C_17 
ROOT
HETATM    1  N   UNL     1      18.469  50.038  48.450  1.00  0.00    -0.067 N 
HETATM    2  H   UNL     1      17.736  49.974  47.725  1.00  0.00     0.280 HD
HETATM    3  C   UNL     1      19.798  50.054  47.724  1.00  0.00     0.241 C 
HETATM    4  C   UNL     1      20.566  51.239  48.307  1.00  0.00     0.031 C 
HETATM    5  C   UNL     1      19.442  52.228  48.608  1.00  0.00     0.035 C 
HETATM    6  C   UNL     1      18.297  51.378  49.137  1.00  0.00     0.235 C 
ENDROOT
BRANCH   1   7
HETATM    7  C   UNL     1      18.200  48.862  49.364  1.00  0.00     0.274 C 
BRANCH   7   8
HETATM    8  C   UNL     1      18.347  47.517  48.703  1.00  0.00    -0.012 A 
HETATM    9  C   UNL     1      17.416  47.031  47.769  1.00  0.00     0.021 A 
HETATM   10  C   UNL     1      17.591  45.781  47.177  1.00  0.00     0.059 A 
HETATM   11 BR   UNL     1      15.897  48.046  47.251  1.00  0.00    -0.050 Br
HETATM   12  C   UNL     1      18.705  45.021  47.508  1.00  0.00     0.100 A 
HETATM   13  C   UNL     1      19.661  45.478  48.417  1.00  0.00     0.101 A 
HETATM   14  C   UNL     1      19.469  46.717  49.026  1.00  0.00     0.049 A 
BRANCH  12  15
HETATM   15  O   UNL     1      18.848  43.805  46.902  1.00  0.00    -0.358 OA
HETATM   16  H   UNL     1      18.090  43.703  46.294  1.00  0.00     0.218 HD
ENDBRANCH  12  15
BRANCH  13  17
HETATM   17  O   UNL     1      20.714  44.630  48.629  1.00  0.00    -0.353 OA
HETATM   18  C   UNL     1      22.025  45.153  48.453  1.00  0.00     0.210 C 
ENDBRANCH  13  17
ENDBRANCH   7   8
ENDBRANCH   1   7
BRANCH   4  19
HETATM   19  C   UNL     1      21.394  50.823  49.537  1.00  0.00     0.127 C 
BRANCH  19  20
HETATM   20  N   UNL     1      21.811  49.421  49.446  1.00  0.00    -0.376 N 
HETATM   21  H   UNL     1      21.219  48.770  49.955  1.00  0.00     0.161 HD
BRANCH  20  22
HETATM   22  C   UNL     1      23.168  49.114  49.409  1.00  0.00     0.100 A 
HETATM   23  N   UNL     1      23.598  48.020  50.065  1.00  0.00    -0.353 N 
HETATM   24  H   UNL     1      22.915  47.455  50.561  1.00  0.00     0.166 HD
HETATM   25  C   UNL     1      24.880  47.621  50.092  1.00  0.00     0.089 A 
HETATM   26  C   UNL     1      25.847  48.338  49.407  1.00  0.00     0.017 A 
HETATM   27  C   UNL     1      25.461  49.459  48.688  1.00  0.00     0.005 A 
HETATM   28  C   UNL     1      24.121  49.844  48.682  1.00  0.00     0.048 A 
ENDBRANCH  20  22
ENDBRANCH  19  20
ENDBRANCH   4  19
TORSDOF 7
ENDMDL
