MODEL 1
REMARK VINA RESULT:      -9.9      0.000      0.000
REMARK  6 active torsions:
REMARK  status: ('A' for Active; 'I' for Inactive)
REMARK    1  A    between atoms: C_5  and  C_6 
REMARK    2  A    between atoms: C_12  and  C_13 
REMARK       I    between atoms: C_13  and  N_14 
REMARK    3  A    between atoms: N_14  and  C_15 
REMARK    4  A    between atoms: C_18  and  C_19 
REMARK    5  A    between atoms: C_19  and  O_20 
REMARK    6  A    between atoms: C_25  and  C_26 
ROOT
HETATM    1  C   UNL     1      27.704  41.984  52.747  1.00  0.00     0.118 C 
HETATM    2  N   UNL     1      26.758  42.766  51.931  1.00  0.00    -0.365 N 
HETATM    3  C   UNL     1      26.074  42.102  50.953  1.00  0.00     0.138 A 
HETATM    4  N   UNL     1      26.501  40.869  50.508  1.00  0.00    -0.240 N 
HETATM    5  N   UNL     1      25.685  40.311  49.606  1.00  0.00    -0.181 NA
HETATM    6  C   UNL     1      24.771  41.259  49.388  1.00  0.00     0.160 A 
HETATM    7  C   UNL     1      24.953  42.406  50.201  1.00  0.00     0.096 A 
HETATM    8  C   UNL     1      27.679  40.175  50.996  1.00  0.00     0.221 C 
HETATM    9  C   UNL     1      28.568  41.135  51.810  1.00  0.00     0.066 C 
HETATM   10  H   UNL     1      27.133  43.689  51.691  1.00  0.00     0.161 HD
ENDROOT
BRANCH   7  11
HETATM   11  C   UNL     1      24.088  43.576  50.213  1.00  0.00     0.261 C 
HETATM   12  N   UNL     1      24.653  44.703  49.649  1.00  0.00    -0.323 N 
HETATM   13  H   UNL     1      25.613  44.598  49.338  1.00  0.00     0.169 HD
HETATM   14  O   UNL     1      22.966  43.500  50.700  1.00  0.00    -0.267 OA
BRANCH  12  15
HETATM   15  C   UNL     1      24.061  45.972  49.481  1.00  0.00     0.035 A 
HETATM   16  C   UNL     1      22.907  46.199  48.734  1.00  0.00     0.030 A 
HETATM   17  C   UNL     1      22.385  47.492  48.604  1.00  0.00     0.012 A 
HETATM   18  C   UNL     1      23.010  48.595  49.205  1.00  0.00    -0.030 A 
HETATM   19  C   UNL     1      24.159  48.357  49.969  1.00  0.00     0.012 A 
HETATM   20  C   UNL     1      24.678  47.061  50.105  1.00  0.00     0.030 A 
BRANCH  18  21
HETATM   21  C   UNL     1      22.395  49.965  49.018  1.00  0.00     0.147 C 
HETATM   22  C   UNL     1      23.186  50.948  48.162  1.00  0.00     0.044 C 
BRANCH  21  23
HETATM   23  O   UNL     1      22.202  50.534  50.310  1.00  0.00    -0.391 OA
HETATM   24  H   UNL     1      21.772  49.860  50.860  1.00  0.00     0.210 HD
ENDBRANCH  21  23
ENDBRANCH  18  21
ENDBRANCH  12  15
ENDBRANCH   7  11
BRANCH   1  25
HETATM   25  C   UNL     1      28.448  42.911  53.691  1.00  0.00    -0.035 A 
HETATM   26  C   UNL     1      27.806  44.086  54.123  1.00  0.00     0.010 A 
HETATM   27  C   UNL     1      28.417  44.950  55.036  1.00  0.00     0.007 A 
HETATM   28  C   UNL     1      29.691  44.668  55.532  1.00  0.00    -0.062 A 
HETATM   29  C   UNL     1      30.326  45.554  56.562  1.00  0.00     0.048 C 
HETATM   30  C   UNL     1      30.341  43.505  55.105  1.00  0.00     0.007 A 
HETATM   31  C   UNL     1      29.731  42.642  54.188  1.00  0.00     0.010 A 
ENDBRANCH   1  25
BRANCH   8  32
HETATM   32  C   UNL     1      28.493  39.574  49.868  1.00  0.00     0.409 C 
HETATM   33  F   UNL     1      27.879  38.555  49.236  1.00  0.00    -0.169 F 
HETATM   34  F   UNL     1      28.854  40.496  48.948  1.00  0.00    -0.169 F 
HETATM   35  F   UNL     1      29.650  39.062  50.372  1.00  0.00    -0.169 F 
ENDBRANCH   8  32
TORSDOF 6
ENDMDL
MODEL 2
REMARK VINA RESULT:      -9.4      1.383      1.991
REMARK  6 active torsions:
REMARK  status: ('A' for Active; 'I' for Inactive)
REMARK    1  A    between atoms: C_5  and  C_6 
REMARK    2  A    between atoms: C_12  and  C_13 
REMARK       I    between atoms: C_13  and  N_14 
REMARK    3  A    between atoms: N_14  and  C_15 
REMARK    4  A    between atoms: C_18  and  C_19 
REMARK    5  A    between atoms: C_19  and  O_20 
REMARK    6  A    between atoms: C_25  and  C_26 
ROOT
HETATM    1  C   UNL     1      27.557  42.720  52.835  1.00  0.00     0.118 C 
HETATM    2  N   UNL     1      27.156  43.641  51.757  1.00  0.00    -0.365 N 
HETATM    3  C   UNL     1      26.561  43.096  50.655  1.00  0.00     0.138 A 
HETATM    4  N   UNL     1      26.659  41.746  50.397  1.00  0.00    -0.240 N 
HETATM    5  N   UNL     1      25.960  41.350  49.326  1.00  0.00    -0.181 NA
HETATM    6  C   UNL     1      25.491  42.495  48.823  1.00  0.00     0.160 A 
HETATM    7  C   UNL     1      25.828  43.627  49.609  1.00  0.00     0.096 A 
HETATM    8  C   UNL     1      27.383  40.795  51.222  1.00  0.00     0.221 C 
HETATM    9  C   UNL     1      28.303  41.536  52.212  1.00  0.00     0.066 C 
HETATM   10  H   UNL     1      27.859  44.368  51.594  1.00  0.00     0.161 HD
ENDROOT
BRANCH   7  11
HETATM   11  C   UNL     1      25.419  44.995  49.331  1.00  0.00     0.261 C 
HETATM   12  N   UNL     1      24.065  45.145  49.096  1.00  0.00    -0.323 N 
HETATM   13  H   UNL     1      23.528  44.285  49.099  1.00  0.00     0.169 HD
HETATM   14  O   UNL     1      26.255  45.892  49.317  1.00  0.00    -0.267 OA
BRANCH  12  15
HETATM   15  C   UNL     1      23.363  46.339  48.835  1.00  0.00     0.035 A 
HETATM   16  C   UNL     1      23.611  47.546  49.484  1.00  0.00     0.030 A 
HETATM   17  C   UNL     1      22.863  48.688  49.177  1.00  0.00     0.012 A 
HETATM   18  C   UNL     1      21.835  48.652  48.222  1.00  0.00    -0.030 A 
HETATM   19  C   UNL     1      21.603  47.441  47.560  1.00  0.00     0.012 A 
HETATM   20  C   UNL     1      22.358  46.298  47.863  1.00  0.00     0.030 A 
BRANCH  18  21
HETATM   21  C   UNL     1      21.061  49.922  47.945  1.00  0.00     0.147 C 
HETATM   22  C   UNL     1      21.332  51.096  48.880  1.00  0.00     0.044 C 
BRANCH  21  23
HETATM   23  O   UNL     1      19.672  49.605  48.001  1.00  0.00    -0.391 OA
HETATM   24  H   UNL     1      19.570  48.702  47.658  1.00  0.00     0.210 HD
ENDBRANCH  21  23
ENDBRANCH  18  21
ENDBRANCH  12  15
ENDBRANCH   7  11
BRANCH   1  25
HETATM   25  C   UNL     1      28.300  43.490  53.912  1.00  0.00    -0.035 A 
HETATM   26  C   UNL     1      29.547  43.004  54.345  1.00  0.00     0.010 A 
HETATM   27  C   UNL     1      30.305  43.699  55.291  1.00  0.00     0.007 A 
HETATM   28  C   UNL     1      29.830  44.893  55.839  1.00  0.00    -0.062 A 
HETATM   29  C   UNL     1      30.667  45.679  56.804  1.00  0.00     0.048 C 
HETATM   30  C   UNL     1      28.590  45.382  55.419  1.00  0.00     0.007 A 
HETATM   31  C   UNL     1      27.828  44.684  54.474  1.00  0.00     0.010 A 
ENDBRANCH   1  25
BRANCH   8  32
HETATM   32  C   UNL     1      28.212  39.837  50.390  1.00  0.00     0.409 C 
HETATM   33  F   UNL     1      29.234  39.276  51.064  1.00  0.00    -0.169 F 
HETATM   34  F   UNL     1      27.464  38.852  49.844  1.00  0.00    -0.169 F 
HETATM   35  F   UNL     1      28.773  40.514  49.350  1.00  0.00    -0.169 F 
ENDBRANCH   8  32
TORSDOF 6
ENDMDL
MODEL 3
REMARK VINA RESULT:      -9.4      3.728      9.012
REMARK  6 active torsions:
REMARK  status: ('A' for Active; 'I' for Inactive)
REMARK    1  A    between atoms: C_5  and  C_6 
REMARK    2  A    between atoms: C_12  and  C_13 
REMARK       I    between atoms: C_13  and  N_14 
REMARK    3  A    between atoms: N_14  and  C_15 
REMARK    4  A    between atoms: C_18  and  C_19 
REMARK    5  A    between atoms: C_19  and  O_20 
REMARK    6  A    between atoms: C_25  and  C_26 
ROOT
HETATM    1  C   UNL     1      22.135  47.800  48.450  1.00  0.00     0.118 C 
HETATM    2  N   UNL     1      22.916  47.415  49.640  1.00  0.00    -0.365 N 
HETATM    3  C   UNL     1      23.727  46.323  49.531  1.00  0.00     0.138 A 
HETATM    4  N   UNL     1      23.558  45.418  48.505  1.00  0.00    -0.240 N 
HETATM    5  N   UNL     1      24.477  44.445  48.488  1.00  0.00    -0.181 NA
HETATM    6  C   UNL     1      25.188  44.672  49.595  1.00  0.00     0.160 A 
HETATM    7  C   UNL     1      24.774  45.835  50.294  1.00  0.00     0.096 A 
HETATM    8  C   UNL     1      22.536  45.512  47.479  1.00  0.00     0.221 C 
HETATM    9  C   UNL     1      21.465  46.545  47.881  1.00  0.00     0.066 C 
HETATM   10  H   UNL     1      22.368  47.504  50.501  1.00  0.00     0.161 HD
ENDROOT
BRANCH   7  11
HETATM   11  C   UNL     1      25.390  46.352  51.506  1.00  0.00     0.261 C 
HETATM   12  N   UNL     1      26.198  45.444  52.162  1.00  0.00    -0.323 N 
HETATM   13  H   UNL     1      26.231  44.517  51.752  1.00  0.00     0.169 HD
HETATM   14  O   UNL     1      25.166  47.504  51.862  1.00  0.00    -0.267 OA
BRANCH  12  15
HETATM   15  C   UNL     1      26.954  45.652  53.334  1.00  0.00     0.035 A 
HETATM   16  C   UNL     1      26.954  46.842  54.059  1.00  0.00     0.030 A 
HETATM   17  C   UNL     1      27.741  46.976  55.209  1.00  0.00     0.012 A 
HETATM   18  C   UNL     1      28.561  45.930  55.658  1.00  0.00    -0.030 A 
HETATM   19  C   UNL     1      28.543  44.731  54.936  1.00  0.00     0.012 A 
HETATM   20  C   UNL     1      27.748  44.594  53.788  1.00  0.00     0.030 A 
BRANCH  18  21
HETATM   21  C   UNL     1      29.391  46.146  56.904  1.00  0.00     0.147 C 
HETATM   22  C   UNL     1      30.505  45.136  57.158  1.00  0.00     0.044 C 
BRANCH  21  23
HETATM   23  O   UNL     1      28.506  46.142  58.022  1.00  0.00    -0.391 OA
HETATM   24  H   UNL     1      28.783  45.416  58.605  1.00  0.00     0.210 HD
ENDBRANCH  21  23
ENDBRANCH  18  21
ENDBRANCH  12  15
ENDBRANCH   7  11
BRANCH   1  25
HETATM   25  C   UNL     1      21.212  48.954  48.799  1.00  0.00    -0.035 A 
HETATM   26  C   UNL     1      21.535  50.238  48.324  1.00  0.00     0.010 A 
HETATM   27  C   UNL     1      20.695  51.329  48.563  1.00  0.00     0.007 A 
HETATM   28  C   UNL     1      19.517  51.167  49.296  1.00  0.00    -0.062 A 
HETATM   29  C   UNL     1      18.577  52.319  49.500  1.00  0.00     0.048 C 
HETATM   30  C   UNL     1      19.190  49.896  49.778  1.00  0.00     0.007 A 
HETATM   31  C   UNL     1      20.033  48.804  49.541  1.00  0.00     0.010 A 
ENDBRANCH   1  25
BRANCH   8  32
HETATM   32  C   UNL     1      21.869  44.177  47.216  1.00  0.00     0.409 C 
HETATM   33  F   UNL     1      22.435  43.472  46.218  1.00  0.00    -0.169 F 
HETATM   34  F   UNL     1      21.824  43.400  48.321  1.00  0.00    -0.169 F 
HETATM   35  F   UNL     1      20.576  44.387  46.842  1.00  0.00    -0.169 F 
ENDBRANCH   8  32
TORSDOF 6
ENDMDL
MODEL 4
REMARK VINA RESULT:      -9.3      2.004      2.926
REMARK  6 active torsions:
REMARK  status: ('A' for Active; 'I' for Inactive)
REMARK    1  A    between atoms: C_5  and  C_6 
REMARK    2  A    between atoms: C_12  and  C_13 
REMARK       I    between atoms: C_13  and  N_14 
REMARK    3  A    between atoms: N_14  and  C_15 
REMARK    4  A    between atoms: C_18  and  C_19 
REMARK    5  A    between atoms: C_19  and  O_20 
REMARK    6  A    between atoms: C_25  and  C_26 
ROOT
HETATM    1  C   UNL     1      26.709  43.771  52.541  1.00  0.00     0.118 C 
HETATM    2  N   UNL     1      26.138  44.877  51.752  1.00  0.00    -0.365 N 
HETATM    3  C   UNL     1      25.408  44.549  50.646  1.00  0.00     0.138 A 
HETATM    4  N   UNL     1      25.501  43.292  50.088  1.00  0.00    -0.240 N 
HETATM    5  N   UNL     1      24.669  43.097  49.058  1.00  0.00    -0.181 NA
HETATM    6  C   UNL     1      24.107  44.296  48.885  1.00  0.00     0.160 A 
HETATM    7  C   UNL     1      24.523  45.250  49.847  1.00  0.00     0.096 A 
HETATM    8  C   UNL     1      26.356  42.228  50.583  1.00  0.00     0.221 C 
HETATM    9  C   UNL     1      27.388  42.788  51.581  1.00  0.00     0.066 C 
HETATM   10  H   UNL     1      26.794  45.659  51.661  1.00  0.00     0.161 HD
ENDROOT
BRANCH   7  11
HETATM   11  C   UNL     1      24.047  46.622  49.932  1.00  0.00     0.261 C 
HETATM   12  N   UNL     1      22.947  46.890  49.138  1.00  0.00    -0.323 N 
HETATM   13  H   UNL     1      22.632  46.118  48.560  1.00  0.00     0.169 HD
HETATM   14  O   UNL     1      24.619  47.424  50.661  1.00  0.00    -0.267 OA
BRANCH  12  15
HETATM   15  C   UNL     1      22.239  48.104  49.028  1.00  0.00     0.035 A 
HETATM   16  C   UNL     1      22.846  49.358  48.985  1.00  0.00     0.030 A 
HETATM   17  C   UNL     1      22.073  50.521  48.886  1.00  0.00     0.012 A 
HETATM   18  C   UNL     1      20.672  50.464  48.840  1.00  0.00    -0.030 A 
HETATM   19  C   UNL     1      20.069  49.200  48.865  1.00  0.00     0.012 A 
HETATM   20  C   UNL     1      20.844  48.034  48.957  1.00  0.00     0.030 A 
BRANCH  18  21
HETATM   21  C   UNL     1      19.898  51.760  48.740  1.00  0.00     0.147 C 
HETATM   22  C   UNL     1      18.880  52.026  49.843  1.00  0.00     0.044 C 
BRANCH  21  23
HETATM   23  O   UNL     1      19.225  51.768  47.484  1.00  0.00    -0.391 OA
HETATM   24  H   UNL     1      19.155  52.694  47.201  1.00  0.00     0.210 HD
ENDBRANCH  21  23
ENDBRANCH  18  21
ENDBRANCH  12  15
ENDBRANCH   7  11
BRANCH   1  25
HETATM   25  C   UNL     1      27.577  44.332  53.652  1.00  0.00    -0.035 A 
HETATM   26  C   UNL     1      28.712  43.603  54.051  1.00  0.00     0.010 A 
HETATM   27  C   UNL     1      29.581  44.095  55.028  1.00  0.00     0.007 A 
HETATM   28  C   UNL     1      29.331  45.325  55.641  1.00  0.00    -0.062 A 
HETATM   29  C   UNL     1      30.295  45.892  56.642  1.00  0.00     0.048 C 
HETATM   30  C   UNL     1      28.203  46.055  55.257  1.00  0.00     0.007 A 
HETATM   31  C   UNL     1      27.330  45.561  54.281  1.00  0.00     0.010 A 
ENDBRANCH   1  25
BRANCH   8  32
HETATM   32  C   UNL     1      27.083  41.514  49.460  1.00  0.00     0.409 C 
HETATM   33  F   UNL     1      26.415  40.454  48.966  1.00  0.00    -0.169 F 
HETATM   34  F   UNL     1      27.390  42.345  48.439  1.00  0.00    -0.169 F 
HETATM   35  F   UNL     1      28.266  41.029  49.929  1.00  0.00    -0.169 F 
ENDBRANCH   8  32
TORSDOF 6
ENDMDL
MODEL 5
REMARK VINA RESULT:      -9.1      3.106      4.508
REMARK  6 active torsions:
REMARK  status: ('A' for Active; 'I' for Inactive)
REMARK    1  A    between atoms: C_5  and  C_6 
REMARK    2  A    between atoms: C_12  and  C_13 
REMARK       I    between atoms: C_13  and  N_14 
REMARK    3  A    between atoms: N_14  and  C_15 
REMARK    4  A    between atoms: C_18  and  C_19 
REMARK    5  A    between atoms: C_19  and  O_20 
REMARK    6  A    between atoms: C_25  and  C_26 
ROOT
HETATM    1  C   UNL     1      24.453  44.383  51.490  1.00  0.00     0.118 C 
HETATM    2  N   UNL     1      23.964  45.358  50.499  1.00  0.00    -0.365 N 
HETATM    3  C   UNL     1      23.163  44.887  49.499  1.00  0.00     0.138 A 
HETATM    4  N   UNL     1      23.111  43.540  49.212  1.00  0.00    -0.240 N 
HETATM    5  N   UNL     1      22.224  43.226  48.260  1.00  0.00    -0.181 NA
HETATM    6  C   UNL     1      21.776  44.415  47.851  1.00  0.00     0.160 A 
HETATM    7  C   UNL     1      22.320  45.498  48.587  1.00  0.00     0.096 A 
HETATM    8  C   UNL     1      23.876  42.517  49.902  1.00  0.00     0.221 C 
HETATM    9  C   UNL     1      24.996  43.160  50.743  1.00  0.00     0.066 C 
HETATM   10  H   UNL     1      24.689  46.032  50.236  1.00  0.00     0.161 HD
ENDROOT
BRANCH   7  11
HETATM   11  C   UNL     1      21.984  46.900  48.393  1.00  0.00     0.261 C 
HETATM   12  N   UNL     1      20.787  47.280  48.971  1.00  0.00    -0.323 N 
HETATM   13  H   UNL     1      20.266  46.534  49.418  1.00  0.00     0.169 HD
HETATM   14  O   UNL     1      22.739  47.628  47.759  1.00  0.00    -0.267 OA
BRANCH  12  15
HETATM   15  C   UNL     1      20.208  48.565  48.987  1.00  0.00     0.035 A 
HETATM   16  C   UNL     1      20.187  49.424  47.890  1.00  0.00     0.030 A 
HETATM   17  C   UNL     1      19.602  50.692  47.987  1.00  0.00     0.012 A 
HETATM   18  C   UNL     1      19.034  51.143  49.189  1.00  0.00    -0.030 A 
HETATM   19  C   UNL     1      19.042  50.269  50.283  1.00  0.00     0.012 A 
HETATM   20  C   UNL     1      19.622  48.995  50.182  1.00  0.00     0.030 A 
BRANCH  18  21
HETATM   21  C   UNL     1      18.426  52.528  49.226  1.00  0.00     0.147 C 
HETATM   22  C   UNL     1      17.010  52.628  49.782  1.00  0.00     0.044 C 
BRANCH  21  23
HETATM   23  O   UNL     1      18.431  53.039  47.895  1.00  0.00    -0.391 OA
HETATM   24  H   UNL     1      19.233  53.578  47.798  1.00  0.00     0.210 HD
ENDBRANCH  21  23
ENDBRANCH  18  21
ENDBRANCH  12  15
ENDBRANCH   7  11
BRANCH   1  25
HETATM   25  C   UNL     1      25.415  45.067  52.445  1.00  0.00    -0.035 A 
HETATM   26  C   UNL     1      25.464  46.473  52.455  1.00  0.00     0.010 A 
HETATM   27  C   UNL     1      26.287  47.161  53.350  1.00  0.00     0.007 A 
HETATM   28  C   UNL     1      27.093  46.461  54.251  1.00  0.00    -0.062 A 
HETATM   29  C   UNL     1      27.929  47.192  55.260  1.00  0.00     0.048 C 
HETATM   30  C   UNL     1      27.056  45.063  54.245  1.00  0.00     0.007 A 
HETATM   31  C   UNL     1      26.235  44.374  53.346  1.00  0.00     0.010 A 
ENDBRANCH   1  25
BRANCH   8  32
HETATM   32  C   UNL     1      24.486  41.517  48.939  1.00  0.00     0.409 C 
HETATM   33  F   UNL     1      23.585  40.701  48.359  1.00  0.00    -0.169 F 
HETATM   34  F   UNL     1      25.212  42.116  47.969  1.00  0.00    -0.169 F 
HETATM   35  F   UNL     1      25.345  40.707  49.617  1.00  0.00    -0.169 F 
ENDBRANCH   8  32
TORSDOF 6
ENDMDL
MODEL 6
REMARK VINA RESULT:      -8.9      3.836      8.629
REMARK  6 active torsions:
REMARK  status: ('A' for Active; 'I' for Inactive)
REMARK    1  A    between atoms: C_5  and  C_6 
REMARK    2  A    between atoms: C_12  and  C_13 
REMARK       I    between atoms: C_13  and  N_14 
REMARK    3  A    between atoms: N_14  and  C_15 
REMARK    4  A    between atoms: C_18  and  C_19 
REMARK    5  A    between atoms: C_19  and  O_20 
REMARK    6  A    between atoms: C_25  and  C_26 
ROOT
HETATM    1  C   UNL     1      25.941  46.091  51.728  1.00  0.00     0.118 C 
HETATM    2  N   UNL     1      26.605  44.942  51.088  1.00  0.00    -0.365 N 
HETATM    3  C   UNL     1      27.066  43.949  51.905  1.00  0.00     0.138 A 
HETATM    4  N   UNL     1      27.236  44.169  53.255  1.00  0.00    -0.240 N 
HETATM    5  N   UNL     1      27.620  43.081  53.934  1.00  0.00    -0.181 NA
HETATM    6  C   UNL     1      27.805  42.169  52.976  1.00  0.00     0.160 A 
HETATM    7  C   UNL     1      27.474  42.646  51.682  1.00  0.00     0.096 A 
HETATM    8  C   UNL     1      26.968  45.427  53.929  1.00  0.00     0.221 C 
HETATM    9  C   UNL     1      26.807  46.563  52.900  1.00  0.00     0.066 C 
HETATM   10  H   UNL     1      27.215  45.233  50.319  1.00  0.00     0.161 HD
ENDROOT
BRANCH   7  11
HETATM   11  C   UNL     1      27.535  41.864  50.457  1.00  0.00     0.261 C 
HETATM   12  N   UNL     1      27.832  40.529  50.651  1.00  0.00    -0.323 N 
HETATM   13  H   UNL     1      28.018  40.262  51.612  1.00  0.00     0.169 HD
HETATM   14  O   UNL     1      27.333  42.406  49.376  1.00  0.00    -0.267 OA
BRANCH  12  15
HETATM   15  C   UNL     1      27.928  39.516  49.675  1.00  0.00     0.035 A 
HETATM   16  C   UNL     1      29.124  39.122  49.078  1.00  0.00     0.030 A 
HETATM   17  C   UNL     1      29.137  38.114  48.106  1.00  0.00     0.012 A 
HETATM   18  C   UNL     1      27.954  37.482  47.694  1.00  0.00    -0.030 A 
HETATM   19  C   UNL     1      26.758  37.870  48.311  1.00  0.00     0.012 A 
HETATM   20  C   UNL     1      26.747  38.875  49.291  1.00  0.00     0.030 A 
BRANCH  18  21
HETATM   21  C   UNL     1      28.040  36.406  46.634  1.00  0.00     0.147 C 
HETATM   22  C   UNL     1      27.616  36.810  45.226  1.00  0.00     0.044 C 
BRANCH  21  23
HETATM   23  O   UNL     1      27.232  35.312  47.060  1.00  0.00    -0.391 OA
HETATM   24  H   UNL     1      27.411  34.571  46.458  1.00  0.00     0.210 HD
ENDBRANCH  21  23
ENDBRANCH  18  21
ENDBRANCH  12  15
ENDBRANCH   7  11
BRANCH   1  25
HETATM   25  C   UNL     1      25.606  47.135  50.678  1.00  0.00    -0.035 A 
HETATM   26  C   UNL     1      24.259  47.313  50.314  1.00  0.00     0.010 A 
HETATM   27  C   UNL     1      23.883  48.296  49.395  1.00  0.00     0.007 A 
HETATM   28  C   UNL     1      24.846  49.119  48.806  1.00  0.00    -0.062 A 
HETATM   29  C   UNL     1      24.443  50.221  47.870  1.00  0.00     0.048 C 
HETATM   30  C   UNL     1      26.188  48.947  49.157  1.00  0.00     0.007 A 
HETATM   31  C   UNL     1      26.566  47.959  50.074  1.00  0.00     0.010 A 
ENDBRANCH   1  25
BRANCH   8  32
HETATM   32  C   UNL     1      28.064  45.791  54.910  1.00  0.00     0.409 C 
HETATM   33  F   UNL     1      27.823  45.386  56.172  1.00  0.00    -0.169 F 
HETATM   34  F   UNL     1      29.272  45.318  54.528  1.00  0.00    -0.169 F 
HETATM   35  F   UNL     1      28.184  47.147  54.966  1.00  0.00    -0.169 F 
ENDBRANCH   8  32
TORSDOF 6
ENDMDL
MODEL 7
REMARK VINA RESULT:      -8.4      4.228      8.028
REMARK  6 active torsions:
REMARK  status: ('A' for Active; 'I' for Inactive)
REMARK    1  A    between atoms: C_5  and  C_6 
REMARK    2  A    between atoms: C_12  and  C_13 
REMARK       I    between atoms: C_13  and  N_14 
REMARK    3  A    between atoms: N_14  and  C_15 
REMARK    4  A    between atoms: C_18  and  C_19 
REMARK    5  A    between atoms: C_19  and  O_20 
REMARK    6  A    between atoms: C_25  and  C_26 
ROOT
HETATM    1  C   UNL     1      28.152  44.096  52.038  1.00  0.00     0.118 C 
HETATM    2  N   UNL     1      27.719  42.798  51.491  1.00  0.00    -0.365 N 
HETATM    3  C   UNL     1      26.816  42.818  50.466  1.00  0.00     0.138 A 
HETATM    4  N   UNL     1      26.076  43.950  50.201  1.00  0.00    -0.240 N 
HETATM    5  N   UNL     1      25.293  43.841  49.121  1.00  0.00    -0.181 NA
HETATM    6  C   UNL     1      25.457  42.569  48.749  1.00  0.00     0.160 A 
HETATM    7  C   UNL     1      26.399  41.872  49.547  1.00  0.00     0.096 A 
HETATM    8  C   UNL     1      26.158  45.188  50.955  1.00  0.00     0.221 C 
HETATM    9  C   UNL     1      26.910  44.961  52.281  1.00  0.00     0.066 C 
HETATM   10  H   UNL     1      27.569  42.104  52.229  1.00  0.00     0.161 HD
ENDROOT
BRANCH   7  11
HETATM   11  C   UNL     1      26.810  40.490  49.350  1.00  0.00     0.261 C 
HETATM   12  N   UNL     1      26.599  40.014  48.070  1.00  0.00    -0.323 N 
HETATM   13  H   UNL     1      26.144  40.662  47.436  1.00  0.00     0.169 HD
HETATM   14  O   UNL     1      27.292  39.857  50.282  1.00  0.00    -0.267 OA
BRANCH  12  15
HETATM   15  C   UNL     1      26.921  38.740  47.561  1.00  0.00     0.035 A 
HETATM   16  C   UNL     1      28.214  38.333  47.240  1.00  0.00     0.030 A 
HETATM   17  C   UNL     1      28.453  37.052  46.727  1.00  0.00     0.012 A 
HETATM   18  C   UNL     1      27.403  36.147  46.508  1.00  0.00    -0.030 A 
HETATM   19  C   UNL     1      26.108  36.555  46.850  1.00  0.00     0.012 A 
HETATM   20  C   UNL     1      25.870  37.836  47.370  1.00  0.00     0.030 A 
BRANCH  18  21
HETATM   21  C   UNL     1      27.732  34.782  45.945  1.00  0.00     0.147 C 
HETATM   22  C   UNL     1      26.964  34.364  44.695  1.00  0.00     0.044 C 
BRANCH  21  23
HETATM   23  O   UNL     1      27.493  33.821  46.970  1.00  0.00    -0.391 OA
HETATM   24  H   UNL     1      28.232  33.881  47.598  1.00  0.00     0.210 HD
ENDBRANCH  21  23
ENDBRANCH  18  21
ENDBRANCH  12  15
ENDBRANCH   7  11
BRANCH   1  25
HETATM   25  C   UNL     1      29.055  43.868  53.236  1.00  0.00    -0.035 A 
HETATM   26  C   UNL     1      28.900  44.697  54.362  1.00  0.00     0.010 A 
HETATM   27  C   UNL     1      29.663  44.500  55.516  1.00  0.00     0.007 A 
HETATM   28  C   UNL     1      30.610  43.475  55.570  1.00  0.00    -0.062 A 
HETATM   29  C   UNL     1      31.385  43.214  56.828  1.00  0.00     0.048 C 
HETATM   30  C   UNL     1      30.776  42.648  54.455  1.00  0.00     0.007 A 
HETATM   31  C   UNL     1      30.015  42.848  53.297  1.00  0.00     0.010 A 
ENDBRANCH   1  25
BRANCH   8  32
HETATM   32  C   UNL     1      24.789  45.767  51.249  1.00  0.00     0.409 C 
HETATM   33  F   UNL     1      24.229  46.402  50.202  1.00  0.00    -0.169 F 
HETATM   34  F   UNL     1      23.923  44.831  51.699  1.00  0.00    -0.169 F 
HETATM   35  F   UNL     1      24.897  46.696  52.239  1.00  0.00    -0.169 F 
ENDBRANCH   8  32
TORSDOF 6
ENDMDL
MODEL 8
REMARK VINA RESULT:      -8.4      4.001      8.671
REMARK  6 active torsions:
REMARK  status: ('A' for Active; 'I' for Inactive)
REMARK    1  A    between atoms: C_5  and  C_6 
REMARK    2  A    between atoms: C_12  and  C_13 
REMARK       I    between atoms: C_13  and  N_14 
REMARK    3  A    between atoms: N_14  and  C_15 
REMARK    4  A    between atoms: C_18  and  C_19 
REMARK    5  A    between atoms: C_19  and  O_20 
REMARK    6  A    between atoms: C_25  and  C_26 
ROOT
HETATM    1  C   UNL     1      26.375  44.146  52.250  1.00  0.00     0.118 C 
HETATM    2  N   UNL     1      26.879  43.130  51.308  1.00  0.00    -0.365 N 
HETATM    3  C   UNL     1      27.653  42.129  51.819  1.00  0.00     0.138 A 
HETATM    4  N   UNL     1      28.236  42.253  53.062  1.00  0.00    -0.240 N 
HETATM    5  N   UNL     1      28.900  41.160  53.457  1.00  0.00    -0.181 NA
HETATM    6  C   UNL     1      28.831  40.356  52.394  1.00  0.00     0.160 A 
HETATM    7  C   UNL     1      28.063  40.900  51.333  1.00  0.00     0.096 A 
HETATM    8  C   UNL     1      28.109  43.415  53.924  1.00  0.00     0.221 C 
HETATM    9  C   UNL     1      27.538  44.609  53.134  1.00  0.00     0.066 C 
HETATM   10  H   UNL     1      27.183  43.548  50.423  1.00  0.00     0.161 HD
ENDROOT
BRANCH   7  11
HETATM   11  C   UNL     1      27.780  40.233  50.071  1.00  0.00     0.261 C 
HETATM   12  N   UNL     1      28.086  38.885  50.062  1.00  0.00    -0.323 N 
HETATM   13  H   UNL     1      28.511  38.532  50.913  1.00  0.00     0.169 HD
HETATM   14  O   UNL     1      27.314  40.871  49.134  1.00  0.00    -0.267 OA
BRANCH  12  15
HETATM   15  C   UNL     1      27.897  37.966  49.011  1.00  0.00     0.035 A 
HETATM   16  C   UNL     1      28.685  37.925  47.862  1.00  0.00     0.030 A 
HETATM   17  C   UNL     1      28.428  36.988  46.854  1.00  0.00     0.012 A 
HETATM   18  C   UNL     1      27.367  36.075  46.959  1.00  0.00    -0.030 A 
HETATM   19  C   UNL     1      26.591  36.110  48.124  1.00  0.00     0.012 A 
HETATM   20  C   UNL     1      26.853  37.044  49.137  1.00  0.00     0.030 A 
BRANCH  18  21
HETATM   21  C   UNL     1      27.142  35.095  45.829  1.00  0.00     0.147 C 
HETATM   22  C   UNL     1      25.700  34.663  45.587  1.00  0.00     0.044 C 
BRANCH  21  23
HETATM   23  O   UNL     1      27.928  33.936  46.097  1.00  0.00    -0.391 OA
HETATM   24  H   UNL     1      28.802  34.243  46.388  1.00  0.00     0.210 HD
ENDBRANCH  21  23
ENDBRANCH  18  21
ENDBRANCH  12  15
ENDBRANCH   7  11
BRANCH   1  25
HETATM   25  C   UNL     1      25.640  45.231  51.484  1.00  0.00    -0.035 A 
HETATM   26  C   UNL     1      26.078  46.561  51.618  1.00  0.00     0.010 A 
HETATM   27  C   UNL     1      25.479  47.596  50.895  1.00  0.00     0.007 A 
HETATM   28  C   UNL     1      24.417  47.329  50.027  1.00  0.00    -0.062 A 
HETATM   29  C   UNL     1      23.813  48.423  49.197  1.00  0.00     0.048 C 
HETATM   30  C   UNL     1      23.971  46.011  49.890  1.00  0.00     0.007 A 
HETATM   31  C   UNL     1      24.568  44.975  50.617  1.00  0.00     0.010 A 
ENDBRANCH   1  25
BRANCH   8  32
HETATM   32  C   UNL     1      29.434  43.812  54.542  1.00  0.00     0.409 C 
HETATM   33  F   UNL     1      30.489  43.651  53.720  1.00  0.00    -0.169 F 
HETATM   34  F   UNL     1      29.429  45.087  54.991  1.00  0.00    -0.169 F 
HETATM   35  F   UNL     1      29.678  43.024  55.626  1.00  0.00    -0.169 F 
ENDBRANCH   8  32
TORSDOF 6
ENDMDL
MODEL 9
REMARK VINA RESULT:      -8.3     17.513     20.123
REMARK  6 active torsions:
REMARK  status: ('A' for Active; 'I' for Inactive)
REMARK    1  A    between atoms: C_5  and  C_6 
REMARK    2  A    between atoms: C_12  and  C_13 
REMARK       I    between atoms: C_13  and  N_14 
REMARK    3  A    between atoms: N_14  and  C_15 
REMARK    4  A    between atoms: C_18  and  C_19 
REMARK    5  A    between atoms: C_19  and  O_20 
REMARK    6  A    between atoms: C_25  and  C_26 
ROOT
HETATM    1  C   UNL     1      41.026  45.295  65.152  1.00  0.00     0.118 C 
HETATM    2  N   UNL     1      40.026  46.345  64.891  1.00  0.00    -0.365 N 
HETATM    3  C   UNL     1      38.731  45.949  64.715  1.00  0.00     0.138 A 
HETATM    4  N   UNL     1      38.429  44.635  64.431  1.00  0.00    -0.240 N 
HETATM    5  N   UNL     1      37.115  44.387  64.363  1.00  0.00    -0.181 NA
HETATM    6  C   UNL     1      36.566  45.597  64.500  1.00  0.00     0.160 A 
HETATM    7  C   UNL     1      37.521  46.620  64.726  1.00  0.00     0.096 A 
HETATM    8  C   UNL     1      39.408  43.573  64.282  1.00  0.00     0.221 C 
HETATM    9  C   UNL     1      40.823  44.166  64.137  1.00  0.00     0.066 C 
HETATM   10  H   UNL     1      40.384  47.063  64.253  1.00  0.00     0.161 HD
ENDROOT
BRANCH   7  11
HETATM   11  C   UNL     1      37.212  48.023  64.953  1.00  0.00     0.261 C 
HETATM   12  N   UNL     1      37.676  48.517  66.157  1.00  0.00    -0.323 N 
HETATM   13  H   UNL     1      38.133  47.839  66.757  1.00  0.00     0.169 HD
HETATM   14  O   UNL     1      36.587  48.655  64.109  1.00  0.00    -0.267 OA
BRANCH  12  15
HETATM   15  C   UNL     1      37.567  49.834  66.648  1.00  0.00     0.035 A 
HETATM   16  C   UNL     1      37.916  50.969  65.917  1.00  0.00     0.030 A 
HETATM   17  C   UNL     1      37.790  52.245  66.478  1.00  0.00     0.012 A 
HETATM   18  C   UNL     1      37.325  52.423  67.789  1.00  0.00    -0.030 A 
HETATM   19  C   UNL     1      36.958  51.281  68.512  1.00  0.00     0.012 A 
HETATM   20  C   UNL     1      37.078  50.002  67.947  1.00  0.00     0.030 A 
BRANCH  18  21
HETATM   21  C   UNL     1      37.220  53.830  68.335  1.00  0.00     0.147 C 
HETATM   22  C   UNL     1      37.340  54.959  67.317  1.00  0.00     0.044 C 
BRANCH  21  23
HETATM   23  O   UNL     1      38.239  53.991  69.319  1.00  0.00    -0.391 OA
HETATM   24  H   UNL     1      38.982  53.423  69.059  1.00  0.00     0.210 HD
ENDBRANCH  21  23
ENDBRANCH  18  21
ENDBRANCH  12  15
ENDBRANCH   7  11
BRANCH   1  25
HETATM   25  C   UNL     1      42.412  45.913  65.202  1.00  0.00    -0.035 A 
HETATM   26  C   UNL     1      43.311  45.629  64.157  1.00  0.00     0.010 A 
HETATM   27  C   UNL     1      44.580  46.213  64.117  1.00  0.00     0.007 A 
HETATM   28  C   UNL     1      44.988  47.086  65.127  1.00  0.00    -0.062 A 
HETATM   29  C   UNL     1      46.322  47.769  65.057  1.00  0.00     0.048 C 
HETATM   30  C   UNL     1      44.105  47.370  66.173  1.00  0.00     0.007 A 
HETATM   31  C   UNL     1      42.835  46.783  66.216  1.00  0.00     0.010 A 
ENDBRANCH   1  25
BRANCH   8  32
HETATM   32  C   UNL     1      39.111  42.690  63.087  1.00  0.00     0.409 C 
HETATM   33  F   UNL     1      37.941  42.028  63.176  1.00  0.00    -0.169 F 
HETATM   34  F   UNL     1      39.130  43.377  61.923  1.00  0.00    -0.169 F 
HETATM   35  F   UNL     1      40.076  41.734  62.984  1.00  0.00    -0.169 F 
ENDBRANCH   8  32
TORSDOF 6
ENDMDL
MODEL 10
REMARK VINA RESULT:      -8.3      7.048      9.921
REMARK  6 active torsions:
REMARK  status: ('A' for Active; 'I' for Inactive)
REMARK    1  A    between atoms: C_5  and  C_6 
REMARK    2  A    between atoms: C_12  and  C_13 
REMARK       I    between atoms: C_13  and  N_14 
REMARK    3  A    between atoms: N_14  and  C_15 
REMARK    4  A    between atoms: C_18  and  C_19 
REMARK    5  A    between atoms: C_19  and  O_20 
REMARK    6  A    between atoms: C_25  and  C_26 
ROOT
HETATM    1  C   UNL     1      22.121  49.319  48.228  1.00  0.00     0.118 C 
HETATM    2  N   UNL     1      21.556  47.970  48.414  1.00  0.00    -0.365 N 
HETATM    3  C   UNL     1      20.201  47.838  48.318  1.00  0.00     0.138 A 
HETATM    4  N   UNL     1      19.377  48.940  48.410  1.00  0.00    -0.240 N 
HETATM    5  N   UNL     1      18.082  48.661  48.220  1.00  0.00    -0.181 NA
HETATM    6  C   UNL     1      18.065  47.330  48.112  1.00  0.00     0.160 A 
HETATM    7  C   UNL     1      19.359  46.751  48.162  1.00  0.00     0.096 A 
HETATM    8  C   UNL     1      19.836  50.301  48.621  1.00  0.00     0.221 C 
HETATM    9  C   UNL     1      21.309  50.307  49.072  1.00  0.00     0.066 C 
HETATM   10  H   UNL     1      22.020  47.464  49.174  1.00  0.00     0.161 HD
ENDROOT
BRANCH   7  11
HETATM   11  C   UNL     1      19.651  45.333  48.027  1.00  0.00     0.261 C 
HETATM   12  N   UNL     1      20.869  45.059  47.434  1.00  0.00    -0.323 N 
HETATM   13  H   UNL     1      21.391  45.871  47.122  1.00  0.00     0.169 HD
HETATM   14  O   UNL     1      18.842  44.502  48.424  1.00  0.00    -0.267 OA
BRANCH  12  15
HETATM   15  C   UNL     1      21.447  43.796  47.196  1.00  0.00     0.035 A 
HETATM   16  C   UNL     1      21.099  42.969  46.130  1.00  0.00     0.030 A 
HETATM   17  C   UNL     1      21.712  41.720  45.966  1.00  0.00     0.012 A 
HETATM   18  C   UNL     1      22.679  41.258  46.872  1.00  0.00    -0.030 A 
HETATM   19  C   UNL     1      23.037  42.101  47.931  1.00  0.00     0.012 A 
HETATM   20  C   UNL     1      22.429  43.355  48.090  1.00  0.00     0.030 A 
BRANCH  18  21
HETATM   21  C   UNL     1      23.294  39.896  46.639  1.00  0.00     0.147 C 
HETATM   22  C   UNL     1      22.329  38.716  46.601  1.00  0.00     0.044 C 
BRANCH  21  23
HETATM   23  O   UNL     1      24.252  39.670  47.671  1.00  0.00    -0.391 OA
HETATM   24  H   UNL     1      24.215  40.434  48.269  1.00  0.00     0.210 HD
ENDBRANCH  21  23
ENDBRANCH  18  21
ENDBRANCH  12  15
ENDBRANCH   7  11
BRANCH   1  25
HETATM   25  C   UNL     1      23.616  49.285  48.486  1.00  0.00    -0.035 A 
HETATM   26  C   UNL     1      24.125  48.302  49.355  1.00  0.00     0.010 A 
HETATM   27  C   UNL     1      25.498  48.184  49.588  1.00  0.00     0.007 A 
HETATM   28  C   UNL     1      26.397  49.054  48.968  1.00  0.00    -0.062 A 
HETATM   29  C   UNL     1      27.876  48.892  49.160  1.00  0.00     0.048 C 
HETATM   30  C   UNL     1      25.902  50.038  48.107  1.00  0.00     0.007 A 
HETATM   31  C   UNL     1      24.527  50.159  47.876  1.00  0.00     0.010 A 
ENDBRANCH   1  25
BRANCH   8  32
HETATM   32  C   UNL     1      18.995  51.031  49.649  1.00  0.00     0.409 C 
HETATM   33  F   UNL     1      18.447  50.223  50.577  1.00  0.00    -0.169 F 
HETATM   34  F   UNL     1      19.688  52.005  50.281  1.00  0.00    -0.169 F 
HETATM   35  F   UNL     1      17.953  51.646  49.023  1.00  0.00    -0.169 F 
ENDBRANCH   8  32
TORSDOF 6
ENDMDL
