MODEL 1
REMARK VINA RESULT:      -9.5      0.000      0.000
REMARK  6 active torsions:
REMARK  status: ('A' for Active; 'I' for Inactive)
REMARK    1  A    between atoms: C_11  and  N_12 
REMARK    2  A    between atoms: N_12  and  C_13 
REMARK    3  A    between atoms: C_13  and  C_14 
REMARK    4  A    between atoms: C_14  and  N_15 
REMARK       I    between atoms: N_15  and  C_16 
REMARK    5  A    between atoms: C_16  and  C_17 
REMARK    6  A    between atoms: C_20  and  O_21 
ROOT
HETATM    1  N   UNL     1      26.229  44.532  51.788  1.00  0.00    -0.277 NA
HETATM    2  H   UNL     1      25.722  43.676  52.007  1.00  0.00     0.129 HD
ENDROOT
BRANCH   1   3
HETATM    3  C   UNL     1      26.917  45.037  52.891  1.00  0.00     0.086 C 
HETATM    4  N   UNL     1      27.997  44.382  53.348  1.00  0.00    -0.346 N 
HETATM    5  C   UNL     1      28.684  44.716  54.451  1.00  0.00     0.044 A 
HETATM    6  H   UNL     1      28.342  43.603  52.776  1.00  0.00     0.167 HD
HETATM    7  C   UNL     1      29.736  43.917  54.910  1.00  0.00     0.037 A 
HETATM    8  C   UNL     1      28.317  45.876  55.153  1.00  0.00    -0.008 A 
HETATM    9  C   UNL     1      30.418  44.241  56.095  1.00  0.00    -0.054 A 
HETATM   10  C   UNL     1      30.030  45.383  56.826  1.00  0.00    -0.055 A 
HETATM   11  C   UNL     1      31.511  43.328  56.589  1.00  0.00     0.049 C 
HETATM   12  C   UNL     1      30.715  45.765  58.113  1.00  0.00     0.049 C 
HETATM   13  C   UNL     1      29.000  46.203  56.334  1.00  0.00     0.021 A 
HETATM   14  C   UNL     1      27.282  46.663  54.641  1.00  0.00     0.023 C 
HETATM   15  C   UNL     1      26.591  46.268  53.488  1.00  0.00    -0.023 C 
HETATM   16  C   UNL     1      25.479  47.145  52.978  1.00  0.00     0.052 C 
ENDBRANCH   1   3
BRANCH   1  17
HETATM   17  C   UNL     1      26.991  44.357  50.537  1.00  0.00     0.113 C 
BRANCH  17  18
HETATM   18  C   UNL     1      27.293  45.706  49.865  1.00  0.00     0.137 C 
BRANCH  18  19
HETATM   19  N   UNL     1      26.155  46.580  49.620  1.00  0.00    -0.356 N 
HETATM   20  C   UNL     1      26.212  47.950  49.518  1.00  0.00     0.251 C 
HETATM   21  O   UNL     1      27.207  48.609  49.818  1.00  0.00    -0.268 OA
HETATM   22  H   UNL     1      25.267  46.118  49.455  1.00  0.00     0.162 HD
BRANCH  20  23
HETATM   23  C   UNL     1      24.944  48.617  49.106  1.00  0.00     0.032 A 
HETATM   24  C   UNL     1      25.013  49.781  48.337  1.00  0.00     0.020 A 
HETATM   25  C   UNL     1      23.837  50.447  47.979  1.00  0.00     0.038 A 
HETATM   26  C   UNL     1      22.588  49.959  48.372  1.00  0.00     0.068 A 
HETATM   27  C   UNL     1      22.519  48.780  49.114  1.00  0.00     0.038 A 
HETATM   28  C   UNL     1      23.694  48.108  49.476  1.00  0.00     0.020 A 
BRANCH  26  29
HETATM   29  O   UNL     1      21.525  50.715  47.968  1.00  0.00    -0.356 OA
HETATM   30  C   UNL     1      20.646  51.194  48.981  1.00  0.00     0.210 C 
ENDBRANCH  26  29
ENDBRANCH  20  23
ENDBRANCH  18  19
ENDBRANCH  17  18
ENDBRANCH   1  17
TORSDOF 6
ENDMDL
MODEL 2
REMARK VINA RESULT:      -9.4      2.663     10.151
REMARK  6 active torsions:
REMARK  status: ('A' for Active; 'I' for Inactive)
REMARK    1  A    between atoms: C_11  and  N_12 
REMARK    2  A    between atoms: N_12  and  C_13 
REMARK    3  A    between atoms: C_13  and  C_14 
REMARK    4  A    between atoms: C_14  and  N_15 
REMARK       I    between atoms: N_15  and  C_16 
REMARK    5  A    between atoms: C_16  and  C_17 
REMARK    6  A    between atoms: C_20  and  O_21 
ROOT
HETATM    1  N   UNL     1      24.671  47.210  49.511  1.00  0.00    -0.277 NA
HETATM    2  H   UNL     1      24.278  46.368  49.093  1.00  0.00     0.129 HD
ENDROOT
BRANCH   1   3
HETATM    3  C   UNL     1      23.890  48.338  49.258  1.00  0.00     0.086 C 
HETATM    4  N   UNL     1      22.596  48.335  49.615  1.00  0.00    -0.346 N 
HETATM    5  C   UNL     1      21.725  49.319  49.344  1.00  0.00     0.044 A 
HETATM    6  H   UNL     1      22.272  47.540  50.178  1.00  0.00     0.167 HD
HETATM    7  C   UNL     1      20.370  49.187  49.664  1.00  0.00     0.037 A 
HETATM    8  C   UNL     1      22.193  50.484  48.714  1.00  0.00    -0.008 A 
HETATM    9  C   UNL     1      19.452  50.197  49.330  1.00  0.00    -0.054 A 
HETATM   10  C   UNL     1      19.908  51.353  48.664  1.00  0.00    -0.055 A 
HETATM   11  C   UNL     1      17.991  49.997  49.641  1.00  0.00     0.049 C 
HETATM   12  C   UNL     1      18.965  52.458  48.266  1.00  0.00     0.049 C 
HETATM   13  C   UNL     1      21.279  51.496  48.385  1.00  0.00     0.021 A 
HETATM   14  C   UNL     1      23.560  50.589  48.443  1.00  0.00     0.023 C 
HETATM   15  C   UNL     1      24.428  49.530  48.740  1.00  0.00    -0.023 C 
HETATM   16  C   UNL     1      25.891  49.687  48.423  1.00  0.00     0.052 C 
ENDBRANCH   1   3
BRANCH   1  17
HETATM   17  C   UNL     1      25.046  46.946  50.912  1.00  0.00     0.113 C 
BRANCH  17  18
HETATM   18  C   UNL     1      25.517  45.497  51.110  1.00  0.00     0.137 C 
BRANCH  18  19
HETATM   19  N   UNL     1      26.459  45.261  52.194  1.00  0.00    -0.356 N 
HETATM   20  C   UNL     1      27.112  44.076  52.437  1.00  0.00     0.251 C 
HETATM   21  O   UNL     1      26.823  43.018  51.877  1.00  0.00    -0.268 OA
HETATM   22  H   UNL     1      26.684  46.065  52.770  1.00  0.00     0.162 HD
BRANCH  20  23
HETATM   23  C   UNL     1      28.149  44.120  53.506  1.00  0.00     0.032 A 
HETATM   24  C   UNL     1      28.105  45.152  54.447  1.00  0.00     0.020 A 
HETATM   25  C   UNL     1      29.096  45.238  55.431  1.00  0.00     0.038 A 
HETATM   26  C   UNL     1      30.128  44.298  55.492  1.00  0.00     0.068 A 
HETATM   27  C   UNL     1      30.153  43.250  54.572  1.00  0.00     0.038 A 
HETATM   28  C   UNL     1      29.164  43.159  53.584  1.00  0.00     0.020 A 
BRANCH  26  29
HETATM   29  O   UNL     1      31.035  44.510  56.491  1.00  0.00    -0.356 OA
HETATM   30  C   UNL     1      31.607  43.360  57.105  1.00  0.00     0.210 C 
ENDBRANCH  26  29
ENDBRANCH  20  23
ENDBRANCH  18  19
ENDBRANCH  17  18
ENDBRANCH   1  17
TORSDOF 6
ENDMDL
MODEL 3
REMARK VINA RESULT:      -9.1      1.694      2.267
REMARK  6 active torsions:
REMARK  status: ('A' for Active; 'I' for Inactive)
REMARK    1  A    between atoms: C_11  and  N_12 
REMARK    2  A    between atoms: N_12  and  C_13 
REMARK    3  A    between atoms: C_13  and  C_14 
REMARK    4  A    between atoms: C_14  and  N_15 
REMARK       I    between atoms: N_15  and  C_16 
REMARK    5  A    between atoms: C_16  and  C_17 
REMARK    6  A    between atoms: C_20  and  O_21 
ROOT
HETATM    1  N   UNL     1      26.668  42.598  52.305  1.00  0.00    -0.277 NA
HETATM    2  H   UNL     1      26.232  41.782  52.733  1.00  0.00     0.129 HD
ENDROOT
BRANCH   1   3
HETATM    3  C   UNL     1      27.232  43.453  53.252  1.00  0.00     0.086 C 
HETATM    4  N   UNL     1      28.425  43.146  53.787  1.00  0.00    -0.346 N 
HETATM    5  C   UNL     1      29.024  43.837  54.768  1.00  0.00     0.044 A 
HETATM    6  H   UNL     1      28.927  42.352  53.373  1.00  0.00     0.167 HD
HETATM    7  C   UNL     1      30.220  43.387  55.336  1.00  0.00     0.037 A 
HETATM    8  C   UNL     1      28.420  45.017  55.233  1.00  0.00    -0.008 A 
HETATM    9  C   UNL     1      30.816  44.085  56.400  1.00  0.00    -0.054 A 
HETATM   10  C   UNL     1      30.196  45.249  56.897  1.00  0.00    -0.055 A 
HETATM   11  C   UNL     1      32.076  43.541  57.024  1.00  0.00     0.049 C 
HETATM   12  C   UNL     1      30.782  46.025  58.048  1.00  0.00     0.049 C 
HETATM   13  C   UNL     1      29.017  45.718  56.291  1.00  0.00     0.021 A 
HETATM   14  C   UNL     1      27.244  45.449  54.614  1.00  0.00     0.023 C 
HETATM   15  C   UNL     1      26.653  44.688  53.597  1.00  0.00    -0.023 C 
HETATM   16  C   UNL     1      25.383  45.190  52.966  1.00  0.00     0.052 C 
ENDBRANCH   1   3
BRANCH   1  17
HETATM   17  C   UNL     1      27.521  42.177  51.179  1.00  0.00     0.113 C 
BRANCH  17  18
HETATM   18  C   UNL     1      26.896  42.547  49.825  1.00  0.00     0.137 C 
BRANCH  18  19
HETATM   19  N   UNL     1      25.997  43.692  49.816  1.00  0.00    -0.356 N 
HETATM   20  C   UNL     1      26.376  45.000  49.621  1.00  0.00     0.251 C 
HETATM   21  O   UNL     1      27.551  45.370  49.627  1.00  0.00    -0.268 OA
HETATM   22  H   UNL     1      25.009  43.483  49.902  1.00  0.00     0.162 HD
BRANCH  20  23
HETATM   23  C   UNL     1      25.262  45.980  49.494  1.00  0.00     0.032 A 
HETATM   24  C   UNL     1      23.995  45.519  49.127  1.00  0.00     0.020 A 
HETATM   25  C   UNL     1      22.947  46.430  48.957  1.00  0.00     0.038 A 
HETATM   26  C   UNL     1      23.146  47.798  49.160  1.00  0.00     0.068 A 
HETATM   27  C   UNL     1      24.402  48.253  49.558  1.00  0.00     0.038 A 
HETATM   28  C   UNL     1      25.457  47.347  49.728  1.00  0.00     0.020 A 
BRANCH  26  29
HETATM   29  O   UNL     1      22.042  48.574  48.945  1.00  0.00    -0.356 OA
HETATM   30  C   UNL     1      20.817  47.901  48.678  1.00  0.00     0.210 C 
ENDBRANCH  26  29
ENDBRANCH  20  23
ENDBRANCH  18  19
ENDBRANCH  17  18
ENDBRANCH   1  17
TORSDOF 6
ENDMDL
MODEL 4
REMARK VINA RESULT:      -9.1      1.382      2.462
REMARK  6 active torsions:
REMARK  status: ('A' for Active; 'I' for Inactive)
REMARK    1  A    between atoms: C_11  and  N_12 
REMARK    2  A    between atoms: N_12  and  C_13 
REMARK    3  A    between atoms: C_13  and  C_14 
REMARK    4  A    between atoms: C_14  and  N_15 
REMARK       I    between atoms: N_15  and  C_16 
REMARK    5  A    between atoms: C_16  and  C_17 
REMARK    6  A    between atoms: C_20  and  O_21 
ROOT
HETATM    1  N   UNL     1      25.839  46.139  52.660  1.00  0.00    -0.277 NA
HETATM    2  H   UNL     1      25.126  45.523  52.271  1.00  0.00     0.129 HD
ENDROOT
BRANCH   1   3
HETATM    3  C   UNL     1      26.883  45.429  53.253  1.00  0.00     0.086 C 
HETATM    4  N   UNL     1      27.354  45.827  54.445  1.00  0.00    -0.346 N 
HETATM    5  C   UNL     1      28.410  45.284  55.071  1.00  0.00     0.044 A 
HETATM    6  H   UNL     1      26.830  46.567  54.927  1.00  0.00     0.167 HD
HETATM    7  C   UNL     1      28.895  45.829  56.264  1.00  0.00     0.037 A 
HETATM    8  C   UNL     1      29.038  44.167  54.496  1.00  0.00    -0.008 A 
HETATM    9  C   UNL     1      30.033  45.291  56.888  1.00  0.00    -0.054 A 
HETATM   10  C   UNL     1      30.691  44.193  56.298  1.00  0.00    -0.055 A 
HETATM   11  C   UNL     1      30.560  45.937  58.144  1.00  0.00     0.049 C 
HETATM   12  C   UNL     1      31.927  43.589  56.913  1.00  0.00     0.049 C 
HETATM   13  C   UNL     1      30.171  43.626  55.121  1.00  0.00     0.021 A 
HETATM   14  C   UNL     1      28.501  43.634  53.322  1.00  0.00     0.023 C 
HETATM   15  C   UNL     1      27.399  44.241  52.703  1.00  0.00    -0.023 C 
HETATM   16  C   UNL     1      26.860  43.636  51.435  1.00  0.00     0.052 C 
ENDBRANCH   1   3
BRANCH   1  17
HETATM   17  C   UNL     1      26.199  47.174  51.673  1.00  0.00     0.113 C 
BRANCH  17  18
HETATM   18  C   UNL     1      25.477  46.956  50.334  1.00  0.00     0.137 C 
BRANCH  18  19
HETATM   19  N   UNL     1      24.268  47.736  50.112  1.00  0.00    -0.356 N 
HETATM   20  C   UNL     1      24.138  48.761  49.206  1.00  0.00     0.251 C 
HETATM   21  O   UNL     1      25.093  49.265  48.614  1.00  0.00    -0.268 OA
HETATM   22  H   UNL     1      23.449  47.445  50.636  1.00  0.00     0.162 HD
BRANCH  20  23
HETATM   23  C   UNL     1      22.760  49.305  49.044  1.00  0.00     0.032 A 
HETATM   24  C   UNL     1      22.570  50.689  49.091  1.00  0.00     0.020 A 
HETATM   25  C   UNL     1      21.279  51.217  48.988  1.00  0.00     0.038 A 
HETATM   26  C   UNL     1      20.173  50.378  48.827  1.00  0.00     0.068 A 
HETATM   27  C   UNL     1      20.367  49.000  48.748  1.00  0.00     0.038 A 
HETATM   28  C   UNL     1      21.657  48.464  48.852  1.00  0.00     0.020 A 
BRANCH  26  29
HETATM   29  O   UNL     1      18.972  51.024  48.756  1.00  0.00    -0.356 OA
HETATM   30  C   UNL     1      18.990  52.387  48.343  1.00  0.00     0.210 C 
ENDBRANCH  26  29
ENDBRANCH  20  23
ENDBRANCH  18  19
ENDBRANCH  17  18
ENDBRANCH   1  17
TORSDOF 6
ENDMDL
MODEL 5
REMARK VINA RESULT:      -8.8      2.001      3.248
REMARK  6 active torsions:
REMARK  status: ('A' for Active; 'I' for Inactive)
REMARK    1  A    between atoms: C_11  and  N_12 
REMARK    2  A    between atoms: N_12  and  C_13 
REMARK    3  A    between atoms: C_13  and  C_14 
REMARK    4  A    between atoms: C_14  and  N_15 
REMARK       I    between atoms: N_15  and  C_16 
REMARK    5  A    between atoms: C_16  and  C_17 
REMARK    6  A    between atoms: C_20  and  O_21 
ROOT
HETATM    1  N   UNL     1      26.290  41.610  51.247  1.00  0.00    -0.277 NA
HETATM    2  H   UNL     1      26.713  41.024  50.529  1.00  0.00     0.129 HD
ENDROOT
BRANCH   1   3
HETATM    3  C   UNL     1      27.220  42.042  52.192  1.00  0.00     0.086 C 
HETATM    4  N   UNL     1      26.935  43.110  52.955  1.00  0.00    -0.346 N 
HETATM    5  C   UNL     1      27.782  43.673  53.830  1.00  0.00     0.044 A 
HETATM    6  H   UNL     1      25.981  43.484  52.891  1.00  0.00     0.167 HD
HETATM    7  C   UNL     1      27.438  44.847  54.508  1.00  0.00     0.037 A 
HETATM    8  C   UNL     1      29.035  43.074  54.043  1.00  0.00    -0.008 A 
HETATM    9  C   UNL     1      28.348  45.463  55.383  1.00  0.00    -0.054 A 
HETATM   10  C   UNL     1      29.621  44.888  55.573  1.00  0.00    -0.055 A 
HETATM   11  C   UNL     1      27.964  46.755  56.056  1.00  0.00     0.049 C 
HETATM   12  C   UNL     1      30.643  45.517  56.485  1.00  0.00     0.049 C 
HETATM   13  C   UNL     1      29.942  43.685  54.920  1.00  0.00     0.021 A 
HETATM   14  C   UNL     1      29.325  41.884  53.370  1.00  0.00     0.023 C 
HETATM   15  C   UNL     1      28.409  41.339  52.461  1.00  0.00    -0.023 C 
HETATM   16  C   UNL     1      28.769  40.060  51.755  1.00  0.00     0.052 C 
ENDBRANCH   1   3
BRANCH   1  17
HETATM   17  C   UNL     1      25.438  42.636  50.617  1.00  0.00     0.113 C 
BRANCH  17  18
HETATM   18  C   UNL     1      26.226  43.485  49.607  1.00  0.00     0.137 C 
BRANCH  18  19
HETATM   19  N   UNL     1      25.753  44.845  49.392  1.00  0.00    -0.356 N 
HETATM   20  C   UNL     1      26.011  45.916  50.215  1.00  0.00     0.251 C 
HETATM   21  O   UNL     1      26.511  45.802  51.335  1.00  0.00    -0.268 OA
HETATM   22  H   UNL     1      25.245  45.008  48.530  1.00  0.00     0.162 HD
BRANCH  20  23
HETATM   23  C   UNL     1      25.557  47.241  49.707  1.00  0.00     0.032 A 
HETATM   24  C   UNL     1      24.187  47.501  49.630  1.00  0.00     0.020 A 
HETATM   25  C   UNL     1      23.739  48.722  49.113  1.00  0.00     0.038 A 
HETATM   26  C   UNL     1      24.647  49.692  48.680  1.00  0.00     0.068 A 
HETATM   27  C   UNL     1      26.015  49.444  48.787  1.00  0.00     0.038 A 
HETATM   28  C   UNL     1      26.470  48.223  49.303  1.00  0.00     0.020 A 
BRANCH  26  29
HETATM   29  O   UNL     1      24.075  50.829  48.183  1.00  0.00    -0.356 OA
HETATM   30  C   UNL     1      22.652  50.883  48.161  1.00  0.00     0.210 C 
ENDBRANCH  26  29
ENDBRANCH  20  23
ENDBRANCH  18  19
ENDBRANCH  17  18
ENDBRANCH   1  17
TORSDOF 6
ENDMDL
MODEL 6
REMARK VINA RESULT:      -8.7      2.620      9.518
REMARK  6 active torsions:
REMARK  status: ('A' for Active; 'I' for Inactive)
REMARK    1  A    between atoms: C_11  and  N_12 
REMARK    2  A    between atoms: N_12  and  C_13 
REMARK    3  A    between atoms: C_13  and  C_14 
REMARK    4  A    between atoms: C_14  and  N_15 
REMARK       I    between atoms: N_15  and  C_16 
REMARK    5  A    between atoms: C_16  and  C_17 
REMARK    6  A    between atoms: C_20  and  O_21 
ROOT
HETATM    1  N   UNL     1      24.213  47.043  49.409  1.00  0.00    -0.277 NA
HETATM    2  H   UNL     1      25.153  47.095  49.019  1.00  0.00     0.129 HD
ENDROOT
BRANCH   1   3
HETATM    3  C   UNL     1      23.492  48.221  49.208  1.00  0.00     0.086 C 
HETATM    4  N   UNL     1      22.179  48.243  49.488  1.00  0.00    -0.346 N 
HETATM    5  C   UNL     1      21.365  49.283  49.251  1.00  0.00     0.044 A 
HETATM    6  H   UNL     1      21.792  47.419  49.961  1.00  0.00     0.167 HD
HETATM    7  C   UNL     1      19.989  49.183  49.479  1.00  0.00     0.037 A 
HETATM    8  C   UNL     1      21.914  50.475  48.749  1.00  0.00    -0.008 A 
HETATM    9  C   UNL     1      19.132  50.255  49.180  1.00  0.00    -0.054 A 
HETATM   10  C   UNL     1      19.671  51.441  48.641  1.00  0.00    -0.055 A 
HETATM   11  C   UNL     1      17.648  50.093  49.388  1.00  0.00     0.049 C 
HETATM   12  C   UNL     1      18.796  52.615  48.284  1.00  0.00     0.049 C 
HETATM   13  C   UNL     1      21.060  51.548  48.455  1.00  0.00     0.021 A 
HETATM   14  C   UNL     1      23.298  50.543  48.568  1.00  0.00     0.023 C 
HETATM   15  C   UNL     1      24.106  49.427  48.824  1.00  0.00    -0.023 C 
HETATM   16  C   UNL     1      25.590  49.547  48.606  1.00  0.00     0.052 C 
ENDBRANCH   1   3
BRANCH   1  17
HETATM   17  C   UNL     1      23.571  45.779  49.002  1.00  0.00     0.113 C 
BRANCH  17  18
HETATM   18  C   UNL     1      23.664  44.715  50.107  1.00  0.00     0.137 C 
BRANCH  18  19
HETATM   19  N   UNL     1      24.406  45.085  51.304  1.00  0.00    -0.356 N 
HETATM   20  C   UNL     1      25.656  44.620  51.639  1.00  0.00     0.251 C 
HETATM   21  O   UNL     1      26.208  43.685  51.059  1.00  0.00    -0.268 OA
HETATM   22  H   UNL     1      23.976  45.788  51.895  1.00  0.00     0.162 HD
BRANCH  20  23
HETATM   23  C   UNL     1      26.282  45.262  52.830  1.00  0.00     0.032 A 
HETATM   24  C   UNL     1      27.287  44.576  53.517  1.00  0.00     0.020 A 
HETATM   25  C   UNL     1      27.854  45.141  54.664  1.00  0.00     0.038 A 
HETATM   26  C   UNL     1      27.436  46.391  55.129  1.00  0.00     0.068 A 
HETATM   27  C   UNL     1      26.456  47.089  54.425  1.00  0.00     0.038 A 
HETATM   28  C   UNL     1      25.883  46.528  53.276  1.00  0.00     0.020 A 
BRANCH  26  29
HETATM   29  O   UNL     1      28.062  46.816  56.267  1.00  0.00    -0.356 OA
HETATM   30  C   UNL     1      29.180  46.057  56.715  1.00  0.00     0.210 C 
ENDBRANCH  26  29
ENDBRANCH  20  23
ENDBRANCH  18  19
ENDBRANCH  17  18
ENDBRANCH   1  17
TORSDOF 6
ENDMDL
MODEL 7
REMARK VINA RESULT:      -8.5      4.973      7.273
REMARK  6 active torsions:
REMARK  status: ('A' for Active; 'I' for Inactive)
REMARK    1  A    between atoms: C_11  and  N_12 
REMARK    2  A    between atoms: N_12  and  C_13 
REMARK    3  A    between atoms: C_13  and  C_14 
REMARK    4  A    between atoms: C_14  and  N_15 
REMARK       I    between atoms: N_15  and  C_16 
REMARK    5  A    between atoms: C_16  and  C_17 
REMARK    6  A    between atoms: C_20  and  O_21 
ROOT
HETATM    1  N   UNL     1      27.471  42.724  51.609  1.00  0.00    -0.277 NA
HETATM    2  H   UNL     1      26.624  43.067  51.158  1.00  0.00     0.129 HD
ENDROOT
BRANCH   1   3
HETATM    3  C   UNL     1      27.867  43.532  52.674  1.00  0.00     0.086 C 
HETATM    4  N   UNL     1      28.960  43.199  53.380  1.00  0.00    -0.346 N 
HETATM    5  C   UNL     1      29.386  43.843  54.477  1.00  0.00     0.044 A 
HETATM    6  H   UNL     1      29.529  42.427  53.016  1.00  0.00     0.167 HD
HETATM    7  C   UNL     1      30.477  43.365  55.211  1.00  0.00     0.037 A 
HETATM    8  C   UNL     1      28.705  44.999  54.894  1.00  0.00    -0.008 A 
HETATM    9  C   UNL     1      30.888  44.011  56.389  1.00  0.00    -0.054 A 
HETATM   10  C   UNL     1      30.186  45.150  56.834  1.00  0.00    -0.055 A 
HETATM   11  C   UNL     1      32.034  43.438  57.183  1.00  0.00     0.049 C 
HETATM   12  C   UNL     1      30.571  45.869  58.100  1.00  0.00     0.049 C 
HETATM   13  C   UNL     1      29.117  45.647  56.068  1.00  0.00     0.021 A 
HETATM   14  C   UNL     1      27.642  45.460  54.114  1.00  0.00     0.023 C 
HETATM   15  C   UNL     1      27.230  44.749  52.979  1.00  0.00    -0.023 C 
HETATM   16  C   UNL     1      26.075  45.281  52.175  1.00  0.00     0.052 C 
ENDBRANCH   1   3
BRANCH   1  17
HETATM   17  C   UNL     1      27.351  41.276  51.864  1.00  0.00     0.113 C 
BRANCH  17  18
HETATM   18  C   UNL     1      28.527  40.495  51.258  1.00  0.00     0.137 C 
BRANCH  18  19
HETATM   19  N   UNL     1      28.570  40.408  49.806  1.00  0.00    -0.356 N 
HETATM   20  C   UNL     1      28.183  39.317  49.062  1.00  0.00     0.251 C 
HETATM   21  O   UNL     1      27.941  38.215  49.556  1.00  0.00    -0.268 OA
HETATM   22  H   UNL     1      28.854  41.250  49.317  1.00  0.00     0.162 HD
BRANCH  20  23
HETATM   23  C   UNL     1      28.165  39.519  47.586  1.00  0.00     0.032 A 
HETATM   24  C   UNL     1      28.171  38.398  46.751  1.00  0.00     0.020 A 
HETATM   25  C   UNL     1      28.201  38.567  45.363  1.00  0.00     0.038 A 
HETATM   26  C   UNL     1      28.215  39.844  44.796  1.00  0.00     0.068 A 
HETATM   27  C   UNL     1      28.178  40.961  45.630  1.00  0.00     0.038 A 
HETATM   28  C   UNL     1      28.149  40.800  47.021  1.00  0.00     0.020 A 
BRANCH  26  29
HETATM   29  O   UNL     1      28.261  39.863  43.431  1.00  0.00    -0.356 OA
HETATM   30  C   UNL     1      28.920  40.966  42.818  1.00  0.00     0.210 C 
ENDBRANCH  26  29
ENDBRANCH  20  23
ENDBRANCH  18  19
ENDBRANCH  17  18
ENDBRANCH   1  17
TORSDOF 6
ENDMDL
MODEL 8
REMARK VINA RESULT:      -8.3      3.718      6.839
REMARK  6 active torsions:
REMARK  status: ('A' for Active; 'I' for Inactive)
REMARK    1  A    between atoms: C_11  and  N_12 
REMARK    2  A    between atoms: N_12  and  C_13 
REMARK    3  A    between atoms: C_13  and  C_14 
REMARK    4  A    between atoms: C_14  and  N_15 
REMARK       I    between atoms: N_15  and  C_16 
REMARK    5  A    between atoms: C_16  and  C_17 
REMARK    6  A    between atoms: C_20  and  O_21 
ROOT
HETATM    1  N   UNL     1      26.284  45.260  52.244  1.00  0.00    -0.277 NA
HETATM    2  H   UNL     1      26.211  44.257  52.079  1.00  0.00     0.129 HD
ENDROOT
BRANCH   1   3
HETATM    3  C   UNL     1      27.033  45.554  53.383  1.00  0.00     0.086 C 
HETATM    4  N   UNL     1      28.098  44.793  53.684  1.00  0.00    -0.346 N 
HETATM    5  C   UNL     1      28.838  44.919  54.796  1.00  0.00     0.044 A 
HETATM    6  H   UNL     1      28.386  44.101  52.983  1.00  0.00     0.167 HD
HETATM    7  C   UNL     1      29.868  44.016  55.079  1.00  0.00     0.037 A 
HETATM    8  C   UNL     1      28.551  45.966  55.687  1.00  0.00    -0.008 A 
HETATM    9  C   UNL     1      30.605  44.119  56.270  1.00  0.00    -0.054 A 
HETATM   10  C   UNL     1      30.298  45.144  57.187  1.00  0.00    -0.055 A 
HETATM   11  C   UNL     1      31.672  43.096  56.567  1.00  0.00     0.049 C 
HETATM   12  C   UNL     1      31.044  45.289  58.488  1.00  0.00     0.049 C 
HETATM   13  C   UNL     1      29.290  46.073  56.874  1.00  0.00     0.021 A 
HETATM   14  C   UNL     1      27.536  46.866  55.350  1.00  0.00     0.023 C 
HETATM   15  C   UNL     1      26.787  46.688  54.179  1.00  0.00    -0.023 C 
HETATM   16  C   UNL     1      25.700  47.678  53.862  1.00  0.00     0.052 C 
ENDBRANCH   1   3
BRANCH   1  17
HETATM   17  C   UNL     1      26.655  45.948  50.993  1.00  0.00     0.113 C 
BRANCH  17  18
HETATM   18  C   UNL     1      26.531  45.017  49.776  1.00  0.00     0.137 C 
BRANCH  18  19
HETATM   19  N   UNL     1      27.071  43.673  49.929  1.00  0.00    -0.356 N 
HETATM   20  C   UNL     1      26.627  42.557  49.259  1.00  0.00     0.251 C 
HETATM   21  O   UNL     1      25.588  42.535  48.598  1.00  0.00    -0.268 OA
HETATM   22  H   UNL     1      27.878  43.584  50.537  1.00  0.00     0.162 HD
BRANCH  20  23
HETATM   23  C   UNL     1      27.437  41.323  49.459  1.00  0.00     0.032 A 
HETATM   24  C   UNL     1      27.901  40.631  48.337  1.00  0.00     0.020 A 
HETATM   25  C   UNL     1      28.624  39.445  48.503  1.00  0.00     0.038 A 
HETATM   26  C   UNL     1      28.900  38.945  49.779  1.00  0.00     0.068 A 
HETATM   27  C   UNL     1      28.463  39.654  50.898  1.00  0.00     0.038 A 
HETATM   28  C   UNL     1      27.738  40.842  50.739  1.00  0.00     0.020 A 
BRANCH  26  29
HETATM   29  O   UNL     1      29.599  37.773  49.795  1.00  0.00    -0.356 OA
HETATM   30  C   UNL     1      30.044  37.297  51.061  1.00  0.00     0.210 C 
ENDBRANCH  26  29
ENDBRANCH  20  23
ENDBRANCH  18  19
ENDBRANCH  17  18
ENDBRANCH   1  17
TORSDOF 6
ENDMDL
MODEL 9
REMARK VINA RESULT:      -8.1      2.462      3.006
REMARK  6 active torsions:
REMARK  status: ('A' for Active; 'I' for Inactive)
REMARK    1  A    between atoms: C_11  and  N_12 
REMARK    2  A    between atoms: N_12  and  C_13 
REMARK    3  A    between atoms: C_13  and  C_14 
REMARK    4  A    between atoms: C_14  and  N_15 
REMARK       I    between atoms: N_15  and  C_16 
REMARK    5  A    between atoms: C_16  and  C_17 
REMARK    6  A    between atoms: C_20  and  O_21 
ROOT
HETATM    1  N   UNL     1      26.524  43.659  51.753  1.00  0.00    -0.277 NA
HETATM    2  H   UNL     1      25.715  43.123  52.062  1.00  0.00     0.129 HD
ENDROOT
BRANCH   1   3
HETATM    3  C   UNL     1      27.133  44.348  52.802  1.00  0.00     0.086 C 
HETATM    4  N   UNL     1      28.232  43.833  53.376  1.00  0.00    -0.346 N 
HETATM    5  C   UNL     1      28.851  44.352  54.447  1.00  0.00     0.044 A 
HETATM    6  H   UNL     1      28.649  43.010  52.925  1.00  0.00     0.167 HD
HETATM    7  C   UNL     1      29.931  43.692  55.042  1.00  0.00     0.037 A 
HETATM    8  C   UNL     1      28.385  45.567  54.978  1.00  0.00    -0.008 A 
HETATM    9  C   UNL     1      30.542  44.213  56.196  1.00  0.00    -0.054 A 
HETATM   10  C   UNL     1      30.056  45.411  56.755  1.00  0.00    -0.055 A 
HETATM   11  C   UNL     1      31.669  43.447  56.841  1.00  0.00     0.049 C 
HETATM   12  C   UNL     1      30.661  46.003  58.002  1.00  0.00     0.049 C 
HETATM   13  C   UNL     1      28.998  46.089  56.126  1.00  0.00     0.021 A 
HETATM   14  C   UNL     1      27.325  46.209  54.332  1.00  0.00     0.023 C 
HETATM   15  C   UNL     1      26.708  45.622  53.219  1.00  0.00    -0.023 C 
HETATM   16  C   UNL     1      25.565  46.349  52.562  1.00  0.00     0.052 C 
ENDBRANCH   1   3
BRANCH   1  17
HETATM   17  C   UNL     1      27.388  42.819  50.903  1.00  0.00     0.113 C 
BRANCH  17  18
HETATM   18  C   UNL     1      26.964  42.882  49.427  1.00  0.00     0.137 C 
BRANCH  18  19
HETATM   19  N   UNL     1      25.813  43.718  49.117  1.00  0.00    -0.356 N 
HETATM   20  C   UNL     1      24.504  43.405  49.399  1.00  0.00     0.251 C 
HETATM   21  O   UNL     1      24.141  42.289  49.772  1.00  0.00    -0.268 OA
HETATM   22  H   UNL     1      26.018  44.626  48.715  1.00  0.00     0.162 HD
BRANCH  20  23
HETATM   23  C   UNL     1      23.513  44.486  49.133  1.00  0.00     0.032 A 
HETATM   24  C   UNL     1      22.186  44.136  48.869  1.00  0.00     0.020 A 
HETATM   25  C   UNL     1      21.251  45.132  48.572  1.00  0.00     0.038 A 
HETATM   26  C   UNL     1      21.623  46.479  48.543  1.00  0.00     0.068 A 
HETATM   27  C   UNL     1      22.940  46.830  48.837  1.00  0.00     0.038 A 
HETATM   28  C   UNL     1      23.882  45.836  49.135  1.00  0.00     0.020 A 
BRANCH  26  29
HETATM   29  O   UNL     1      20.615  47.344  48.223  1.00  0.00    -0.356 OA
HETATM   30  C   UNL     1      20.303  47.496  46.843  1.00  0.00     0.210 C 
ENDBRANCH  26  29
ENDBRANCH  20  23
ENDBRANCH  18  19
ENDBRANCH  17  18
ENDBRANCH   1  17
TORSDOF 6
ENDMDL
MODEL 10
REMARK VINA RESULT:      -8.1      3.462      8.661
REMARK  6 active torsions:
REMARK  status: ('A' for Active; 'I' for Inactive)
REMARK    1  A    between atoms: C_11  and  N_12 
REMARK    2  A    between atoms: N_12  and  C_13 
REMARK    3  A    between atoms: C_13  and  C_14 
REMARK    4  A    between atoms: C_14  and  N_15 
REMARK       I    between atoms: N_15  and  C_16 
REMARK    5  A    between atoms: C_16  and  C_17 
REMARK    6  A    between atoms: C_20  and  O_21 
ROOT
HETATM    1  N   UNL     1      25.347  43.455  51.152  1.00  0.00    -0.277 NA
HETATM    2  H   UNL     1      25.960  43.675  51.935  1.00  0.00     0.129 HD
ENDROOT
BRANCH   1   3
HETATM    3  C   UNL     1      24.901  44.600  50.492  1.00  0.00     0.086 C 
HETATM    4  N   UNL     1      25.776  45.578  50.208  1.00  0.00    -0.346 N 
HETATM    5  C   UNL     1      25.453  46.760  49.663  1.00  0.00     0.044 A 
HETATM    6  H   UNL     1      26.768  45.376  50.380  1.00  0.00     0.167 HD
HETATM    7  C   UNL     1      26.415  47.761  49.496  1.00  0.00     0.037 A 
HETATM    8  C   UNL     1      24.121  46.987  49.276  1.00  0.00    -0.008 A 
HETATM    9  C   UNL     1      26.061  49.016  48.973  1.00  0.00    -0.054 A 
HETATM   10  C   UNL     1      24.719  49.264  48.618  1.00  0.00    -0.055 A 
HETATM   11  C   UNL     1      27.113  50.090  48.857  1.00  0.00     0.049 C 
HETATM   12  C   UNL     1      24.281  50.598  48.072  1.00  0.00     0.049 C 
HETATM   13  C   UNL     1      23.767  48.238  48.750  1.00  0.00     0.021 A 
HETATM   14  C   UNL     1      23.199  45.948  49.430  1.00  0.00     0.023 C 
HETATM   15  C   UNL     1      23.586  44.733  50.011  1.00  0.00    -0.023 C 
HETATM   16  C   UNL     1      22.556  43.646  50.162  1.00  0.00     0.052 C 
ENDBRANCH   1   3
BRANCH   1  17
HETATM   17  C   UNL     1      25.949  42.390  50.328  1.00  0.00     0.113 C 
BRANCH  17  18
HETATM   18  C   UNL     1      27.348  42.005  50.834  1.00  0.00     0.137 C 
BRANCH  18  19
HETATM   19  N   UNL     1      27.825  42.702  52.020  1.00  0.00    -0.356 N 
HETATM   20  C   UNL     1      28.770  42.225  52.897  1.00  0.00     0.251 C 
HETATM   21  O   UNL     1      29.178  41.063  52.885  1.00  0.00    -0.268 OA
HETATM   22  H   UNL     1      27.463  43.640  52.160  1.00  0.00     0.162 HD
BRANCH  20  23
HETATM   23  C   UNL     1      29.214  43.184  53.948  1.00  0.00     0.032 A 
HETATM   24  C   UNL     1      30.439  42.968  54.585  1.00  0.00     0.020 A 
HETATM   25  C   UNL     1      30.852  43.830  55.606  1.00  0.00     0.038 A 
HETATM   26  C   UNL     1      30.060  44.914  55.993  1.00  0.00     0.068 A 
HETATM   27  C   UNL     1      28.852  45.147  55.335  1.00  0.00     0.038 A 
HETATM   28  C   UNL     1      28.432  44.287  54.313  1.00  0.00     0.020 A 
BRANCH  26  29
HETATM   29  O   UNL     1      30.576  45.664  57.012  1.00  0.00    -0.356 OA
HETATM   30  C   UNL     1      29.670  46.103  58.019  1.00  0.00     0.210 C 
ENDBRANCH  26  29
ENDBRANCH  20  23
ENDBRANCH  18  19
ENDBRANCH  17  18
ENDBRANCH   1  17
TORSDOF 6
ENDMDL
