MODEL 1
REMARK VINA RESULT:     -10.3      0.000      0.000
REMARK  5 active torsions:
REMARK  status: ('A' for Active; 'I' for Inactive)
REMARK    1  A    between atoms: C_4  and  C_5 
REMARK    2  A    between atoms: C_5  and  N_6 
REMARK    3  A    between atoms: C_15  and  C_16 
REMARK    4  A    between atoms: C_16  and  N_17 
REMARK    5  A    between atoms: C_20  and  C_21 
REMARK       I    between atoms: C_21  and  N_22 
ROOT
HETATM    1  N   UNL     1      27.289  43.626  53.974  1.00  0.00    -0.061 N 
HETATM    2  H   UNL     1      27.140  43.479  54.978  1.00  0.00     0.280 HD
HETATM    3  C   UNL     1      25.993  44.233  53.480  1.00  0.00     0.276 C 
HETATM    4  C   UNL     1      26.004  44.709  52.057  1.00  0.00     0.002 A 
HETATM    5  C   UNL     1      26.196  43.797  51.018  1.00  0.00     0.076 A 
HETATM    6  O   UNL     1      26.355  42.464  51.274  1.00  0.00    -0.349 OA
HETATM    7  C   UNL     1      27.622  42.188  51.884  1.00  0.00     0.203 C 
HETATM    8  C   UNL     1      27.532  42.231  53.415  1.00  0.00     0.262 C 
HETATM    9  C   UNL     1      25.789  46.063  51.735  1.00  0.00     0.020 A 
HETATM   10  C   UNL     1      25.764  46.502  50.396  1.00  0.00    -0.032 A 
HETATM   11  C   UNL     1      25.960  45.554  49.379  1.00  0.00     0.011 A 
HETATM   12  C   UNL     1      26.154  44.207  49.689  1.00  0.00     0.038 A 
ENDROOT
BRANCH  10  13
HETATM   13  C   UNL     1      25.588  47.970  50.077  1.00  0.00     0.273 C 
BRANCH  13  14
HETATM   14  N   UNL     1      24.239  48.366  49.527  1.00  0.00    -0.066 N 
HETATM   15  H   UNL     1      23.758  48.897  50.280  1.00  0.00     0.280 HD
HETATM   16  C   UNL     1      24.307  49.328  48.357  1.00  0.00     0.249 C 
HETATM   17  C   UNL     1      22.901  49.805  47.977  1.00  0.00     0.103 C 
HETATM   18  C   UNL     1      21.981  48.616  47.687  1.00  0.00     0.017 C 
HETATM   19  C   UNL     1      21.983  47.595  48.826  1.00  0.00     0.029 C 
HETATM   20  C   UNL     1      23.388  47.159  49.219  1.00  0.00     0.235 C 
BRANCH  17  21
HETATM   21  C   UNL     1      22.343  50.653  49.106  1.00  0.00     0.221 C 
HETATM   22  N   UNL     1      21.104  51.172  48.916  1.00  0.00    -0.370 N 
HETATM   23  H   UNL     1      20.567  51.081  48.061  1.00  0.00     0.159 HD
HETATM   24  H   UNL     1      20.687  51.729  49.655  1.00  0.00     0.159 HD
HETATM   25  O   UNL     1      22.954  50.789  50.164  1.00  0.00    -0.273 OA
ENDBRANCH  17  21
ENDBRANCH  13  14
ENDBRANCH  10  13
BRANCH   1  26
HETATM   26  C   UNL     1      28.511  44.524  53.886  1.00  0.00     0.274 C 
BRANCH  26  27
HETATM   27  C   UNL     1      29.223  44.785  55.195  1.00  0.00    -0.026 A 
HETATM   28  C   UNL     1      30.287  43.946  55.590  1.00  0.00     0.016 A 
HETATM   29  C   UNL     1      30.942  44.124  56.814  1.00  0.00    -0.061 A 
HETATM   30  C   UNL     1      32.090  43.238  57.209  1.00  0.00     0.048 C 
HETATM   31  C   UNL     1      30.569  45.189  57.633  1.00  0.00     0.007 A 
HETATM   32  C   UNL     1      29.557  46.061  57.237  1.00  0.00     0.008 A 
HETATM   33  C   UNL     1      28.885  45.884  56.017  1.00  0.00    -0.054 A 
HETATM   34  C   UNL     1      27.844  46.902  55.628  1.00  0.00     0.049 C 
ENDBRANCH  26  27
ENDBRANCH   1  26
TORSDOF 5
ENDMDL
MODEL 2
REMARK VINA RESULT:      -9.9      1.422      1.851
REMARK  5 active torsions:
REMARK  status: ('A' for Active; 'I' for Inactive)
REMARK    1  A    between atoms: C_4  and  C_5 
REMARK    2  A    between atoms: C_5  and  N_6 
REMARK    3  A    between atoms: C_15  and  C_16 
REMARK    4  A    between atoms: C_16  and  N_17 
REMARK    5  A    between atoms: C_20  and  C_21 
REMARK       I    between atoms: C_21  and  N_22 
ROOT
HETATM    1  N   UNL     1      27.537  43.146  53.793  1.00  0.00    -0.061 N 
HETATM    2  H   UNL     1      27.399  43.039  54.804  1.00  0.00     0.280 HD
HETATM    3  C   UNL     1      26.306  43.886  53.315  1.00  0.00     0.276 C 
HETATM    4  C   UNL     1      26.335  44.326  51.880  1.00  0.00     0.002 A 
HETATM    5  C   UNL     1      26.394  43.375  50.861  1.00  0.00     0.076 A 
HETATM    6  O   UNL     1      26.407  42.039  51.146  1.00  0.00    -0.349 OA
HETATM    7  C   UNL     1      27.649  41.632  51.733  1.00  0.00     0.203 C 
HETATM    8  C   UNL     1      27.604  41.720  53.264  1.00  0.00     0.262 C 
HETATM    9  C   UNL     1      26.267  45.688  51.530  1.00  0.00     0.020 A 
HETATM   10  C   UNL     1      26.257  46.097  50.181  1.00  0.00    -0.032 A 
HETATM   11  C   UNL     1      26.318  45.110  49.184  1.00  0.00     0.011 A 
HETATM   12  C   UNL     1      26.365  43.757  49.523  1.00  0.00     0.038 A 
ENDROOT
BRANCH  10  13
HETATM   13  C   UNL     1      26.242  47.568  49.829  1.00  0.00     0.273 C 
BRANCH  13  14
HETATM   14  N   UNL     1      24.983  48.072  49.167  1.00  0.00    -0.066 N 
HETATM   15  H   UNL     1      24.859  47.511  48.301  1.00  0.00     0.280 HD
HETATM   16  C   UNL     1      23.721  47.825  49.971  1.00  0.00     0.249 C 
HETATM   17  C   UNL     1      22.483  48.211  49.155  1.00  0.00     0.103 C 
HETATM   18  C   UNL     1      22.580  49.661  48.672  1.00  0.00     0.017 C 
HETATM   19  C   UNL     1      23.894  49.940  47.942  1.00  0.00     0.029 C 
HETATM   20  C   UNL     1      25.114  49.516  48.749  1.00  0.00     0.235 C 
BRANCH  17  21
HETATM   21  C   UNL     1      22.350  47.261  47.978  1.00  0.00     0.221 C 
HETATM   22  N   UNL     1      22.721  45.975  48.194  1.00  0.00    -0.370 N 
HETATM   23  H   UNL     1      23.130  45.632  49.055  1.00  0.00     0.159 HD
HETATM   24  H   UNL     1      22.629  45.304  47.437  1.00  0.00     0.159 HD
HETATM   25  O   UNL     1      21.855  47.630  46.914  1.00  0.00    -0.273 OA
ENDBRANCH  17  21
ENDBRANCH  13  14
ENDBRANCH  10  13
BRANCH   1  26
HETATM   26  C   UNL     1      28.851  43.895  53.654  1.00  0.00     0.274 C 
BRANCH  26  27
HETATM   27  C   UNL     1      29.511  44.299  54.954  1.00  0.00    -0.026 A 
HETATM   28  C   UNL     1      30.529  43.490  55.501  1.00  0.00     0.016 A 
HETATM   29  C   UNL     1      31.134  43.804  56.724  1.00  0.00    -0.061 A 
HETATM   30  C   UNL     1      32.234  42.946  57.281  1.00  0.00     0.048 C 
HETATM   31  C   UNL     1      30.757  44.972  57.386  1.00  0.00     0.007 A 
HETATM   32  C   UNL     1      29.791  45.813  56.836  1.00  0.00     0.008 A 
HETATM   33  C   UNL     1      29.170  45.501  55.617  1.00  0.00    -0.054 A 
HETATM   34  C   UNL     1      28.179  46.488  55.054  1.00  0.00     0.049 C 
ENDBRANCH  26  27
ENDBRANCH   1  26
TORSDOF 5
ENDMDL
MODEL 3
REMARK VINA RESULT:      -9.2      3.853      7.533
REMARK  5 active torsions:
REMARK  status: ('A' for Active; 'I' for Inactive)
REMARK    1  A    between atoms: C_4  and  C_5 
REMARK    2  A    between atoms: C_5  and  N_6 
REMARK    3  A    between atoms: C_15  and  C_16 
REMARK    4  A    between atoms: C_16  and  N_17 
REMARK    5  A    between atoms: C_20  and  C_21 
REMARK       I    between atoms: C_21  and  N_22 
ROOT
HETATM    1  N   UNL     1      27.017  45.099  52.870  1.00  0.00    -0.061 N 
HETATM    2  H   UNL     1      27.669  45.856  53.104  1.00  0.00     0.280 HD
HETATM    3  C   UNL     1      26.958  45.098  51.358  1.00  0.00     0.276 C 
HETATM    4  C   UNL     1      26.196  43.960  50.743  1.00  0.00     0.002 A 
HETATM    5  C   UNL     1      24.830  43.823  50.987  1.00  0.00     0.076 A 
HETATM    6  O   UNL     1      24.161  44.725  51.767  1.00  0.00    -0.349 OA
HETATM    7  C   UNL     1      24.522  44.603  53.148  1.00  0.00     0.203 C 
HETATM    8  C   UNL     1      25.699  45.520  53.506  1.00  0.00     0.262 C 
HETATM    9  C   UNL     1      26.825  43.035  49.887  1.00  0.00     0.020 A 
HETATM   10  C   UNL     1      26.100  41.989  49.282  1.00  0.00    -0.032 A 
HETATM   11  C   UNL     1      24.726  41.885  49.552  1.00  0.00     0.011 A 
HETATM   12  C   UNL     1      24.092  42.810  50.383  1.00  0.00     0.038 A 
ENDROOT
BRANCH  10  13
HETATM   13  C   UNL     1      26.807  40.973  48.412  1.00  0.00     0.273 C 
BRANCH  13  14
HETATM   14  N   UNL     1      27.527  39.868  49.146  1.00  0.00    -0.066 N 
HETATM   15  H   UNL     1      26.800  39.329  49.656  1.00  0.00     0.280 HD
HETATM   16  C   UNL     1      28.193  38.854  48.235  1.00  0.00     0.249 C 
HETATM   17  C   UNL     1      28.750  37.686  49.055  1.00  0.00     0.103 C 
HETATM   18  C   UNL     1      29.701  38.189  50.144  1.00  0.00     0.017 C 
HETATM   19  C   UNL     1      29.066  39.280  51.007  1.00  0.00     0.029 C 
HETATM   20  C   UNL     1      28.483  40.416  50.177  1.00  0.00     0.235 C 
BRANCH  17  21
HETATM   21  C   UNL     1      27.594  36.914  49.667  1.00  0.00     0.221 C 
HETATM   22  N   UNL     1      27.916  35.987  50.604  1.00  0.00    -0.370 N 
HETATM   23  H   UNL     1      28.863  35.742  50.869  1.00  0.00     0.159 HD
HETATM   24  H   UNL     1      27.170  35.462  51.051  1.00  0.00     0.159 HD
HETATM   25  O   UNL     1      26.428  37.178  49.381  1.00  0.00    -0.273 OA
ENDBRANCH  17  21
ENDBRANCH  13  14
ENDBRANCH  10  13
BRANCH   1  26
HETATM   26  C   UNL     1      27.615  43.857  53.507  1.00  0.00     0.274 C 
BRANCH  26  27
HETATM   27  C   UNL     1      28.738  44.105  54.489  1.00  0.00    -0.026 A 
HETATM   28  C   UNL     1      28.536  44.987  55.572  1.00  0.00     0.016 A 
HETATM   29  C   UNL     1      29.563  45.279  56.477  1.00  0.00    -0.061 A 
HETATM   30  C   UNL     1      29.325  46.202  57.640  1.00  0.00     0.048 C 
HETATM   31  C   UNL     1      30.794  44.641  56.335  1.00  0.00     0.007 A 
HETATM   32  C   UNL     1      30.998  43.725  55.304  1.00  0.00     0.008 A 
HETATM   33  C   UNL     1      29.978  43.435  54.383  1.00  0.00    -0.054 A 
HETATM   34  C   UNL     1      30.251  42.389  53.333  1.00  0.00     0.049 C 
ENDBRANCH  26  27
ENDBRANCH   1  26
TORSDOF 5
ENDMDL
MODEL 4
REMARK VINA RESULT:      -9.2      3.482      7.496
REMARK  5 active torsions:
REMARK  status: ('A' for Active; 'I' for Inactive)
REMARK    1  A    between atoms: C_4  and  C_5 
REMARK    2  A    between atoms: C_5  and  N_6 
REMARK    3  A    between atoms: C_15  and  C_16 
REMARK    4  A    between atoms: C_16  and  N_17 
REMARK    5  A    between atoms: C_20  and  C_21 
REMARK       I    between atoms: C_21  and  N_22 
ROOT
HETATM    1  N   UNL     1      26.570  46.114  51.379  1.00  0.00    -0.061 N 
HETATM    2  H   UNL     1      27.385  46.700  51.593  1.00  0.00     0.280 HD
HETATM    3  C   UNL     1      27.076  45.115  50.359  1.00  0.00     0.276 C 
HETATM    4  C   UNL     1      26.115  44.019  50.000  1.00  0.00     0.002 A 
HETATM    5  C   UNL     1      24.904  44.328  49.382  1.00  0.00     0.076 A 
HETATM    6  O   UNL     1      24.580  45.620  49.076  1.00  0.00    -0.349 OA
HETATM    7  C   UNL     1      24.291  46.388  50.251  1.00  0.00     0.203 C 
HETATM    8  C   UNL     1      25.547  47.078  50.796  1.00  0.00     0.262 C 
HETATM    9  C   UNL     1      26.424  42.667  50.242  1.00  0.00     0.020 A 
HETATM   10  C   UNL     1      25.537  41.636  49.871  1.00  0.00    -0.032 A 
HETATM   11  C   UNL     1      24.328  41.987  49.251  1.00  0.00     0.011 A 
HETATM   12  C   UNL     1      24.024  43.324  48.989  1.00  0.00     0.038 A 
ENDROOT
BRANCH  10  13
HETATM   13  C   UNL     1      25.863  40.194  50.193  1.00  0.00     0.273 C 
BRANCH  13  14
HETATM   14  N   UNL     1      27.069  39.621  49.488  1.00  0.00    -0.066 N 
HETATM   15  H   UNL     1      27.904  40.045  49.939  1.00  0.00     0.280 HD
HETATM   16  C   UNL     1      27.243  38.126  49.680  1.00  0.00     0.249 C 
HETATM   17  C   UNL     1      28.574  37.663  49.078  1.00  0.00     0.103 C 
HETATM   18  C   UNL     1      28.676  38.067  47.605  1.00  0.00     0.017 C 
HETATM   19  C   UNL     1      28.408  39.558  47.395  1.00  0.00     0.029 C 
HETATM   20  C   UNL     1      27.101  40.012  48.032  1.00  0.00     0.235 C 
BRANCH  17  21
HETATM   21  C   UNL     1      29.716  38.263  49.879  1.00  0.00     0.221 C 
HETATM   22  N   UNL     1      30.923  38.317  49.262  1.00  0.00    -0.370 N 
HETATM   23  H   UNL     1      31.117  37.934  48.344  1.00  0.00     0.159 HD
HETATM   24  H   UNL     1      31.709  38.727  49.757  1.00  0.00     0.159 HD
HETATM   25  O   UNL     1      29.529  38.744  50.995  1.00  0.00    -0.273 OA
ENDBRANCH  17  21
ENDBRANCH  13  14
ENDBRANCH  10  13
BRANCH   1  26
HETATM   26  C   UNL     1      26.146  45.531  52.716  1.00  0.00     0.274 C 
BRANCH  26  27
HETATM   27  C   UNL     1      27.216  45.506  53.785  1.00  0.00    -0.026 A 
HETATM   28  C   UNL     1      28.153  44.451  53.809  1.00  0.00     0.016 A 
HETATM   29  C   UNL     1      29.131  44.366  54.807  1.00  0.00    -0.061 A 
HETATM   30  C   UNL     1      30.137  43.249  54.805  1.00  0.00     0.048 C 
HETATM   31  C   UNL     1      29.212  45.376  55.764  1.00  0.00     0.007 A 
HETATM   32  C   UNL     1      28.330  46.454  55.727  1.00  0.00     0.008 A 
HETATM   33  C   UNL     1      27.338  46.543  54.737  1.00  0.00    -0.054 A 
HETATM   34  C   UNL     1      26.461  47.769  54.723  1.00  0.00     0.049 C 
ENDBRANCH  26  27
ENDBRANCH   1  26
TORSDOF 5
ENDMDL
MODEL 5
REMARK VINA RESULT:      -9.1      2.926     10.021
REMARK  5 active torsions:
REMARK  status: ('A' for Active; 'I' for Inactive)
REMARK    1  A    between atoms: C_4  and  C_5 
REMARK    2  A    between atoms: C_5  and  N_6 
REMARK    3  A    between atoms: C_15  and  C_16 
REMARK    4  A    between atoms: C_16  and  N_17 
REMARK    5  A    between atoms: C_20  and  C_21 
REMARK       I    between atoms: C_21  and  N_22 
ROOT
HETATM    1  N   UNL     1      20.693  47.458  47.801  1.00  0.00    -0.061 N 
HETATM    2  H   UNL     1      20.533  48.138  47.050  1.00  0.00     0.280 HD
HETATM    3  C   UNL     1      22.073  46.901  47.524  1.00  0.00     0.276 C 
HETATM    4  C   UNL     1      22.628  45.996  48.586  1.00  0.00     0.002 A 
HETATM    5  C   UNL     1      21.990  44.790  48.877  1.00  0.00     0.076 A 
HETATM    6  O   UNL     1      20.870  44.404  48.195  1.00  0.00    -0.349 OA
HETATM    7  C   UNL     1      19.734  45.205  48.542  1.00  0.00     0.203 C 
HETATM    8  C   UNL     1      19.595  46.419  47.616  1.00  0.00     0.262 C 
HETATM    9  C   UNL     1      23.810  46.320  49.279  1.00  0.00     0.020 A 
HETATM   10  C   UNL     1      24.349  45.451  50.249  1.00  0.00    -0.032 A 
HETATM   11  C   UNL     1      23.678  44.247  50.515  1.00  0.00     0.011 A 
HETATM   12  C   UNL     1      22.517  43.910  49.817  1.00  0.00     0.038 A 
ENDROOT
BRANCH  10  13
HETATM   13  C   UNL     1      25.588  45.845  51.023  1.00  0.00     0.273 C 
BRANCH  13  14
HETATM   14  N   UNL     1      26.209  44.758  51.867  1.00  0.00    -0.066 N 
HETATM   15  H   UNL     1      25.604  43.921  51.761  1.00  0.00     0.280 HD
HETATM   16  C   UNL     1      27.577  44.311  51.389  1.00  0.00     0.249 C 
HETATM   17  C   UNL     1      28.053  43.098  52.194  1.00  0.00     0.103 C 
HETATM   18  C   UNL     1      28.042  43.402  53.695  1.00  0.00     0.017 C 
HETATM   19  C   UNL     1      26.692  43.943  54.164  1.00  0.00     0.029 C 
HETATM   20  C   UNL     1      26.213  45.124  53.331  1.00  0.00     0.235 C 
BRANCH  17  21
HETATM   21  C   UNL     1      27.158  41.912  51.881  1.00  0.00     0.221 C 
HETATM   22  N   UNL     1      27.350  40.796  52.628  1.00  0.00    -0.370 N 
HETATM   23  H   UNL     1      28.079  40.689  53.324  1.00  0.00     0.159 HD
HETATM   24  H   UNL     1      26.759  39.987  52.463  1.00  0.00     0.159 HD
HETATM   25  O   UNL     1      26.257  41.995  51.049  1.00  0.00    -0.273 OA
ENDBRANCH  17  21
ENDBRANCH  13  14
ENDBRANCH  10  13
BRANCH   1  26
HETATM   26  C   UNL     1      20.550  48.253  49.087  1.00  0.00     0.274 C 
BRANCH  26  27
HETATM   27  C   UNL     1      19.947  49.632  48.936  1.00  0.00    -0.026 A 
HETATM   28  C   UNL     1      18.561  49.813  49.128  1.00  0.00     0.016 A 
HETATM   29  C   UNL     1      17.956  51.063  48.953  1.00  0.00    -0.061 A 
HETATM   30  C   UNL     1      16.482  51.244  49.185  1.00  0.00     0.048 C 
HETATM   31  C   UNL     1      18.753  52.163  48.637  1.00  0.00     0.007 A 
HETATM   32  C   UNL     1      20.131  52.017  48.497  1.00  0.00     0.008 A 
HETATM   33  C   UNL     1      20.746  50.765  48.657  1.00  0.00    -0.054 A 
HETATM   34  C   UNL     1      22.248  50.695  48.550  1.00  0.00     0.049 C 
ENDBRANCH  26  27
ENDBRANCH   1  26
TORSDOF 5
ENDMDL
MODEL 6
REMARK VINA RESULT:      -9.0      3.574      7.344
REMARK  5 active torsions:
REMARK  status: ('A' for Active; 'I' for Inactive)
REMARK    1  A    between atoms: C_4  and  C_5 
REMARK    2  A    between atoms: C_5  and  N_6 
REMARK    3  A    between atoms: C_15  and  C_16 
REMARK    4  A    between atoms: C_16  and  N_17 
REMARK    5  A    between atoms: C_20  and  C_21 
REMARK       I    between atoms: C_21  and  N_22 
ROOT
HETATM    1  N   UNL     1      26.967  45.498  51.405  1.00  0.00    -0.061 N 
HETATM    2  H   UNL     1      27.896  45.866  51.637  1.00  0.00     0.280 HD
HETATM    3  C   UNL     1      27.151  44.810  50.069  1.00  0.00     0.276 C 
HETATM    4  C   UNL     1      25.967  44.029  49.578  1.00  0.00     0.002 A 
HETATM    5  C   UNL     1      24.770  44.684  49.292  1.00  0.00     0.076 A 
HETATM    6  O   UNL     1      24.658  46.038  49.434  1.00  0.00    -0.349 OA
HETATM    7  C   UNL     1      24.659  46.430  50.812  1.00  0.00     0.203 C 
HETATM    8  C   UNL     1      26.078  46.731  51.311  1.00  0.00     0.262 C 
HETATM    9  C   UNL     1      26.046  42.639  49.361  1.00  0.00     0.020 A 
HETATM   10  C   UNL     1      24.945  41.914  48.864  1.00  0.00    -0.032 A 
HETATM   11  C   UNL     1      23.756  42.608  48.589  1.00  0.00     0.011 A 
HETATM   12  C   UNL     1      23.677  43.989  48.782  1.00  0.00     0.038 A 
ENDROOT
BRANCH  10  13
HETATM   13  C   UNL     1      25.033  40.413  48.694  1.00  0.00     0.273 C 
BRANCH  13  14
HETATM   14  N   UNL     1      26.379  39.878  48.271  1.00  0.00    -0.066 N 
HETATM   15  H   UNL     1      27.092  40.438  48.779  1.00  0.00     0.280 HD
HETATM   16  C   UNL     1      26.636  38.445  48.697  1.00  0.00     0.249 C 
HETATM   17  C   UNL     1      28.080  38.045  48.379  1.00  0.00     0.103 C 
HETATM   18  C   UNL     1      28.392  38.265  46.895  1.00  0.00     0.017 C 
HETATM   19  C   UNL     1      28.046  39.682  46.438  1.00  0.00     0.029 C 
HETATM   20  C   UNL     1      26.620  40.081  46.795  1.00  0.00     0.235 C 
BRANCH  17  21
HETATM   21  C   UNL     1      29.024  38.853  49.251  1.00  0.00     0.221 C 
HETATM   22  N   UNL     1      30.335  38.510  49.201  1.00  0.00    -0.370 N 
HETATM   23  H   UNL     1      30.705  37.726  48.676  1.00  0.00     0.159 HD
HETATM   24  H   UNL     1      31.001  39.039  49.756  1.00  0.00     0.159 HD
HETATM   25  O   UNL     1      28.623  39.816  49.902  1.00  0.00    -0.273 OA
ENDBRANCH  17  21
ENDBRANCH  13  14
ENDBRANCH  10  13
BRANCH   1  26
HETATM   26  C   UNL     1      26.604  44.590  52.568  1.00  0.00     0.274 C 
BRANCH  26  27
HETATM   27  C   UNL     1      27.748  44.219  53.485  1.00  0.00    -0.026 A 
HETATM   28  C   UNL     1      28.215  45.155  54.433  1.00  0.00     0.016 A 
HETATM   29  C   UNL     1      29.301  44.868  55.269  1.00  0.00    -0.061 A 
HETATM   30  C   UNL     1      29.771  45.866  56.290  1.00  0.00     0.048 C 
HETATM   31  C   UNL     1      29.895  43.609  55.200  1.00  0.00     0.007 A 
HETATM   32  C   UNL     1      29.415  42.651  54.309  1.00  0.00     0.008 A 
HETATM   33  C   UNL     1      28.335  42.933  53.457  1.00  0.00    -0.054 A 
HETATM   34  C   UNL     1      27.831  41.828  52.564  1.00  0.00     0.049 C 
ENDBRANCH  26  27
ENDBRANCH   1  26
TORSDOF 5
ENDMDL
MODEL 7
REMARK VINA RESULT:      -8.9      2.990      5.949
REMARK  5 active torsions:
REMARK  status: ('A' for Active; 'I' for Inactive)
REMARK    1  A    between atoms: C_4  and  C_5 
REMARK    2  A    between atoms: C_5  and  N_6 
REMARK    3  A    between atoms: C_15  and  C_16 
REMARK    4  A    between atoms: C_16  and  N_17 
REMARK    5  A    between atoms: C_20  and  C_21 
REMARK       I    between atoms: C_21  and  N_22 
ROOT
HETATM    1  N   UNL     1      25.295  46.943  49.945  1.00  0.00    -0.061 N 
HETATM    2  H   UNL     1      25.560  45.951  49.941  1.00  0.00     0.280 HD
HETATM    3  C   UNL     1      24.153  47.037  48.956  1.00  0.00     0.276 C 
HETATM    4  C   UNL     1      23.460  48.367  48.897  1.00  0.00     0.002 A 
HETATM    5  C   UNL     1      24.161  49.501  48.488  1.00  0.00     0.076 A 
HETATM    6  O   UNL     1      25.474  49.421  48.118  1.00  0.00    -0.349 OA
HETATM    7  C   UNL     1      26.328  49.175  49.242  1.00  0.00     0.203 C 
HETATM    8  C   UNL     1      26.543  47.674  49.469  1.00  0.00     0.262 C 
HETATM    9  C   UNL     1      22.094  48.495  49.213  1.00  0.00     0.020 A 
HETATM   10  C   UNL     1      21.435  49.737  49.121  1.00  0.00    -0.032 A 
HETATM   11  C   UNL     1      22.175  50.856  48.706  1.00  0.00     0.011 A 
HETATM   12  C   UNL     1      23.524  50.733  48.372  1.00  0.00     0.038 A 
ENDROOT
BRANCH  10  13
HETATM   13  C   UNL     1      19.982  49.863  49.521  1.00  0.00     0.273 C 
BRANCH  13  14
HETATM   14  N   UNL     1      19.010  49.008  48.745  1.00  0.00    -0.066 N 
HETATM   15  H   UNL     1      19.570  48.253  48.302  1.00  0.00     0.280 HD
HETATM   16  C   UNL     1      17.998  48.282  49.610  1.00  0.00     0.249 C 
HETATM   17  C   UNL     1      17.169  47.312  48.762  1.00  0.00     0.103 C 
HETATM   18  C   UNL     1      16.502  48.043  47.593  1.00  0.00     0.017 C 
HETATM   19  C   UNL     1      17.506  48.854  46.772  1.00  0.00     0.029 C 
HETATM   20  C   UNL     1      18.350  49.785  47.633  1.00  0.00     0.235 C 
BRANCH  17  21
HETATM   21  C   UNL     1      18.070  46.200  48.255  1.00  0.00     0.221 C 
HETATM   22  N   UNL     1      17.464  45.190  47.583  1.00  0.00    -0.370 N 
HETATM   23  H   UNL     1      16.462  45.104  47.456  1.00  0.00     0.159 HD
HETATM   24  H   UNL     1      18.034  44.437  47.212  1.00  0.00     0.159 HD
HETATM   25  O   UNL     1      19.291  46.262  48.381  1.00  0.00    -0.273 OA
ENDBRANCH  17  21
ENDBRANCH  13  14
ENDBRANCH  10  13
BRANCH   1  26
HETATM   26  C   UNL     1      24.941  47.248  51.390  1.00  0.00     0.274 C 
BRANCH  26  27
HETATM   27  C   UNL     1      25.655  46.409  52.427  1.00  0.00    -0.026 A 
HETATM   28  C   UNL     1      26.450  47.039  53.408  1.00  0.00     0.016 A 
HETATM   29  C   UNL     1      27.163  46.297  54.357  1.00  0.00    -0.061 A 
HETATM   30  C   UNL     1      27.986  46.984  55.410  1.00  0.00     0.048 C 
HETATM   31  C   UNL     1      27.038  44.909  54.365  1.00  0.00     0.007 A 
HETATM   32  C   UNL     1      26.216  44.270  53.438  1.00  0.00     0.008 A 
HETATM   33  C   UNL     1      25.506  45.004  52.474  1.00  0.00    -0.054 A 
HETATM   34  C   UNL     1      24.589  44.250  51.545  1.00  0.00     0.049 C 
ENDBRANCH  26  27
ENDBRANCH   1  26
TORSDOF 5
ENDMDL
MODEL 8
REMARK VINA RESULT:      -8.9      4.255      7.229
REMARK  5 active torsions:
REMARK  status: ('A' for Active; 'I' for Inactive)
REMARK    1  A    between atoms: C_4  and  C_5 
REMARK    2  A    between atoms: C_5  and  N_6 
REMARK    3  A    between atoms: C_15  and  C_16 
REMARK    4  A    between atoms: C_16  and  N_17 
REMARK    5  A    between atoms: C_20  and  C_21 
REMARK       I    between atoms: C_21  and  N_22 
ROOT
HETATM    1  N   UNL     1      27.086  44.923  52.277  1.00  0.00    -0.061 N 
HETATM    2  H   UNL     1      27.788  45.640  52.495  1.00  0.00     0.280 HD
HETATM    3  C   UNL     1      27.502  44.380  50.927  1.00  0.00     0.276 C 
HETATM    4  C   UNL     1      26.731  43.184  50.448  1.00  0.00     0.002 A 
HETATM    5  C   UNL     1      25.362  43.290  50.200  1.00  0.00     0.076 A 
HETATM    6  O   UNL     1      24.708  44.478  50.366  1.00  0.00    -0.349 OA
HETATM    7  C   UNL     1      24.585  44.828  51.750  1.00  0.00     0.203 C 
HETATM    8  C   UNL     1      25.768  45.682  52.223  1.00  0.00     0.262 C 
HETATM    9  C   UNL     1      27.367  41.951  50.207  1.00  0.00     0.020 A 
HETATM   10  C   UNL     1      26.649  40.840  49.722  1.00  0.00    -0.032 A 
HETATM   11  C   UNL     1      25.273  40.986  49.484  1.00  0.00     0.011 A 
HETATM   12  C   UNL     1      24.639  42.210  49.702  1.00  0.00     0.038 A 
ENDROOT
BRANCH  10  13
HETATM   13  C   UNL     1      27.341  39.509  49.525  1.00  0.00     0.273 C 
BRANCH  13  14
HETATM   14  N   UNL     1      27.374  38.989  48.108  1.00  0.00    -0.066 N 
HETATM   15  H   UNL     1      26.385  38.899  47.804  1.00  0.00     0.280 HD
HETATM   16  C   UNL     1      27.999  39.948  47.113  1.00  0.00     0.249 C 
HETATM   17  C   UNL     1      27.837  39.416  45.686  1.00  0.00     0.103 C 
HETATM   18  C   UNL     1      28.416  38.003  45.561  1.00  0.00     0.017 C 
HETATM   19  C   UNL     1      27.858  37.056  46.624  1.00  0.00     0.029 C 
HETATM   20  C   UNL     1      27.991  37.615  48.034  1.00  0.00     0.235 C 
BRANCH  17  21
HETATM   21  C   UNL     1      26.364  39.426  45.317  1.00  0.00     0.221 C 
HETATM   22  N   UNL     1      26.046  38.953  44.086  1.00  0.00    -0.370 N 
HETATM   23  H   UNL     1      26.723  38.659  43.391  1.00  0.00     0.159 HD
HETATM   24  H   UNL     1      25.070  38.926  43.808  1.00  0.00     0.159 HD
HETATM   25  O   UNL     1      25.506  39.771  46.127  1.00  0.00    -0.273 OA
ENDBRANCH  17  21
ENDBRANCH  13  14
ENDBRANCH  10  13
BRANCH   1  26
HETATM   26  C   UNL     1      27.160  43.940  53.433  1.00  0.00     0.274 C 
BRANCH  26  27
HETATM   27  C   UNL     1      28.405  44.031  54.287  1.00  0.00    -0.026 A 
HETATM   28  C   UNL     1      28.452  44.953  55.355  1.00  0.00     0.016 A 
HETATM   29  C   UNL     1      29.601  45.102  56.141  1.00  0.00    -0.061 A 
HETATM   30  C   UNL     1      29.627  46.071  57.290  1.00  0.00     0.048 C 
HETATM   31  C   UNL     1      30.700  44.281  55.897  1.00  0.00     0.007 A 
HETATM   32  C   UNL     1      30.655  43.327  54.882  1.00  0.00     0.008 A 
HETATM   33  C   UNL     1      29.513  43.178  54.079  1.00  0.00    -0.054 A 
HETATM   34  C   UNL     1      29.514  42.084  53.042  1.00  0.00     0.049 C 
ENDBRANCH  26  27
ENDBRANCH   1  26
TORSDOF 5
ENDMDL
MODEL 9
REMARK VINA RESULT:      -8.9      4.132      7.358
REMARK  5 active torsions:
REMARK  status: ('A' for Active; 'I' for Inactive)
REMARK    1  A    between atoms: C_4  and  C_5 
REMARK    2  A    between atoms: C_5  and  N_6 
REMARK    3  A    between atoms: C_15  and  C_16 
REMARK    4  A    between atoms: C_16  and  N_17 
REMARK    5  A    between atoms: C_20  and  C_21 
REMARK       I    between atoms: C_21  and  N_22 
ROOT
HETATM    1  N   UNL     1      26.484  45.831  51.251  1.00  0.00    -0.061 N 
HETATM    2  H   UNL     1      27.221  46.511  51.467  1.00  0.00     0.280 HD
HETATM    3  C   UNL     1      27.106  44.904  50.229  1.00  0.00     0.276 C 
HETATM    4  C   UNL     1      26.285  43.701  49.865  1.00  0.00     0.002 A 
HETATM    5  C   UNL     1      25.046  43.863  49.247  1.00  0.00     0.076 A 
HETATM    6  O   UNL     1      24.568  45.107  48.945  1.00  0.00    -0.349 OA
HETATM    7  C   UNL     1      24.188  45.830  50.122  1.00  0.00     0.203 C 
HETATM    8  C   UNL     1      25.351  46.666  50.671  1.00  0.00     0.262 C 
HETATM    9  C   UNL     1      26.756  42.395  50.103  1.00  0.00     0.020 A 
HETATM   10  C   UNL     1      26.001  41.266  49.728  1.00  0.00    -0.032 A 
HETATM   11  C   UNL     1      24.758  41.470  49.108  1.00  0.00     0.011 A 
HETATM   12  C   UNL     1      24.294  42.761  48.851  1.00  0.00     0.038 A 
ENDROOT
BRANCH  10  13
HETATM   13  C   UNL     1      26.499  39.873  50.045  1.00  0.00     0.273 C 
BRANCH  13  14
HETATM   14  N   UNL     1      26.775  38.988  48.854  1.00  0.00    -0.066 N 
HETATM   15  H   UNL     1      25.940  39.049  48.240  1.00  0.00     0.280 HD
HETATM   16  C   UNL     1      27.928  39.459  47.988  1.00  0.00     0.249 C 
HETATM   17  C   UNL     1      28.027  38.604  46.720  1.00  0.00     0.103 C 
HETATM   18  C   UNL     1      28.146  37.118  47.072  1.00  0.00     0.017 C 
HETATM   19  C   UNL     1      27.038  36.660  48.022  1.00  0.00     0.029 C 
HETATM   20  C   UNL     1      26.926  37.542  49.259  1.00  0.00     0.235 C 
BRANCH  17  21
HETATM   21  C   UNL     1      26.803  38.854  45.856  1.00  0.00     0.221 C 
HETATM   22  N   UNL     1      26.697  38.107  44.729  1.00  0.00    -0.370 N 
HETATM   23  H   UNL     1      27.399  37.452  44.406  1.00  0.00     0.159 HD
HETATM   24  H   UNL     1      25.884  38.231  44.134  1.00  0.00     0.159 HD
HETATM   25  O   UNL     1      25.923  39.636  46.209  1.00  0.00    -0.273 OA
ENDBRANCH  17  21
ENDBRANCH  13  14
ENDBRANCH  10  13
BRANCH   1  26
HETATM   26  C   UNL     1      26.132  45.197  52.586  1.00  0.00     0.274 C 
BRANCH  26  27
HETATM   27  C   UNL     1      27.214  45.259  53.642  1.00  0.00    -0.026 A 
HETATM   28  C   UNL     1      28.199  44.250  53.692  1.00  0.00     0.016 A 
HETATM   29  C   UNL     1      29.190  44.246  54.680  1.00  0.00    -0.061 A 
HETATM   30  C   UNL     1      30.247  43.177  54.706  1.00  0.00     0.048 C 
HETATM   31  C   UNL     1      29.236  45.293  55.599  1.00  0.00     0.007 A 
HETATM   32  C   UNL     1      28.305  46.329  55.534  1.00  0.00     0.008 A 
HETATM   33  C   UNL     1      27.299  46.336  54.554  1.00  0.00    -0.054 A 
HETATM   34  C   UNL     1      26.366  47.519  54.507  1.00  0.00     0.049 C 
ENDBRANCH  26  27
ENDBRANCH   1  26
TORSDOF 5
ENDMDL
MODEL 10
REMARK VINA RESULT:      -8.8      3.390      8.915
REMARK  5 active torsions:
REMARK  status: ('A' for Active; 'I' for Inactive)
REMARK    1  A    between atoms: C_4  and  C_5 
REMARK    2  A    between atoms: C_5  and  N_6 
REMARK    3  A    between atoms: C_15  and  C_16 
REMARK    4  A    between atoms: C_16  and  N_17 
REMARK    5  A    between atoms: C_20  and  C_21 
REMARK       I    between atoms: C_21  and  N_22 
ROOT
HETATM    1  N   UNL     1      25.303  46.474  51.888  1.00  0.00    -0.061 N 
HETATM    2  H   UNL     1      24.557  47.176  51.936  1.00  0.00     0.280 HD
HETATM    3  C   UNL     1      24.590  45.147  52.046  1.00  0.00     0.276 C 
HETATM    4  C   UNL     1      25.443  43.929  51.839  1.00  0.00     0.002 A 
HETATM    5  C   UNL     1      26.513  43.674  52.696  1.00  0.00     0.076 A 
HETATM    6  O   UNL     1      26.792  44.509  53.741  1.00  0.00    -0.349 OA
HETATM    7  C   UNL     1      27.320  45.763  53.293  1.00  0.00     0.203 C 
HETATM    8  C   UNL     1      26.208  46.796  53.070  1.00  0.00     0.262 C 
HETATM    9  C   UNL     1      25.165  43.007  50.812  1.00  0.00     0.020 A 
HETATM   10  C   UNL     1      25.943  41.844  50.642  1.00  0.00    -0.032 A 
HETATM   11  C   UNL     1      27.013  41.622  51.524  1.00  0.00     0.011 A 
HETATM   12  C   UNL     1      27.282  42.522  52.557  1.00  0.00     0.038 A 
ENDROOT
BRANCH  10  13
HETATM   13  C   UNL     1      25.663  40.897  49.497  1.00  0.00     0.273 C 
BRANCH  13  14
HETATM   14  N   UNL     1      26.849  40.117  48.983  1.00  0.00    -0.066 N 
HETATM   15  H   UNL     1      27.684  40.492  49.475  1.00  0.00     0.280 HD
HETATM   16  C   UNL     1      26.820  38.643  49.338  1.00  0.00     0.249 C 
HETATM   17  C   UNL     1      28.133  37.969  48.929  1.00  0.00     0.103 C 
HETATM   18  C   UNL     1      28.421  38.195  47.442  1.00  0.00     0.017 C 
HETATM   19  C   UNL     1      28.359  39.674  47.060  1.00  0.00     0.029 C 
HETATM   20  C   UNL     1      27.064  40.340  47.507  1.00  0.00     0.235 C 
BRANCH  17  21
HETATM   21  C   UNL     1      29.261  38.521  49.783  1.00  0.00     0.221 C 
HETATM   22  N   UNL     1      30.521  38.327  49.319  1.00  0.00    -0.370 N 
HETATM   23  H   UNL     1      30.751  37.796  48.487  1.00  0.00     0.159 HD
HETATM   24  H   UNL     1      31.302  38.697  49.851  1.00  0.00     0.159 HD
HETATM   25  O   UNL     1      29.031  39.176  50.797  1.00  0.00    -0.273 OA
ENDBRANCH  17  21
ENDBRANCH  13  14
ENDBRANCH  10  13
BRANCH   1  26
HETATM   26  C   UNL     1      25.973  46.705  50.545  1.00  0.00     0.274 C 
BRANCH  26  27
HETATM   27  C   UNL     1      25.406  47.841  49.722  1.00  0.00    -0.026 A 
HETATM   28  C   UNL     1      24.008  48.001  49.623  1.00  0.00     0.016 A 
HETATM   29  C   UNL     1      23.442  49.010  48.836  1.00  0.00    -0.061 A 
HETATM   30  C   UNL     1      21.950  49.183  48.760  1.00  0.00     0.048 C 
HETATM   31  C   UNL     1      24.282  49.910  48.180  1.00  0.00     0.007 A 
HETATM   32  C   UNL     1      25.665  49.802  48.308  1.00  0.00     0.008 A 
HETATM   33  C   UNL     1      26.243  48.786  49.085  1.00  0.00    -0.054 A 
HETATM   34  C   UNL     1      27.744  48.769  49.226  1.00  0.00     0.049 C 
ENDBRANCH  26  27
ENDBRANCH   1  26
TORSDOF 5
ENDMDL
