MODEL 1
REMARK VINA RESULT:      -9.6      0.000      0.000
REMARK  2 active torsions:
REMARK  status: ('A' for Active; 'I' for Inactive)
REMARK    1  A    between atoms: O_2  and  C_3 
REMARK    2  A    between atoms: C_5  and  N_6 
ROOT
HETATM    1  N   UNL     1      31.005  50.921  42.326  1.00  0.00    -0.252 N 
HETATM    2  C   UNL     1      30.446  49.663  42.363  1.00  0.00     0.239 C 
HETATM    3  O   UNL     1      30.792  48.646  42.942  1.00  0.00    -0.272 OA
HETATM    4  C   UNL     1      29.260  49.635  41.458  1.00  0.00     0.145 C 
HETATM    5  C   UNL     1      28.901  51.098  41.288  1.00  0.00     0.126 C 
HETATM    6  C   UNL     1      30.218  51.778  41.581  1.00  0.00     0.238 C 
HETATM    7  O   UNL     1      30.475  52.888  41.145  1.00  0.00    -0.272 OA
HETATM    8  C   UNL     1      29.597  49.078  40.065  1.00  0.00     0.250 A 
HETATM    9  C   UNL     1      31.093  48.633  39.842  1.00  0.00     0.264 A 
HETATM   10  O   UNL     1      32.067  49.365  39.878  1.00  0.00    -0.270 OA
HETATM   11  N   UNL     1      31.095  47.287  39.530  1.00  0.00    -0.324 N 
HETATM   12  C   UNL     1      29.811  46.775  39.494  1.00  0.00     0.044 A 
HETATM   13  C   UNL     1      28.875  47.772  39.785  1.00  0.00     0.015 A 
HETATM   14  C   UNL     1      29.453  45.476  39.205  1.00  0.00     0.030 A 
HETATM   15  C   UNL     1      28.091  45.174  39.205  1.00  0.00     0.002 A 
HETATM   16  C   UNL     1      27.134  46.164  39.489  1.00  0.00     0.001 A 
HETATM   17  C   UNL     1      27.520  47.477  39.784  1.00  0.00     0.012 A 
HETATM   18  N   UNL     1      29.130  50.176  39.084  1.00  0.00    -0.043 N 
HETATM   19  H   UNL     1      28.529  49.737  38.370  1.00  0.00     0.282 HD
HETATM   20  C   UNL     1      28.343  51.192  39.877  1.00  0.00     0.204 C 
HETATM   21  C   UNL     1      30.169  50.983  38.334  1.00  0.00     0.237 C 
HETATM   22  C   UNL     1      29.380  52.208  37.917  1.00  0.00     0.030 C 
HETATM   23  C   UNL     1      28.428  52.485  39.077  1.00  0.00     0.036 C 
HETATM   24  H   UNL     1      31.943  46.757  39.359  1.00  0.00     0.169 HD
ENDROOT
BRANCH   1  25
HETATM   25  C   UNL     1      32.297  51.252  42.852  1.00  0.00     0.048 A 
HETATM   26  C   UNL     1      33.459  51.147  42.070  1.00  0.00     0.066 A 
HETATM   27  C   UNL     1      34.719  51.535  42.547  1.00  0.00     0.070 A 
HETATM   28  C   UNL     1      34.845  52.009  43.847  1.00  0.00     0.037 A 
HETATM   29  C   UNL     1      33.716  52.100  44.655  1.00  0.00     0.005 A 
HETATM   30  C   UNL     1      32.458  51.726  44.163  1.00  0.00     0.030 A 
BRANCH  27  31
HETATM   31  O   UNL     1      35.736  51.395  41.643  1.00  0.00    -0.356 OA
HETATM   32  C   UNL     1      35.678  50.261  40.785  1.00  0.00     0.210 C 
ENDBRANCH  27  31
ENDBRANCH   1  25
TORSDOF 2
ENDMDL
MODEL 2
REMARK VINA RESULT:      -9.2      1.496      1.906
REMARK  2 active torsions:
REMARK  status: ('A' for Active; 'I' for Inactive)
REMARK    1  A    between atoms: O_2  and  C_3 
REMARK    2  A    between atoms: C_5  and  N_6 
ROOT
HETATM    1  N   UNL     1      32.508  51.099  41.708  1.00  0.00    -0.252 N 
HETATM    2  C   UNL     1      31.979  49.845  41.917  1.00  0.00     0.239 C 
HETATM    3  O   UNL     1      32.517  48.766  42.104  1.00  0.00    -0.272 OA
HETATM    4  C   UNL     1      30.493  49.925  41.811  1.00  0.00     0.145 C 
HETATM    5  C   UNL     1      30.195  51.397  42.017  1.00  0.00     0.126 C 
HETATM    6  C   UNL     1      31.501  52.039  41.608  1.00  0.00     0.238 C 
HETATM    7  O   UNL     1      31.551  53.194  41.219  1.00  0.00    -0.272 OA
HETATM    8  C   UNL     1      29.981  49.541  40.413  1.00  0.00     0.250 A 
HETATM    9  C   UNL     1      31.082  49.128  39.364  1.00  0.00     0.264 A 
HETATM   10  O   UNL     1      31.965  49.852  38.934  1.00  0.00    -0.270 OA
HETATM   11  N   UNL     1      30.827  47.831  38.966  1.00  0.00    -0.324 N 
HETATM   12  C   UNL     1      29.699  47.325  39.586  1.00  0.00     0.044 A 
HETATM   13  C   UNL     1      29.139  48.278  40.443  1.00  0.00     0.015 A 
HETATM   14  C   UNL     1      29.158  46.070  39.410  1.00  0.00     0.030 A 
HETATM   15  C   UNL     1      27.999  45.768  40.125  1.00  0.00     0.002 A 
HETATM   16  C   UNL     1      27.417  46.715  40.986  1.00  0.00     0.001 A 
HETATM   17  C   UNL     1      27.985  47.983  41.154  1.00  0.00     0.012 A 
HETATM   18  N   UNL     1      29.128  50.750  39.967  1.00  0.00    -0.043 N 
HETATM   19  H   UNL     1      28.209  50.399  39.658  1.00  0.00     0.282 HD
HETATM   20  C   UNL     1      28.967  51.661  41.160  1.00  0.00     0.204 C 
HETATM   21  C   UNL     1      29.643  51.643  38.857  1.00  0.00     0.237 C 
HETATM   22  C   UNL     1      28.836  52.908  39.069  1.00  0.00     0.030 C 
HETATM   23  C   UNL     1      28.687  53.042  40.581  1.00  0.00     0.036 C 
HETATM   24  H   UNL     1      31.408  47.326  38.305  1.00  0.00     0.169 HD
ENDROOT
BRANCH   1  25
HETATM   25  C   UNL     1      33.897  51.366  41.471  1.00  0.00     0.048 A 
HETATM   26  C   UNL     1      34.387  51.629  40.181  1.00  0.00     0.066 A 
HETATM   27  C   UNL     1      35.728  51.962  39.944  1.00  0.00     0.070 A 
HETATM   28  C   UNL     1      36.623  52.004  41.005  1.00  0.00     0.037 A 
HETATM   29  C   UNL     1      36.173  51.721  42.292  1.00  0.00     0.005 A 
HETATM   30  C   UNL     1      34.828  51.407  42.520  1.00  0.00     0.030 A 
BRANCH  27  31
HETATM   31  O   UNL     1      36.025  52.217  38.633  1.00  0.00    -0.356 OA
HETATM   32  C   UNL     1      37.281  52.832  38.370  1.00  0.00     0.210 C 
ENDBRANCH  27  31
ENDBRANCH   1  25
TORSDOF 2
ENDMDL
MODEL 3
REMARK VINA RESULT:      -9.0      1.977      6.311
REMARK  2 active torsions:
REMARK  status: ('A' for Active; 'I' for Inactive)
REMARK    1  A    between atoms: O_2  and  C_3 
REMARK    2  A    between atoms: C_5  and  N_6 
ROOT
HETATM    1  N   UNL     1      29.489  48.314  39.512  1.00  0.00    -0.252 N 
HETATM    2  C   UNL     1      30.861  48.405  39.579  1.00  0.00     0.239 C 
HETATM    3  O   UNL     1      31.712  47.568  39.833  1.00  0.00    -0.272 OA
HETATM    4  C   UNL     1      31.262  49.824  39.351  1.00  0.00     0.145 C 
HETATM    5  C   UNL     1      30.056  50.433  38.663  1.00  0.00     0.126 C 
HETATM    6  C   UNL     1      28.943  49.521  39.121  1.00  0.00     0.238 C 
HETATM    7  O   UNL     1      27.782  49.895  39.154  1.00  0.00    -0.272 OA
HETATM    8  C   UNL     1      31.482  50.593  40.664  1.00  0.00     0.250 A 
HETATM    9  C   UNL     1      31.264  49.769  41.990  1.00  0.00     0.264 A 
HETATM   10  O   UNL     1      30.212  49.274  42.358  1.00  0.00    -0.270 OA
HETATM   11  N   UNL     1      32.453  49.770  42.693  1.00  0.00    -0.324 N 
HETATM   12  C   UNL     1      33.429  50.495  42.033  1.00  0.00     0.044 A 
HETATM   13  C   UNL     1      32.928  51.020  40.837  1.00  0.00     0.015 A 
HETATM   14  C   UNL     1      34.722  50.707  42.458  1.00  0.00     0.030 A 
HETATM   15  C   UNL     1      35.542  51.488  41.643  1.00  0.00     0.002 A 
HETATM   16  C   UNL     1      35.055  52.031  40.440  1.00  0.00     0.001 A 
HETATM   17  C   UNL     1      33.739  51.799  40.025  1.00  0.00     0.012 A 
HETATM   18  N   UNL     1      30.561  51.828  40.549  1.00  0.00    -0.043 N 
HETATM   19  H   UNL     1      31.123  52.668  40.753  1.00  0.00     0.282 HD
HETATM   20  C   UNL     1      30.039  51.879  39.133  1.00  0.00     0.204 C 
HETATM   21  C   UNL     1      29.329  51.911  41.426  1.00  0.00     0.237 C 
HETATM   22  C   UNL     1      28.485  52.932  40.690  1.00  0.00     0.030 C 
HETATM   23  C   UNL     1      28.740  52.671  39.208  1.00  0.00     0.036 C 
HETATM   24  H   UNL     1      32.578  49.289  43.577  1.00  0.00     0.169 HD
ENDROOT
BRANCH   1  25
HETATM   25  C   UNL     1      28.728  47.175  39.938  1.00  0.00     0.048 A 
HETATM   26  C   UNL     1      29.050  45.875  39.515  1.00  0.00     0.066 A 
HETATM   27  C   UNL     1      28.362  44.745  39.979  1.00  0.00     0.070 A 
HETATM   28  C   UNL     1      27.300  44.902  40.861  1.00  0.00     0.037 A 
HETATM   29  C   UNL     1      26.940  46.181  41.277  1.00  0.00     0.005 A 
HETATM   30  C   UNL     1      27.646  47.302  40.821  1.00  0.00     0.030 A 
BRANCH  27  31
HETATM   31  O   UNL     1      28.827  43.556  39.488  1.00  0.00    -0.356 OA
HETATM   32  C   UNL     1      29.407  43.582  38.189  1.00  0.00     0.210 C 
ENDBRANCH  27  31
ENDBRANCH   1  25
TORSDOF 2
ENDMDL
MODEL 4
REMARK VINA RESULT:      -8.9     11.959     13.324
REMARK  2 active torsions:
REMARK  status: ('A' for Active; 'I' for Inactive)
REMARK    1  A    between atoms: O_2  and  C_3 
REMARK    2  A    between atoms: C_5  and  N_6 
ROOT
HETATM    1  N   UNL     1      27.034  44.510  53.501  1.00  0.00    -0.252 N 
HETATM    2  C   UNL     1      26.381  43.417  52.975  1.00  0.00     0.239 C 
HETATM    3  O   UNL     1      26.574  42.220  53.115  1.00  0.00    -0.272 OA
HETATM    4  C   UNL     1      25.320  43.893  52.040  1.00  0.00     0.145 C 
HETATM    5  C   UNL     1      25.096  45.335  52.453  1.00  0.00     0.126 C 
HETATM    6  C   UNL     1      26.414  45.679  53.107  1.00  0.00     0.238 C 
HETATM    7  O   UNL     1      26.807  46.832  53.186  1.00  0.00    -0.272 OA
HETATM    8  C   UNL     1      25.786  43.899  50.575  1.00  0.00     0.250 A 
HETATM    9  C   UNL     1      27.260  43.403  50.317  1.00  0.00     0.264 A 
HETATM   10  O   UNL     1      28.275  43.938  50.730  1.00  0.00    -0.270 OA
HETATM   11  N   UNL     1      27.200  42.303  49.485  1.00  0.00    -0.324 N 
HETATM   12  C   UNL     1      25.895  42.005  49.134  1.00  0.00     0.044 A 
HETATM   13  C   UNL     1      25.008  42.909  49.727  1.00  0.00     0.015 A 
HETATM   14  C   UNL     1      25.479  40.981  48.312  1.00  0.00     0.030 A 
HETATM   15  C   UNL     1      24.110  40.869  48.073  1.00  0.00     0.002 A 
HETATM   16  C   UNL     1      23.201  41.773  48.655  1.00  0.00     0.001 A 
HETATM   17  C   UNL     1      23.645  42.803  49.491  1.00  0.00     0.012 A 
HETATM   18  N   UNL     1      25.530  45.345  50.092  1.00  0.00    -0.043 N 
HETATM   19  H   UNL     1      24.993  45.300  49.213  1.00  0.00     0.282 HD
HETATM   20  C   UNL     1      24.729  46.048  51.161  1.00  0.00     0.204 C 
HETATM   21  C   UNL     1      26.714  46.251  49.827  1.00  0.00     0.237 C 
HETATM   22  C   UNL     1      26.078  47.626  49.881  1.00  0.00     0.030 C 
HETATM   23  C   UNL     1      25.011  47.532  50.968  1.00  0.00     0.036 C 
HETATM   24  H   UNL     1      28.020  41.787  49.185  1.00  0.00     0.169 HD
ENDROOT
BRANCH   1  25
HETATM   25  C   UNL     1      28.271  44.447  54.224  1.00  0.00     0.048 A 
HETATM   26  C   UNL     1      28.540  45.309  55.300  1.00  0.00     0.066 A 
HETATM   27  C   UNL     1      29.713  45.212  56.061  1.00  0.00     0.070 A 
HETATM   28  C   UNL     1      30.668  44.259  55.731  1.00  0.00     0.037 A 
HETATM   29  C   UNL     1      30.443  43.408  54.653  1.00  0.00     0.005 A 
HETATM   30  C   UNL     1      29.259  43.502  53.910  1.00  0.00     0.030 A 
BRANCH  27  31
HETATM   31  O   UNL     1      29.797  46.109  57.090  1.00  0.00    -0.356 OA
HETATM   32  C   UNL     1      30.575  45.719  58.216  1.00  0.00     0.210 C 
ENDBRANCH  27  31
ENDBRANCH   1  25
TORSDOF 2
ENDMDL
MODEL 5
REMARK VINA RESULT:      -8.7     11.591     12.905
REMARK  2 active torsions:
REMARK  status: ('A' for Active; 'I' for Inactive)
REMARK    1  A    between atoms: O_2  and  C_3 
REMARK    2  A    between atoms: C_5  and  N_6 
ROOT
HETATM    1  N   UNL     1      26.445  45.677  53.438  1.00  0.00    -0.252 N 
HETATM    2  C   UNL     1      25.663  44.629  53.007  1.00  0.00     0.239 C 
HETATM    3  O   UNL     1      25.538  43.491  53.430  1.00  0.00    -0.272 OA
HETATM    4  C   UNL     1      24.937  45.046  51.772  1.00  0.00     0.145 C 
HETATM    5  C   UNL     1      24.987  46.560  51.818  1.00  0.00     0.126 C 
HETATM    6  C   UNL     1      26.203  46.806  52.680  1.00  0.00     0.238 C 
HETATM    7  O   UNL     1      26.835  47.847  52.613  1.00  0.00    -0.272 OA
HETATM    8  C   UNL     1      25.655  44.599  50.488  1.00  0.00     0.250 A 
HETATM    9  C   UNL     1      26.992  43.789  50.691  1.00  0.00     0.264 A 
HETATM   10  O   UNL     1      28.009  44.211  51.214  1.00  0.00    -0.270 OA
HETATM   11  N   UNL     1      26.830  42.546  50.110  1.00  0.00    -0.324 N 
HETATM   12  C   UNL     1      25.580  42.419  49.531  1.00  0.00     0.044 A 
HETATM   13  C   UNL     1      24.837  43.591  49.700  1.00  0.00     0.015 A 
HETATM   14  C   UNL     1      25.095  41.318  48.859  1.00  0.00     0.030 A 
HETATM   15  C   UNL     1      23.807  41.407  48.333  1.00  0.00     0.002 A 
HETATM   16  C   UNL     1      23.045  42.580  48.488  1.00  0.00     0.001 A 
HETATM   17  C   UNL     1      23.556  43.686  49.177  1.00  0.00     0.012 A 
HETATM   18  N   UNL     1      25.842  45.899  49.675  1.00  0.00    -0.043 N 
HETATM   19  H   UNL     1      25.482  45.738  48.722  1.00  0.00     0.282 HD
HETATM   20  C   UNL     1      25.045  46.984  50.359  1.00  0.00     0.204 C 
HETATM   21  C   UNL     1      27.234  46.474  49.517  1.00  0.00     0.237 C 
HETATM   22  C   UNL     1      26.942  47.912  49.139  1.00  0.00     0.030 C 
HETATM   23  C   UNL     1      25.700  48.294  49.940  1.00  0.00     0.036 C 
HETATM   24  H   UNL     1      27.546  41.828  50.123  1.00  0.00     0.169 HD
ENDROOT
BRANCH   1  25
HETATM   25  C   UNL     1      27.476  45.568  54.430  1.00  0.00     0.048 A 
HETATM   26  C   UNL     1      28.458  44.565  54.362  1.00  0.00     0.066 A 
HETATM   27  C   UNL     1      29.513  44.489  55.282  1.00  0.00     0.070 A 
HETATM   28  C   UNL     1      29.585  45.407  56.322  1.00  0.00     0.037 A 
HETATM   29  C   UNL     1      28.611  46.396  56.431  1.00  0.00     0.005 A 
HETATM   30  C   UNL     1      27.571  46.474  55.496  1.00  0.00     0.030 A 
BRANCH  27  31
HETATM   31  O   UNL     1      30.396  43.470  55.050  1.00  0.00    -0.356 OA
HETATM   32  C   UNL     1      30.360  42.874  53.759  1.00  0.00     0.210 C 
ENDBRANCH  27  31
ENDBRANCH   1  25
TORSDOF 2
ENDMDL
MODEL 6
REMARK VINA RESULT:      -8.5     10.808     12.715
REMARK  2 active torsions:
REMARK  status: ('A' for Active; 'I' for Inactive)
REMARK    1  A    between atoms: O_2  and  C_3 
REMARK    2  A    between atoms: C_5  and  N_6 
ROOT
HETATM    1  N   UNL     1      24.318  46.405  50.349  1.00  0.00    -0.252 N 
HETATM    2  C   UNL     1      25.116  46.122  51.435  1.00  0.00     0.239 C 
HETATM    3  O   UNL     1      25.850  46.833  52.101  1.00  0.00    -0.272 OA
HETATM    4  C   UNL     1      25.042  44.659  51.718  1.00  0.00     0.145 C 
HETATM    5  C   UNL     1      23.768  44.220  51.025  1.00  0.00     0.126 C 
HETATM    6  C   UNL     1      23.609  45.284  49.964  1.00  0.00     0.238 C 
HETATM    7  O   UNL     1      22.977  45.078  48.941  1.00  0.00    -0.272 OA
HETATM    8  C   UNL     1      26.205  43.877  51.084  1.00  0.00     0.250 A 
HETATM    9  C   UNL     1      27.253  44.734  50.276  1.00  0.00     0.264 A 
HETATM   10  O   UNL     1      27.022  45.376  49.266  1.00  0.00    -0.270 OA
HETATM   11  N   UNL     1      28.488  44.571  50.873  1.00  0.00    -0.324 N 
HETATM   12  C   UNL     1      28.417  43.711  51.954  1.00  0.00     0.044 A 
HETATM   13  C   UNL     1      27.108  43.252  52.133  1.00  0.00     0.015 A 
HETATM   14  C   UNL     1      29.461  43.322  52.764  1.00  0.00     0.030 A 
HETATM   15  C   UNL     1      29.172  42.426  53.794  1.00  0.00     0.002 A 
HETATM   16  C   UNL     1      27.863  41.948  53.986  1.00  0.00     0.001 A 
HETATM   17  C   UNL     1      26.816  42.360  53.154  1.00  0.00     0.012 A 
HETATM   18  N   UNL     1      25.520  42.783  50.236  1.00  0.00    -0.043 N 
HETATM   19  H   UNL     1      25.937  41.874  50.486  1.00  0.00     0.282 HD
HETATM   20  C   UNL     1      24.049  42.795  50.576  1.00  0.00     0.204 C 
HETATM   21  C   UNL     1      25.576  42.881  48.726  1.00  0.00     0.237 C 
HETATM   22  C   UNL     1      24.429  41.984  48.307  1.00  0.00     0.030 C 
HETATM   23  C   UNL     1      23.348  42.194  49.364  1.00  0.00     0.036 C 
HETATM   24  H   UNL     1      29.328  45.037  50.549  1.00  0.00     0.169 HD
ENDROOT
BRANCH   1  25
HETATM   25  C   UNL     1      24.340  47.643  49.625  1.00  0.00     0.048 A 
HETATM   26  C   UNL     1      25.543  48.314  49.351  1.00  0.00     0.066 A 
HETATM   27  C   UNL     1      25.588  49.486  48.584  1.00  0.00     0.070 A 
HETATM   28  C   UNL     1      24.407  50.035  48.099  1.00  0.00     0.037 A 
HETATM   29  C   UNL     1      23.196  49.408  48.377  1.00  0.00     0.005 A 
HETATM   30  C   UNL     1      23.164  48.227  49.130  1.00  0.00     0.030 A 
BRANCH  27  31
HETATM   31  O   UNL     1      26.845  49.989  48.389  1.00  0.00    -0.356 OA
HETATM   32  C   UNL     1      27.906  49.350  49.089  1.00  0.00     0.210 C 
ENDBRANCH  27  31
ENDBRANCH   1  25
TORSDOF 2
ENDMDL
MODEL 7
REMARK VINA RESULT:      -8.2      3.044      5.084
REMARK  2 active torsions:
REMARK  status: ('A' for Active; 'I' for Inactive)
REMARK    1  A    between atoms: O_2  and  C_3 
REMARK    2  A    between atoms: C_5  and  N_6 
ROOT
HETATM    1  N   UNL     1      34.125  51.926  39.917  1.00  0.00    -0.252 N 
HETATM    2  C   UNL     1      33.114  51.364  39.169  1.00  0.00     0.239 C 
HETATM    3  O   UNL     1      32.838  51.464  37.985  1.00  0.00    -0.272 OA
HETATM    4  C   UNL     1      32.230  50.571  40.072  1.00  0.00     0.145 C 
HETATM    5  C   UNL     1      33.092  50.324  41.295  1.00  0.00     0.126 C 
HETATM    6  C   UNL     1      34.075  51.468  41.219  1.00  0.00     0.238 C 
HETATM    7  O   UNL     1      34.650  51.885  42.211  1.00  0.00    -0.272 OA
HETATM    8  C   UNL     1      30.995  51.364  40.531  1.00  0.00     0.250 A 
HETATM    9  C   UNL     1      30.871  52.833  39.974  1.00  0.00     0.264 A 
HETATM   10  O   UNL     1      31.646  53.748  40.197  1.00  0.00    -0.270 OA
HETATM   11  N   UNL     1      29.698  52.918  39.250  1.00  0.00    -0.324 N 
HETATM   12  C   UNL     1      29.010  51.718  39.262  1.00  0.00     0.044 A 
HETATM   13  C   UNL     1      29.704  50.759  40.007  1.00  0.00     0.015 A 
HETATM   14  C   UNL     1      27.802  51.458  38.652  1.00  0.00     0.030 A 
HETATM   15  C   UNL     1      27.272  50.177  38.805  1.00  0.00     0.002 A 
HETATM   16  C   UNL     1      27.952  49.201  39.556  1.00  0.00     0.001 A 
HETATM   17  C   UNL     1      29.179  49.485  40.164  1.00  0.00     0.012 A 
HETATM   18  N   UNL     1      31.039  51.293  42.074  1.00  0.00    -0.043 N 
HETATM   19  H   UNL     1      30.117  50.973  42.408  1.00  0.00     0.282 HD
HETATM   20  C   UNL     1      32.109  50.299  42.455  1.00  0.00     0.204 C 
HETATM   21  C   UNL     1      31.368  52.546  42.858  1.00  0.00     0.237 C 
HETATM   22  C   UNL     1      31.798  51.978  44.196  1.00  0.00     0.030 C 
HETATM   23  C   UNL     1      32.538  50.686  43.865  1.00  0.00     0.036 C 
HETATM   24  H   UNL     1      29.398  53.760  38.772  1.00  0.00     0.169 HD
ENDROOT
BRANCH   1  25
HETATM   25  C   UNL     1      35.004  52.958  39.449  1.00  0.00     0.048 A 
HETATM   26  C   UNL     1      34.596  54.300  39.385  1.00  0.00     0.066 A 
HETATM   27  C   UNL     1      35.465  55.329  38.998  1.00  0.00     0.070 A 
HETATM   28  C   UNL     1      36.770  55.024  38.630  1.00  0.00     0.037 A 
HETATM   29  C   UNL     1      37.196  53.699  38.657  1.00  0.00     0.005 A 
HETATM   30  C   UNL     1      36.324  52.680  39.061  1.00  0.00     0.030 A 
BRANCH  27  31
HETATM   31  O   UNL     1      34.911  56.580  39.023  1.00  0.00    -0.356 OA
HETATM   32  C   UNL     1      35.583  57.591  38.280  1.00  0.00     0.210 C 
ENDBRANCH  27  31
ENDBRANCH   1  25
TORSDOF 2
ENDMDL
MODEL 8
REMARK VINA RESULT:      -8.1     11.395     13.357
REMARK  2 active torsions:
REMARK  status: ('A' for Active; 'I' for Inactive)
REMARK    1  A    between atoms: O_2  and  C_3 
REMARK    2  A    between atoms: C_5  and  N_6 
ROOT
HETATM    1  N   UNL     1      26.197  46.603  50.635  1.00  0.00    -0.252 N 
HETATM    2  C   UNL     1      26.811  45.515  50.057  1.00  0.00     0.239 C 
HETATM    3  O   UNL     1      26.959  45.201  48.887  1.00  0.00    -0.272 OA
HETATM    4  C   UNL     1      27.283  44.599  51.136  1.00  0.00     0.145 C 
HETATM    5  C   UNL     1      27.328  45.483  52.366  1.00  0.00     0.126 C 
HETATM    6  C   UNL     1      26.336  46.565  52.008  1.00  0.00     0.238 C 
HETATM    7  O   UNL     1      25.763  47.217  52.866  1.00  0.00    -0.272 OA
HETATM    8  C   UNL     1      26.287  43.462  51.421  1.00  0.00     0.250 A 
HETATM    9  C   UNL     1      24.980  43.453  50.540  1.00  0.00     0.264 A 
HETATM   10  O   UNL     1      24.121  44.318  50.530  1.00  0.00    -0.270 OA
HETATM   11  N   UNL     1      24.947  42.264  49.839  1.00  0.00    -0.324 N 
HETATM   12  C   UNL     1      26.038  41.468  50.142  1.00  0.00     0.044 A 
HETATM   13  C   UNL     1      26.864  42.101  51.076  1.00  0.00     0.015 A 
HETATM   14  C   UNL     1      26.309  40.218  49.631  1.00  0.00     0.030 A 
HETATM   15  C   UNL     1      27.461  39.578  50.088  1.00  0.00     0.002 A 
HETATM   16  C   UNL     1      28.302  40.195  51.032  1.00  0.00     0.001 A 
HETATM   17  C   UNL     1      28.009  41.467  51.534  1.00  0.00     0.012 A 
HETATM   18  N   UNL     1      26.006  43.563  52.937  1.00  0.00    -0.043 N 
HETATM   19  H   UNL     1      26.148  42.631  53.353  1.00  0.00     0.282 HD
HETATM   20  C   UNL     1      26.989  44.552  53.519  1.00  0.00     0.204 C 
HETATM   21  C   UNL     1      24.646  44.040  53.402  1.00  0.00     0.237 C 
HETATM   22  C   UNL     1      24.932  44.470  54.827  1.00  0.00     0.030 C 
HETATM   23  C   UNL     1      26.334  45.072  54.792  1.00  0.00     0.036 C 
HETATM   24  H   UNL     1      24.211  42.024  49.183  1.00  0.00     0.169 HD
ENDROOT
BRANCH   1  25
HETATM   25  C   UNL     1      25.393  47.555  49.924  1.00  0.00     0.048 A 
HETATM   26  C   UNL     1      23.996  47.427  49.848  1.00  0.00     0.066 A 
HETATM   27  C   UNL     1      23.190  48.386  49.219  1.00  0.00     0.070 A 
HETATM   28  C   UNL     1      23.781  49.489  48.614  1.00  0.00     0.037 A 
HETATM   29  C   UNL     1      25.166  49.629  48.649  1.00  0.00     0.005 A 
HETATM   30  C   UNL     1      25.960  48.674  49.296  1.00  0.00     0.030 A 
BRANCH  27  31
HETATM   31  O   UNL     1      21.849  48.120  49.265  1.00  0.00    -0.356 OA
HETATM   32  C   UNL     1      20.977  49.152  48.820  1.00  0.00     0.210 C 
ENDBRANCH  27  31
ENDBRANCH   1  25
TORSDOF 2
ENDMDL
MODEL 9
REMARK VINA RESULT:      -8.0     13.426     15.340
REMARK  2 active torsions:
REMARK  status: ('A' for Active; 'I' for Inactive)
REMARK    1  A    between atoms: O_2  and  C_3 
REMARK    2  A    between atoms: C_5  and  N_6 
ROOT
HETATM    1  N   UNL     1      19.165  50.612  46.967  1.00  0.00    -0.252 N 
HETATM    2  C   UNL     1      18.650  51.839  47.323  1.00  0.00     0.239 C 
HETATM    3  O   UNL     1      19.086  52.714  48.053  1.00  0.00    -0.272 OA
HETATM    4  C   UNL     1      17.300  51.992  46.707  1.00  0.00     0.145 C 
HETATM    5  C   UNL     1      17.300  50.977  45.581  1.00  0.00     0.126 C 
HETATM    6  C   UNL     1      18.338  49.987  46.055  1.00  0.00     0.238 C 
HETATM    7  O   UNL     1      18.338  48.828  45.674  1.00  0.00    -0.272 OA
HETATM    8  C   UNL     1      16.165  51.611  47.672  1.00  0.00     0.250 A 
HETATM    9  C   UNL     1      16.610  51.148  49.112  1.00  0.00     0.264 A 
HETATM   10  O   UNL     1      17.275  50.160  49.369  1.00  0.00    -0.270 OA
HETATM   11  N   UNL     1      16.054  52.018  50.029  1.00  0.00    -0.324 N 
HETATM   12  C   UNL     1      15.285  52.985  49.407  1.00  0.00     0.044 A 
HETATM   13  C   UNL     1      15.292  52.802  48.021  1.00  0.00     0.015 A 
HETATM   14  C   UNL     1      14.583  53.998  50.024  1.00  0.00     0.030 A 
HETATM   15  C   UNL     1      13.853  54.859  49.205  1.00  0.00     0.002 A 
HETATM   16  C   UNL     1      13.841  54.688  47.809  1.00  0.00     0.001 A 
HETATM   17  C   UNL     1      14.565  53.655  47.203  1.00  0.00     0.012 A 
HETATM   18  N   UNL     1      15.348  50.545  46.908  1.00  0.00    -0.043 N 
HETATM   19  H   UNL     1      14.356  50.825  46.927  1.00  0.00     0.282 HD
HETATM   20  C   UNL     1      15.856  50.511  45.487  1.00  0.00     0.204 C 
HETATM   21  C   UNL     1      15.397  49.106  47.377  1.00  0.00     0.237 C 
HETATM   22  C   UNL     1      14.927  48.355  46.147  1.00  0.00     0.030 C 
HETATM   23  C   UNL     1      15.503  49.125  44.963  1.00  0.00     0.036 C 
HETATM   24  H   UNL     1      16.208  51.945  51.029  1.00  0.00     0.169 HD
ENDROOT
BRANCH   1  25
HETATM   25  C   UNL     1      20.313  50.005  47.577  1.00  0.00     0.048 A 
HETATM   26  C   UNL     1      21.619  50.353  47.195  1.00  0.00     0.066 A 
HETATM   27  C   UNL     1      22.750  49.822  47.830  1.00  0.00     0.070 A 
HETATM   28  C   UNL     1      22.592  48.894  48.851  1.00  0.00     0.037 A 
HETATM   29  C   UNL     1      21.310  48.509  49.234  1.00  0.00     0.005 A 
HETATM   30  C   UNL     1      20.186  49.059  48.604  1.00  0.00     0.030 A 
BRANCH  27  31
HETATM   31  O   UNL     1      23.943  50.293  47.353  1.00  0.00    -0.356 OA
HETATM   32  C   UNL     1      25.108  49.958  48.098  1.00  0.00     0.210 C 
ENDBRANCH  27  31
ENDBRANCH   1  25
TORSDOF 2
ENDMDL
MODEL 10
REMARK VINA RESULT:      -7.9     24.914     27.174
REMARK  2 active torsions:
REMARK  status: ('A' for Active; 'I' for Inactive)
REMARK    1  A    between atoms: O_2  and  C_3 
REMARK    2  A    between atoms: C_5  and  N_6 
ROOT
HETATM    1  N   UNL     1      40.091  42.365  65.316  1.00  0.00    -0.252 N 
HETATM    2  C   UNL     1      39.000  43.029  65.830  1.00  0.00     0.239 C 
HETATM    3  O   UNL     1      37.808  42.768  65.795  1.00  0.00    -0.272 OA
HETATM    4  C   UNL     1      39.462  44.301  66.459  1.00  0.00     0.145 C 
HETATM    5  C   UNL     1      40.941  44.070  66.696  1.00  0.00     0.126 C 
HETATM    6  C   UNL     1      41.260  43.012  65.665  1.00  0.00     0.238 C 
HETATM    7  O   UNL     1      42.391  42.860  65.234  1.00  0.00    -0.272 OA
HETATM    8  C   UNL     1      39.329  45.507  65.514  1.00  0.00     0.250 A 
HETATM    9  C   UNL     1      38.732  45.203  64.087  1.00  0.00     0.264 A 
HETATM   10  O   UNL     1      39.239  44.487  63.239  1.00  0.00    -0.270 OA
HETATM   11  N   UNL     1      37.576  45.944  63.941  1.00  0.00    -0.324 N 
HETATM   12  C   UNL     1      37.327  46.716  65.062  1.00  0.00     0.044 A 
HETATM   13  C   UNL     1      38.322  46.522  66.025  1.00  0.00     0.015 A 
HETATM   14  C   UNL     1      36.268  47.577  65.246  1.00  0.00     0.030 A 
HETATM   15  C   UNL     1      36.216  48.277  66.452  1.00  0.00     0.002 A 
HETATM   16  C   UNL     1      37.211  48.100  67.430  1.00  0.00     0.001 A 
HETATM   17  C   UNL     1      38.276  47.217  67.224  1.00  0.00     0.012 A 
HETATM   18  N   UNL     1      40.745  46.123  65.469  1.00  0.00    -0.043 N 
HETATM   19  H   UNL     1      40.664  47.131  65.670  1.00  0.00     0.282 HD
HETATM   20  C   UNL     1      41.573  45.443  66.534  1.00  0.00     0.204 C 
HETATM   21  C   UNL     1      41.561  46.001  64.199  1.00  0.00     0.237 C 
HETATM   22  C   UNL     1      42.969  46.246  64.702  1.00  0.00     0.030 C 
HETATM   23  C   UNL     1      43.020  45.601  66.084  1.00  0.00     0.036 C 
HETATM   24  H   UNL     1      36.993  45.909  63.112  1.00  0.00     0.169 HD
ENDROOT
BRANCH   1  25
HETATM   25  C   UNL     1      40.014  41.250  64.417  1.00  0.00     0.048 A 
HETATM   26  C   UNL     1      40.534  39.991  64.759  1.00  0.00     0.066 A 
HETATM   27  C   UNL     1      40.403  38.875  63.921  1.00  0.00     0.070 A 
HETATM   28  C   UNL     1      39.769  39.010  62.691  1.00  0.00     0.037 A 
HETATM   29  C   UNL     1      39.268  40.252  62.313  1.00  0.00     0.005 A 
HETATM   30  C   UNL     1      39.389  41.357  63.166  1.00  0.00     0.030 A 
BRANCH  27  31
HETATM   31  O   UNL     1      40.939  37.721  64.423  1.00  0.00    -0.356 OA
HETATM   32  C   UNL     1      42.354  37.687  64.575  1.00  0.00     0.210 C 
ENDBRANCH  27  31
ENDBRANCH   1  25
TORSDOF 2
ENDMDL
