MODEL 1
REMARK VINA RESULT:      -7.8      0.000      0.000
REMARK  4 active torsions:
REMARK  status: ('A' for Active; 'I' for Inactive)
REMARK    1  A    between atoms: S_2  and  N_3 
REMARK    2  A    between atoms: N_3  and  N_4 
REMARK    3  A    between atoms: C_10  and  C_11 
REMARK    4  A    between atoms: C_14  and  O_15 
ROOT
HETATM    1  N   UNL     1      24.420  46.149  50.375  1.00  0.00    -0.224 N 
HETATM    2  C   UNL     1      23.954  47.193  49.578  1.00  0.00     0.276 C 
HETATM    3  O   UNL     1      22.822  47.290  49.119  1.00  0.00    -0.266 OA
HETATM    4  C   UNL     1      24.956  48.231  49.231  1.00  0.00     0.055 A 
HETATM    5  C   UNL     1      26.287  48.043  49.627  1.00  0.00     0.026 A 
HETATM    6  N   UNL     1      26.675  46.898  50.343  1.00  0.00    -0.265 NA
HETATM    7  C   UNL     1      25.614  46.366  51.192  1.00  0.00     0.222 C 
HETATM    8  C   UNL     1      24.581  49.345  48.469  1.00  0.00     0.019 A 
HETATM    9  C   UNL     1      25.549  50.262  48.063  1.00  0.00     0.001 A 
HETATM   10  C   UNL     1      26.885  50.053  48.400  1.00  0.00     0.002 A 
HETATM   11  C   UNL     1      27.253  48.942  49.165  1.00  0.00     0.024 A 
HETATM   12  H   UNL     1      27.540  47.038  50.857  1.00  0.00     0.130 HD
ENDROOT
BRANCH   7  13
HETATM   13  C   UNL     1      26.138  45.120  51.893  1.00  0.00    -0.019 A 
HETATM   14  C   UNL     1      26.866  44.156  51.170  1.00  0.00     0.013 A 
HETATM   15  C   UNL     1      27.390  43.030  51.808  1.00  0.00     0.037 A 
HETATM   16  C   UNL     1      27.190  42.862  53.173  1.00  0.00     0.065 A 
HETATM   17  C   UNL     1      26.476  43.800  53.909  1.00  0.00     0.037 A 
HETATM   18  C   UNL     1      25.953  44.926  53.273  1.00  0.00     0.013 A 
BRANCH  16  19
HETATM   19  O   UNL     1      27.688  41.782  53.838  1.00  0.00    -0.361 OA
HETATM   20  H   UNL     1      27.935  42.051  54.738  1.00  0.00     0.217 HD
ENDBRANCH  16  19
ENDBRANCH   7  13
BRANCH   1  21
HETATM   21  N   UNL     1      23.512  45.060  50.819  1.00  0.00    -0.220 N 
HETATM   22  H   UNL     1      23.610  44.731  51.785  1.00  0.00     0.200 HD
BRANCH  21  23
HETATM   23  S   UNL     1      22.996  43.782  49.849  1.00  0.00     0.240 S 
HETATM   24  C   UNL     1      24.251  43.645  48.585  1.00  0.00     0.187 C 
HETATM   25  O   UNL     1      21.710  44.085  49.266  1.00  0.00    -0.205 OA
HETATM   26  O   UNL     1      23.144  42.619  50.705  1.00  0.00    -0.205 OA
ENDBRANCH  21  23
ENDBRANCH   1  21
TORSDOF 4
ENDMDL
MODEL 2
REMARK VINA RESULT:      -7.6      3.027      5.917
REMARK  4 active torsions:
REMARK  status: ('A' for Active; 'I' for Inactive)
REMARK    1  A    between atoms: S_2  and  N_3 
REMARK    2  A    between atoms: N_3  and  N_4 
REMARK    3  A    between atoms: C_10  and  C_11 
REMARK    4  A    between atoms: C_14  and  O_15 
ROOT
HETATM    1  N   UNL     1      26.696  44.899  52.416  1.00  0.00    -0.224 N 
HETATM    2  C   UNL     1      27.305  45.516  53.507  1.00  0.00     0.276 C 
HETATM    3  O   UNL     1      27.048  46.637  53.928  1.00  0.00    -0.266 OA
HETATM    4  C   UNL     1      28.392  44.742  54.156  1.00  0.00     0.055 A 
HETATM    5  C   UNL     1      28.790  43.527  53.582  1.00  0.00     0.026 A 
HETATM    6  N   UNL     1      28.176  43.040  52.416  1.00  0.00    -0.265 NA
HETATM    7  C   UNL     1      26.779  43.444  52.293  1.00  0.00     0.222 C 
HETATM    8  C   UNL     1      29.042  45.253  55.287  1.00  0.00     0.019 A 
HETATM    9  C   UNL     1      30.128  44.566  55.829  1.00  0.00     0.001 A 
HETATM   10  C   UNL     1      30.570  43.388  55.230  1.00  0.00     0.002 A 
HETATM   11  C   UNL     1      29.915  42.880  54.105  1.00  0.00     0.024 A 
HETATM   12  H   UNL     1      28.294  42.037  52.307  1.00  0.00     0.130 HD
ENDROOT
BRANCH   7  13
HETATM   13  C   UNL     1      26.230  42.884  50.987  1.00  0.00    -0.019 A 
HETATM   14  C   UNL     1      27.108  42.549  49.939  1.00  0.00     0.013 A 
HETATM   15  C   UNL     1      26.623  41.995  48.752  1.00  0.00     0.037 A 
HETATM   16  C   UNL     1      25.259  41.772  48.608  1.00  0.00     0.065 A 
HETATM   17  C   UNL     1      24.373  42.094  49.629  1.00  0.00     0.037 A 
HETATM   18  C   UNL     1      24.855  42.646  50.816  1.00  0.00     0.013 A 
BRANCH  16  19
HETATM   19  O   UNL     1      24.743  41.229  47.470  1.00  0.00    -0.361 OA
HETATM   20  H   UNL     1      25.435  40.712  47.025  1.00  0.00     0.217 HD
ENDBRANCH  16  19
ENDBRANCH   7  13
BRANCH   1  21
HETATM   21  N   UNL     1      25.574  45.553  51.694  1.00  0.00    -0.220 N 
HETATM   22  H   UNL     1      24.709  45.014  51.581  1.00  0.00     0.200 HD
BRANCH  21  23
HETATM   23  S   UNL     1      25.751  46.595  50.382  1.00  0.00     0.240 S 
HETATM   24  C   UNL     1      24.107  46.735  49.698  1.00  0.00     0.187 C 
HETATM   25  O   UNL     1      26.664  46.030  49.415  1.00  0.00    -0.205 OA
HETATM   26  O   UNL     1      26.052  47.875  50.997  1.00  0.00    -0.205 OA
ENDBRANCH  21  23
ENDBRANCH   1  21
TORSDOF 4
ENDMDL
MODEL 3
REMARK VINA RESULT:      -7.5      3.196      6.554
REMARK  4 active torsions:
REMARK  status: ('A' for Active; 'I' for Inactive)
REMARK    1  A    between atoms: S_2  and  N_3 
REMARK    2  A    between atoms: N_3  and  N_4 
REMARK    3  A    between atoms: C_10  and  C_11 
REMARK    4  A    between atoms: C_14  and  O_15 
ROOT
HETATM    1  N   UNL     1      27.502  42.750  52.602  1.00  0.00    -0.224 N 
HETATM    2  C   UNL     1      28.488  42.214  53.429  1.00  0.00     0.276 C 
HETATM    3  O   UNL     1      28.778  41.027  53.517  1.00  0.00    -0.266 OA
HETATM    4  C   UNL     1      29.188  43.186  54.304  1.00  0.00     0.055 A 
HETATM    5  C   UNL     1      28.753  44.519  54.315  1.00  0.00     0.026 A 
HETATM    6  N   UNL     1      27.677  44.937  53.515  1.00  0.00    -0.265 NA
HETATM    7  C   UNL     1      27.554  44.175  52.276  1.00  0.00     0.222 C 
HETATM    8  C   UNL     1      30.225  42.759  55.143  1.00  0.00     0.019 A 
HETATM    9  C   UNL     1      30.809  43.660  56.033  1.00  0.00     0.001 A 
HETATM   10  C   UNL     1      30.343  44.971  56.096  1.00  0.00     0.002 A 
HETATM   11  C   UNL     1      29.311  45.394  55.252  1.00  0.00     0.024 A 
HETATM   12  H   UNL     1      27.686  45.939  53.346  1.00  0.00     0.130 HD
ENDROOT
BRANCH   7  13
HETATM   13  C   UNL     1      26.346  44.696  51.509  1.00  0.00    -0.019 A 
HETATM   14  C   UNL     1      26.527  45.504  50.372  1.00  0.00     0.013 A 
HETATM   15  C   UNL     1      25.430  45.954  49.633  1.00  0.00     0.037 A 
HETATM   16  C   UNL     1      24.146  45.597  50.029  1.00  0.00     0.065 A 
HETATM   17  C   UNL     1      23.942  44.800  51.148  1.00  0.00     0.037 A 
HETATM   18  C   UNL     1      25.036  44.348  51.886  1.00  0.00     0.013 A 
BRANCH  16  19
HETATM   19  O   UNL     1      23.048  46.009  49.336  1.00  0.00    -0.361 OA
HETATM   20  H   UNL     1      22.357  45.330  49.406  1.00  0.00     0.217 HD
ENDBRANCH  16  19
ENDBRANCH   7  13
BRANCH   1  21
HETATM   21  N   UNL     1      26.745  41.890  51.656  1.00  0.00    -0.220 N 
HETATM   22  H   UNL     1      26.091  41.209  52.059  1.00  0.00     0.200 HD
BRANCH  21  23
HETATM   23  S   UNL     1      27.356  41.280  50.210  1.00  0.00     0.240 S 
HETATM   24  C   UNL     1      26.062  40.215  49.591  1.00  0.00     0.187 C 
HETATM   25  O   UNL     1      28.566  40.530  50.455  1.00  0.00    -0.205 OA
HETATM   26  O   UNL     1      27.390  42.438  49.335  1.00  0.00    -0.205 OA
ENDBRANCH  21  23
ENDBRANCH   1  21
TORSDOF 4
ENDMDL
MODEL 4
REMARK VINA RESULT:      -7.4      3.964      6.006
REMARK  4 active torsions:
REMARK  status: ('A' for Active; 'I' for Inactive)
REMARK    1  A    between atoms: S_2  and  N_3 
REMARK    2  A    between atoms: N_3  and  N_4 
REMARK    3  A    between atoms: C_10  and  C_11 
REMARK    4  A    between atoms: C_14  and  O_15 
ROOT
HETATM    1  N   UNL     1      21.363  48.286  49.019  1.00  0.00    -0.224 N 
HETATM    2  C   UNL     1      19.978  48.430  49.086  1.00  0.00     0.276 C 
HETATM    3  O   UNL     1      19.168  47.513  49.159  1.00  0.00    -0.266 OA
HETATM    4  C   UNL     1      19.473  49.823  49.005  1.00  0.00     0.055 A 
HETATM    5  C   UNL     1      20.387  50.859  48.768  1.00  0.00     0.026 A 
HETATM    6  N   UNL     1      21.758  50.594  48.613  1.00  0.00    -0.265 NA
HETATM    7  C   UNL     1      22.206  49.429  49.369  1.00  0.00     0.222 C 
HETATM    8  C   UNL     1      18.100  50.081  49.104  1.00  0.00     0.019 A 
HETATM    9  C   UNL     1      17.627  51.380  48.926  1.00  0.00     0.001 A 
HETATM   10  C   UNL     1      18.521  52.408  48.630  1.00  0.00     0.002 A 
HETATM   11  C   UNL     1      19.891  52.146  48.537  1.00  0.00     0.024 A 
HETATM   12  H   UNL     1      22.333  51.412  48.797  1.00  0.00     0.130 HD
ENDROOT
BRANCH   7  13
HETATM   13  C   UNL     1      23.692  49.226  49.104  1.00  0.00    -0.019 A 
HETATM   14  C   UNL     1      24.361  50.046  48.176  1.00  0.00     0.013 A 
HETATM   15  C   UNL     1      25.733  49.901  47.954  1.00  0.00     0.037 A 
HETATM   16  C   UNL     1      26.442  48.935  48.660  1.00  0.00     0.065 A 
HETATM   17  C   UNL     1      25.803  48.114  49.581  1.00  0.00     0.037 A 
HETATM   18  C   UNL     1      24.434  48.259  49.805  1.00  0.00     0.013 A 
BRANCH  16  19
HETATM   19  O   UNL     1      27.781  48.762  48.479  1.00  0.00    -0.361 OA
HETATM   20  H   UNL     1      27.923  48.057  47.826  1.00  0.00     0.217 HD
ENDBRANCH  16  19
ENDBRANCH   7  13
BRANCH   1  21
HETATM   21  N   UNL     1      22.000  46.948  49.119  1.00  0.00    -0.220 N 
HETATM   22  H   UNL     1      22.856  46.875  49.678  1.00  0.00     0.200 HD
BRANCH  21  23
HETATM   23  S   UNL     1      22.054  45.813  47.874  1.00  0.00     0.240 S 
HETATM   24  C   UNL     1      23.526  44.856  48.207  1.00  0.00     0.187 C 
HETATM   25  O   UNL     1      22.152  46.478  46.596  1.00  0.00    -0.205 OA
HETATM   26  O   UNL     1      20.926  44.944  48.152  1.00  0.00    -0.205 OA
ENDBRANCH  21  23
ENDBRANCH   1  21
TORSDOF 4
ENDMDL
MODEL 5
REMARK VINA RESULT:      -7.3     11.832     13.014
REMARK  4 active torsions:
REMARK  status: ('A' for Active; 'I' for Inactive)
REMARK    1  A    between atoms: S_2  and  N_3 
REMARK    2  A    between atoms: N_3  and  N_4 
REMARK    3  A    between atoms: C_10  and  C_11 
REMARK    4  A    between atoms: C_14  and  O_15 
ROOT
HETATM    1  N   UNL     1      30.101  50.554  39.665  1.00  0.00    -0.224 N 
HETATM    2  C   UNL     1      29.105  50.085  38.810  1.00  0.00     0.276 C 
HETATM    3  O   UNL     1      28.503  50.756  37.980  1.00  0.00    -0.266 OA
HETATM    4  C   UNL     1      28.728  48.661  38.985  1.00  0.00     0.055 A 
HETATM    5  C   UNL     1      29.307  47.934  40.034  1.00  0.00     0.026 A 
HETATM    6  N   UNL     1      30.229  48.533  40.908  1.00  0.00    -0.265 NA
HETATM    7  C   UNL     1      31.015  49.589  40.277  1.00  0.00     0.222 C 
HETATM    8  C   UNL     1      27.767  48.078  38.149  1.00  0.00     0.019 A 
HETATM    9  C   UNL     1      27.348  46.770  38.385  1.00  0.00     0.001 A 
HETATM   10  C   UNL     1      27.871  46.059  39.463  1.00  0.00     0.002 A 
HETATM   11  C   UNL     1      28.834  46.643  40.291  1.00  0.00     0.024 A 
HETATM   12  H   UNL     1      30.818  47.850  41.377  1.00  0.00     0.130 HD
ENDROOT
BRANCH   7  13
HETATM   13  C   UNL     1      31.955  50.178  41.320  1.00  0.00    -0.019 A 
HETATM   14  C   UNL     1      33.246  50.596  40.950  1.00  0.00     0.013 A 
HETATM   15  C   UNL     1      34.105  51.178  41.887  1.00  0.00     0.037 A 
HETATM   16  C   UNL     1      33.674  51.344  43.198  1.00  0.00     0.065 A 
HETATM   17  C   UNL     1      32.403  50.939  43.587  1.00  0.00     0.037 A 
HETATM   18  C   UNL     1      31.544  50.360  42.653  1.00  0.00     0.013 A 
BRANCH  16  19
HETATM   19  O   UNL     1      34.475  51.911  44.143  1.00  0.00    -0.361 OA
HETATM   20  H   UNL     1      34.642  51.262  44.846  1.00  0.00     0.217 HD
ENDBRANCH  16  19
ENDBRANCH   7  13
BRANCH   1  21
HETATM   21  N   UNL     1      30.592  51.953  39.575  1.00  0.00    -0.220 N 
HETATM   22  H   UNL     1      31.592  52.090  39.393  1.00  0.00     0.200 HD
BRANCH  21  23
HETATM   23  S   UNL     1      30.018  53.236  40.503  1.00  0.00     0.240 S 
HETATM   24  C   UNL     1      28.863  52.482  41.640  1.00  0.00     0.187 C 
HETATM   25  O   UNL     1      29.353  54.204  39.662  1.00  0.00    -0.205 OA
HETATM   26  O   UNL     1      31.171  53.634  41.291  1.00  0.00    -0.205 OA
ENDBRANCH  21  23
ENDBRANCH   1  21
TORSDOF 4
ENDMDL
MODEL 6
REMARK VINA RESULT:      -7.3      3.728      7.167
REMARK  4 active torsions:
REMARK  status: ('A' for Active; 'I' for Inactive)
REMARK    1  A    between atoms: S_2  and  N_3 
REMARK    2  A    between atoms: N_3  and  N_4 
REMARK    3  A    between atoms: C_10  and  C_11 
REMARK    4  A    between atoms: C_14  and  O_15 
ROOT
HETATM    1  N   UNL     1      22.440  48.322  49.095  1.00  0.00    -0.224 N 
HETATM    2  C   UNL     1      23.615  47.642  49.408  1.00  0.00     0.276 C 
HETATM    3  O   UNL     1      23.682  46.543  49.946  1.00  0.00    -0.266 OA
HETATM    4  C   UNL     1      24.875  48.363  49.101  1.00  0.00     0.055 A 
HETATM    5  C   UNL     1      24.799  49.681  48.628  1.00  0.00     0.026 A 
HETATM    6  N   UNL     1      23.559  50.314  48.442  1.00  0.00    -0.265 NA
HETATM    7  C   UNL     1      22.488  49.386  48.092  1.00  0.00     0.222 C 
HETATM    8  C   UNL     1      26.113  47.753  49.339  1.00  0.00     0.019 A 
HETATM    9  C   UNL     1      27.289  48.475  49.142  1.00  0.00     0.001 A 
HETATM   10  C   UNL     1      27.223  49.804  48.730  1.00  0.00     0.002 A 
HETATM   11  C   UNL     1      25.985  50.408  48.489  1.00  0.00     0.024 A 
HETATM   12  H   UNL     1      23.616  51.093  47.791  1.00  0.00     0.130 HD
ENDROOT
BRANCH   7  13
HETATM   13  C   UNL     1      21.196  50.177  47.942  1.00  0.00    -0.019 A 
HETATM   14  C   UNL     1      20.916  51.244  48.817  1.00  0.00     0.013 A 
HETATM   15  C   UNL     1      19.756  52.007  48.665  1.00  0.00     0.037 A 
HETATM   16  C   UNL     1      18.869  51.706  47.638  1.00  0.00     0.065 A 
HETATM   17  C   UNL     1      19.123  50.658  46.762  1.00  0.00     0.037 A 
HETATM   18  C   UNL     1      20.283  49.896  46.910  1.00  0.00     0.013 A 
BRANCH  16  19
HETATM   19  O   UNL     1      17.728  52.426  47.449  1.00  0.00    -0.361 OA
HETATM   20  H   UNL     1      17.892  53.108  46.777  1.00  0.00     0.217 HD
ENDBRANCH  16  19
ENDBRANCH   7  13
BRANCH   1  21
HETATM   21  N   UNL     1      21.110  47.700  49.325  1.00  0.00    -0.220 N 
HETATM   22  H   UNL     1      20.785  47.630  50.295  1.00  0.00     0.200 HD
BRANCH  21  23
HETATM   23  S   UNL     1      20.484  46.412  48.438  1.00  0.00     0.240 S 
HETATM   24  C   UNL     1      18.752  46.805  48.242  1.00  0.00     0.187 C 
HETATM   25  O   UNL     1      20.651  45.176  49.166  1.00  0.00    -0.205 OA
HETATM   26  O   UNL     1      21.092  46.568  47.129  1.00  0.00    -0.205 OA
ENDBRANCH  21  23
ENDBRANCH   1  21
TORSDOF 4
ENDMDL
MODEL 7
REMARK VINA RESULT:      -7.3      4.620      6.611
REMARK  4 active torsions:
REMARK  status: ('A' for Active; 'I' for Inactive)
REMARK    1  A    between atoms: S_2  and  N_3 
REMARK    2  A    between atoms: N_3  and  N_4 
REMARK    3  A    between atoms: C_10  and  C_11 
REMARK    4  A    between atoms: C_14  and  O_15 
ROOT
HETATM    1  N   UNL     1      28.031  44.591  53.351  1.00  0.00    -0.224 N 
HETATM    2  C   UNL     1      27.361  44.280  52.170  1.00  0.00     0.276 C 
HETATM    3  O   UNL     1      26.540  44.993  51.605  1.00  0.00    -0.266 OA
HETATM    4  C   UNL     1      27.649  42.939  51.603  1.00  0.00     0.055 A 
HETATM    5  C   UNL     1      28.469  42.063  52.328  1.00  0.00     0.026 A 
HETATM    6  N   UNL     1      29.015  42.439  53.566  1.00  0.00    -0.265 NA
HETATM    7  C   UNL     1      29.265  43.873  53.671  1.00  0.00     0.222 C 
HETATM    8  C   UNL     1      27.059  42.543  50.396  1.00  0.00     0.019 A 
HETATM    9  C   UNL     1      27.256  41.246  49.924  1.00  0.00     0.001 A 
HETATM   10  C   UNL     1      28.020  40.348  50.667  1.00  0.00     0.002 A 
HETATM   11  C   UNL     1      28.610  40.749  51.869  1.00  0.00     0.024 A 
HETATM   12  H   UNL     1      29.836  41.891  53.809  1.00  0.00     0.130 HD
ENDROOT
BRANCH   7  13
HETATM   13  C   UNL     1      29.829  44.163  55.056  1.00  0.00    -0.019 A 
HETATM   14  C   UNL     1      30.711  43.251  55.663  1.00  0.00     0.013 A 
HETATM   15  C   UNL     1      31.270  43.524  56.915  1.00  0.00     0.037 A 
HETATM   16  C   UNL     1      30.949  44.710  57.563  1.00  0.00     0.065 A 
HETATM   17  C   UNL     1      30.080  45.626  56.983  1.00  0.00     0.037 A 
HETATM   18  C   UNL     1      29.523  45.357  55.733  1.00  0.00     0.013 A 
BRANCH  16  19
HETATM   19  O   UNL     1      31.474  45.019  58.781  1.00  0.00    -0.361 OA
HETATM   20  H   UNL     1      30.962  45.748  59.171  1.00  0.00     0.217 HD
ENDBRANCH  16  19
ENDBRANCH   7  13
BRANCH   1  21
HETATM   21  N   UNL     1      27.855  45.913  54.007  1.00  0.00    -0.220 N 
HETATM   22  H   UNL     1      28.497  46.147  54.772  1.00  0.00     0.200 HD
BRANCH  21  23
HETATM   23  S   UNL     1      26.371  46.661  54.280  1.00  0.00     0.240 S 
HETATM   24  C   UNL     1      26.679  47.780  55.639  1.00  0.00     0.187 C 
HETATM   25  O   UNL     1      25.374  45.679  54.639  1.00  0.00    -0.205 OA
HETATM   26  O   UNL     1      26.180  47.487  53.102  1.00  0.00    -0.205 OA
ENDBRANCH  21  23
ENDBRANCH   1  21
TORSDOF 4
ENDMDL
MODEL 8
REMARK VINA RESULT:      -7.2      3.506      6.177
REMARK  4 active torsions:
REMARK  status: ('A' for Active; 'I' for Inactive)
REMARK    1  A    between atoms: S_2  and  N_3 
REMARK    2  A    between atoms: N_3  and  N_4 
REMARK    3  A    between atoms: C_10  and  C_11 
REMARK    4  A    between atoms: C_14  and  O_15 
ROOT
HETATM    1  N   UNL     1      26.507  42.587  51.726  1.00  0.00    -0.224 N 
HETATM    2  C   UNL     1      26.685  43.371  52.865  1.00  0.00     0.276 C 
HETATM    3  O   UNL     1      25.848  44.120  53.355  1.00  0.00    -0.266 OA
HETATM    4  C   UNL     1      28.034  43.310  53.481  1.00  0.00     0.055 A 
HETATM    5  C   UNL     1      29.037  42.574  52.835  1.00  0.00     0.026 A 
HETATM    6  N   UNL     1      28.780  41.900  51.630  1.00  0.00    -0.265 NA
HETATM    7  C   UNL     1      27.397  41.447  51.510  1.00  0.00     0.222 C 
HETATM    8  C   UNL     1      28.306  44.027  54.652  1.00  0.00     0.019 A 
HETATM    9  C   UNL     1      29.602  44.044  55.167  1.00  0.00     0.001 A 
HETATM   10  C   UNL     1      30.620  43.365  54.499  1.00  0.00     0.002 A 
HETATM   11  C   UNL     1      30.342  42.647  53.333  1.00  0.00     0.024 A 
HETATM   12  H   UNL     1      29.443  41.149  51.457  1.00  0.00     0.130 HD
ENDROOT
BRANCH   7  13
HETATM   13  C   UNL     1      27.232  40.759  50.162  1.00  0.00    -0.019 A 
HETATM   14  C   UNL     1      27.749  41.356  48.997  1.00  0.00     0.013 A 
HETATM   15  C   UNL     1      27.643  40.716  47.759  1.00  0.00     0.037 A 
HETATM   16  C   UNL     1      27.020  39.476  47.682  1.00  0.00     0.065 A 
HETATM   17  C   UNL     1      26.502  38.866  48.818  1.00  0.00     0.037 A 
HETATM   18  C   UNL     1      26.608  39.503  50.055  1.00  0.00     0.013 A 
BRANCH  16  19
HETATM   19  O   UNL     1      26.899  38.814  46.497  1.00  0.00    -0.361 OA
HETATM   20  H   UNL     1      27.392  39.296  45.814  1.00  0.00     0.217 HD
ENDBRANCH  16  19
ENDBRANCH   7  13
BRANCH   1  21
HETATM   21  N   UNL     1      25.195  42.535  51.030  1.00  0.00    -0.220 N 
HETATM   22  H   UNL     1      24.813  41.607  50.817  1.00  0.00     0.200 HD
BRANCH  21  23
HETATM   23  S   UNL     1      24.686  43.627  49.852  1.00  0.00     0.240 S 
HETATM   24  C   UNL     1      26.110  44.667  49.563  1.00  0.00     0.187 C 
HETATM   25  O   UNL     1      23.572  44.405  50.341  1.00  0.00    -0.205 OA
HETATM   26  O   UNL     1      24.529  42.804  48.667  1.00  0.00    -0.205 OA
ENDBRANCH  21  23
ENDBRANCH   1  21
TORSDOF 4
ENDMDL
MODEL 9
REMARK VINA RESULT:      -7.0     18.409     19.323
REMARK  4 active torsions:
REMARK  status: ('A' for Active; 'I' for Inactive)
REMARK    1  A    between atoms: S_2  and  N_3 
REMARK    2  A    between atoms: N_3  and  N_4 
REMARK    3  A    between atoms: C_10  and  C_11 
REMARK    4  A    between atoms: C_14  and  O_15 
ROOT
HETATM    1  N   UNL     1      37.002  45.646  64.923  1.00  0.00    -0.224 N 
HETATM    2  C   UNL     1      36.591  46.895  65.386  1.00  0.00     0.276 C 
HETATM    3  O   UNL     1      35.446  47.200  65.698  1.00  0.00    -0.266 OA
HETATM    4  C   UNL     1      37.646  47.937  65.443  1.00  0.00     0.055 A 
HETATM    5  C   UNL     1      38.920  47.634  64.943  1.00  0.00     0.026 A 
HETATM    6  N   UNL     1      39.204  46.369  64.399  1.00  0.00    -0.265 NA
HETATM    7  C   UNL     1      38.420  45.297  65.004  1.00  0.00     0.222 C 
HETATM    8  C   UNL     1      37.349  49.215  65.933  1.00  0.00     0.019 A 
HETATM    9  C   UNL     1      38.320  50.214  65.888  1.00  0.00     0.001 A 
HETATM   10  C   UNL     1      39.570  49.941  65.338  1.00  0.00     0.002 A 
HETATM   11  C   UNL     1      39.864  48.662  64.854  1.00  0.00     0.024 A 
HETATM   12  H   UNL     1      40.199  46.162  64.402  1.00  0.00     0.130 HD
ENDROOT
BRANCH   7  13
HETATM   13  C   UNL     1      38.791  43.987  64.322  1.00  0.00    -0.019 A 
HETATM   14  C   UNL     1      39.386  42.949  65.063  1.00  0.00     0.013 A 
HETATM   15  C   UNL     1      39.693  41.726  64.461  1.00  0.00     0.037 A 
HETATM   16  C   UNL     1      39.406  41.536  63.114  1.00  0.00     0.065 A 
HETATM   17  C   UNL     1      38.818  42.545  62.362  1.00  0.00     0.037 A 
HETATM   18  C   UNL     1      38.509  43.766  62.962  1.00  0.00     0.013 A 
BRANCH  16  19
HETATM   19  O   UNL     1      39.683  40.359  62.488  1.00  0.00    -0.361 OA
HETATM   20  H   UNL     1      38.885  39.804  62.489  1.00  0.00     0.217 HD
ENDBRANCH  16  19
ENDBRANCH   7  13
BRANCH   1  21
HETATM   21  N   UNL     1      36.051  44.507  64.845  1.00  0.00    -0.220 N 
HETATM   22  H   UNL     1      35.203  44.640  64.283  1.00  0.00     0.200 HD
BRANCH  21  23
HETATM   23  S   UNL     1      35.716  43.445  66.109  1.00  0.00     0.240 S 
HETATM   24  C   UNL     1      33.934  43.317  66.125  1.00  0.00     0.187 C 
HETATM   25  O   UNL     1      36.204  43.983  67.357  1.00  0.00    -0.205 OA
HETATM   26  O   UNL     1      36.216  42.170  65.628  1.00  0.00    -0.205 OA
ENDBRANCH  21  23
ENDBRANCH   1  21
TORSDOF 4
ENDMDL
MODEL 10
REMARK VINA RESULT:      -6.8      3.715      6.542
REMARK  4 active torsions:
REMARK  status: ('A' for Active; 'I' for Inactive)
REMARK    1  A    between atoms: S_2  and  N_3 
REMARK    2  A    between atoms: N_3  and  N_4 
REMARK    3  A    between atoms: C_10  and  C_11 
REMARK    4  A    between atoms: C_14  and  O_15 
ROOT
HETATM    1  N   UNL     1      26.638  41.693  51.259  1.00  0.00    -0.224 N 
HETATM    2  C   UNL     1      26.175  40.866  50.238  1.00  0.00     0.276 C 
HETATM    3  O   UNL     1      25.029  40.841  49.804  1.00  0.00    -0.266 OA
HETATM    4  C   UNL     1      27.166  39.908  49.689  1.00  0.00     0.055 A 
HETATM    5  C   UNL     1      28.431  39.830  50.287  1.00  0.00     0.026 A 
HETATM    6  N   UNL     1      28.765  40.641  51.384  1.00  0.00    -0.265 NA
HETATM    7  C   UNL     1      28.077  41.929  51.376  1.00  0.00     0.222 C 
HETATM    8  C   UNL     1      26.815  39.060  48.631  1.00  0.00     0.019 A 
HETATM    9  C   UNL     1      27.720  38.096  48.189  1.00  0.00     0.001 A 
HETATM   10  C   UNL     1      28.957  37.969  48.817  1.00  0.00     0.002 A 
HETATM   11  C   UNL     1      29.305  38.821  49.869  1.00  0.00     0.024 A 
HETATM   12  H   UNL     1      29.770  40.747  51.495  1.00  0.00     0.130 HD
ENDROOT
BRANCH   7  13
HETATM   13  C   UNL     1      28.495  42.705  52.618  1.00  0.00    -0.019 A 
HETATM   14  C   UNL     1      29.312  42.096  53.589  1.00  0.00     0.013 A 
HETATM   15  C   UNL     1      29.740  42.809  54.712  1.00  0.00     0.037 A 
HETATM   16  C   UNL     1      29.351  44.135  54.868  1.00  0.00     0.065 A 
HETATM   17  C   UNL     1      28.545  44.757  53.924  1.00  0.00     0.037 A 
HETATM   18  C   UNL     1      28.119  44.047  52.801  1.00  0.00     0.013 A 
BRANCH  16  19
HETATM   19  O   UNL     1      29.748  44.869  55.945  1.00  0.00    -0.361 OA
HETATM   20  H   UNL     1      30.128  45.707  55.633  1.00  0.00     0.217 HD
ENDBRANCH  16  19
ENDBRANCH   7  13
BRANCH   1  21
HETATM   21  N   UNL     1      25.756  42.717  51.876  1.00  0.00    -0.220 N 
HETATM   22  H   UNL     1      25.224  42.440  52.708  1.00  0.00     0.200 HD
BRANCH  21  23
HETATM   23  S   UNL     1      24.880  43.875  51.021  1.00  0.00     0.240 S 
HETATM   24  C   UNL     1      24.922  45.326  52.062  1.00  0.00     0.187 C 
HETATM   25  O   UNL     1      23.522  43.426  50.819  1.00  0.00    -0.205 OA
HETATM   26  O   UNL     1      25.723  44.165  49.875  1.00  0.00    -0.205 OA
ENDBRANCH  21  23
ENDBRANCH   1  21
TORSDOF 4
ENDMDL
