MODEL 1
REMARK VINA RESULT:      -7.7      0.000      0.000
REMARK  4 active torsions:
REMARK  status: ('A' for Active; 'I' for Inactive)
REMARK    1  A    between atoms: O_2  and  C_3 
REMARK    2  A    between atoms: C_5  and  N_6 
REMARK    3  A    between atoms: N_6  and  C_7 
REMARK    4  A    between atoms: C_7  and  C_8 
ROOT
HETATM    1  N   UNL     1      24.719  47.031  50.791  1.00  0.00    -0.371 N 
HETATM    2  H   UNL     1      23.843  47.217  51.264  1.00  0.00     0.161 HD
ENDROOT
BRANCH   1   3
HETATM    3  C   UNL     1      25.254  47.940  49.914  1.00  0.00     0.103 A 
HETATM    4  C   UNL     1      24.528  48.723  49.014  1.00  0.00     0.085 A 
HETATM    5  C   UNL     1      25.174  49.640  48.180  1.00  0.00     0.073 A 
HETATM    6  C   UNL     1      26.551  49.771  48.255  1.00  0.00     0.053 A 
HETATM    7  C   UNL     1      27.242  48.985  49.164  1.00  0.00     0.092 A 
HETATM    8  N   UNL     1      26.585  48.118  49.947  1.00  0.00    -0.352 N 
HETATM    9  H   UNL     1      27.113  47.565  50.615  1.00  0.00     0.166 HD
BRANCH   5  10
HETATM   10  O   UNL     1      24.343  50.337  47.353  1.00  0.00    -0.356 OA
HETATM   11  C   UNL     1      22.960  50.390  47.693  1.00  0.00     0.210 C 
ENDBRANCH   5  10
ENDBRANCH   1   3
BRANCH   1  12
HETATM   12  C   UNL     1      25.501  45.975  51.430  1.00  0.00     0.180 C 
BRANCH  12  13
HETATM   13  C   UNL     1      26.056  46.319  52.762  1.00  0.00     0.053 A 
HETATM   14  N   UNL     1      27.092  45.620  53.361  1.00  0.00    -0.306 N 
HETATM   15  C   UNL     1      27.323  46.227  54.593  1.00  0.00     0.133 A 
HETATM   16  C   UNL     1      27.819  44.517  52.909  1.00  0.00     0.118 A 
HETATM   17  C   UNL     1      28.351  45.681  55.410  1.00  0.00     0.052 A 
HETATM   18  N   UNL     1      26.509  47.240  54.791  1.00  0.00    -0.241 NA
HETATM   19  C   UNL     1      29.055  44.617  54.980  1.00  0.00     0.024 A 
HETATM   20  C   UNL     1      28.790  44.004  53.685  1.00  0.00     0.027 A 
HETATM   21 BR   UNL     1      29.811  42.537  53.169  1.00  0.00    -0.050 Br
HETATM   22  C   UNL     1      25.723  47.299  53.676  1.00  0.00     0.146 A 
ENDBRANCH  12  13
ENDBRANCH   1  12
TORSDOF 4
ENDMDL
MODEL 2
REMARK VINA RESULT:      -7.4      5.115      6.741
REMARK  4 active torsions:
REMARK  status: ('A' for Active; 'I' for Inactive)
REMARK    1  A    between atoms: O_2  and  C_3 
REMARK    2  A    between atoms: C_5  and  N_6 
REMARK    3  A    between atoms: N_6  and  C_7 
REMARK    4  A    between atoms: C_7  and  C_8 
ROOT
HETATM    1  N   UNL     1      27.234  41.009  52.037  1.00  0.00    -0.371 N 
HETATM    2  H   UNL     1      26.287  41.368  52.043  1.00  0.00     0.161 HD
ENDROOT
BRANCH   1   3
HETATM    3  C   UNL     1      27.782  40.482  50.896  1.00  0.00     0.103 A 
HETATM    4  C   UNL     1      27.783  41.093  49.639  1.00  0.00     0.085 A 
HETATM    5  C   UNL     1      28.395  40.477  48.544  1.00  0.00     0.073 A 
HETATM    6  C   UNL     1      29.013  39.248  48.715  1.00  0.00     0.053 A 
HETATM    7  C   UNL     1      29.002  38.673  49.977  1.00  0.00     0.092 A 
HETATM    8  N   UNL     1      28.404  39.296  51.001  1.00  0.00    -0.352 N 
HETATM    9  H   UNL     1      28.423  38.860  51.918  1.00  0.00     0.166 HD
BRANCH   5  10
HETATM   10  O   UNL     1      28.320  41.184  47.381  1.00  0.00    -0.356 OA
HETATM   11  C   UNL     1      27.300  40.827  46.452  1.00  0.00     0.210 C 
ENDBRANCH   5  10
ENDBRANCH   1   3
BRANCH   1  12
HETATM   12  C   UNL     1      28.030  41.479  53.168  1.00  0.00     0.180 C 
BRANCH  12  13
HETATM   13  C   UNL     1      27.901  42.925  53.473  1.00  0.00     0.053 A 
HETATM   14  N   UNL     1      28.719  43.592  54.370  1.00  0.00    -0.306 N 
HETATM   15  C   UNL     1      28.288  44.916  54.395  1.00  0.00     0.133 A 
HETATM   16  C   UNL     1      29.782  43.125  55.145  1.00  0.00     0.118 A 
HETATM   17  C   UNL     1      28.977  45.814  55.257  1.00  0.00     0.052 A 
HETATM   18  N   UNL     1      27.272  45.107  53.584  1.00  0.00    -0.241 NA
HETATM   19  C   UNL     1      30.003  45.369  56.007  1.00  0.00     0.024 A 
HETATM   20  C   UNL     1      30.431  43.977  55.958  1.00  0.00     0.027 A 
HETATM   21 BR   UNL     1      31.858  43.447  57.028  1.00  0.00    -0.050 Br
HETATM   22  C   UNL     1      27.022  43.888  53.020  1.00  0.00     0.146 A 
ENDBRANCH  12  13
ENDBRANCH   1  12
TORSDOF 4
ENDMDL
MODEL 3
REMARK VINA RESULT:      -7.3      2.446      3.756
REMARK  4 active torsions:
REMARK  status: ('A' for Active; 'I' for Inactive)
REMARK    1  A    between atoms: O_2  and  C_3 
REMARK    2  A    between atoms: C_5  and  N_6 
REMARK    3  A    between atoms: N_6  and  C_7 
REMARK    4  A    between atoms: C_7  and  C_8 
ROOT
HETATM    1  N   UNL     1      25.449  45.152  52.991  1.00  0.00    -0.371 N 
HETATM    2  H   UNL     1      24.832  44.643  53.613  1.00  0.00     0.161 HD
ENDROOT
BRANCH   1   3
HETATM    3  C   UNL     1      24.982  45.696  51.823  1.00  0.00     0.103 A 
HETATM    4  C   UNL     1      25.376  46.923  51.284  1.00  0.00     0.085 A 
HETATM    5  C   UNL     1      24.852  47.373  50.069  1.00  0.00     0.073 A 
HETATM    6  C   UNL     1      23.935  46.584  49.393  1.00  0.00     0.053 A 
HETATM    7  C   UNL     1      23.571  45.368  49.950  1.00  0.00     0.092 A 
HETATM    8  N   UNL     1      24.096  44.972  51.117  1.00  0.00    -0.352 N 
HETATM    9  H   UNL     1      23.824  44.071  51.496  1.00  0.00     0.166 HD
BRANCH   5  10
HETATM   10  O   UNL     1      25.324  48.585  49.662  1.00  0.00    -0.356 OA
HETATM   11  C   UNL     1      26.699  48.673  49.298  1.00  0.00     0.210 C 
ENDBRANCH   5  10
ENDBRANCH   1   3
BRANCH   1  12
HETATM   12  C   UNL     1      26.686  45.581  53.640  1.00  0.00     0.180 C 
BRANCH  12  13
HETATM   13  C   UNL     1      27.798  44.602  53.590  1.00  0.00     0.053 A 
HETATM   14  N   UNL     1      28.799  44.533  54.547  1.00  0.00    -0.306 N 
HETATM   15  C   UNL     1      29.656  43.507  54.155  1.00  0.00     0.133 A 
HETATM   16  C   UNL     1      29.000  45.292  55.701  1.00  0.00     0.118 A 
HETATM   17  C   UNL     1      30.781  43.240  54.984  1.00  0.00     0.052 A 
HETATM   18  N   UNL     1      29.256  42.947  53.035  1.00  0.00    -0.241 NA
HETATM   19  C   UNL     1      30.980  43.970  56.098  1.00  0.00     0.024 A 
HETATM   20  C   UNL     1      30.065  45.036  56.481  1.00  0.00     0.027 A 
HETATM   21 BR   UNL     1      30.417  45.994  58.037  1.00  0.00    -0.050 Br
HETATM   22  C   UNL     1      28.121  43.617  52.677  1.00  0.00     0.146 A 
ENDBRANCH  12  13
ENDBRANCH   1  12
TORSDOF 4
ENDMDL
MODEL 4
REMARK VINA RESULT:      -7.1      2.600      3.877
REMARK  4 active torsions:
REMARK  status: ('A' for Active; 'I' for Inactive)
REMARK    1  A    between atoms: O_2  and  C_3 
REMARK    2  A    between atoms: C_5  and  N_6 
REMARK    3  A    between atoms: N_6  and  C_7 
REMARK    4  A    between atoms: C_7  and  C_8 
ROOT
HETATM    1  N   UNL     1      26.300  46.911  53.109  1.00  0.00    -0.371 N 
HETATM    2  H   UNL     1      27.110  47.506  52.984  1.00  0.00     0.161 HD
ENDROOT
BRANCH   1   3
HETATM    3  C   UNL     1      25.582  46.460  52.032  1.00  0.00     0.103 A 
HETATM    4  C   UNL     1      24.893  45.247  51.966  1.00  0.00     0.085 A 
HETATM    5  C   UNL     1      24.169  44.896  50.823  1.00  0.00     0.073 A 
HETATM    6  C   UNL     1      24.134  45.770  49.748  1.00  0.00     0.053 A 
HETATM    7  C   UNL     1      24.822  46.969  49.848  1.00  0.00     0.092 A 
HETATM    8  N   UNL     1      25.504  47.269  50.961  1.00  0.00    -0.352 N 
HETATM    9  H   UNL     1      25.987  48.160  51.015  1.00  0.00     0.166 HD
BRANCH   5  10
HETATM   10  O   UNL     1      23.545  43.686  50.896  1.00  0.00    -0.356 OA
HETATM   11  C   UNL     1      24.127  42.596  50.187  1.00  0.00     0.210 C 
ENDBRANCH   5  10
ENDBRANCH   1   3
BRANCH   1  12
HETATM   12  C   UNL     1      26.252  46.282  54.427  1.00  0.00     0.180 C 
BRANCH  12  13
HETATM   13  C   UNL     1      27.572  45.992  55.037  1.00  0.00     0.053 A 
HETATM   14  N   UNL     1      28.317  44.861  54.746  1.00  0.00    -0.306 N 
HETATM   15  C   UNL     1      29.476  44.937  55.513  1.00  0.00     0.133 A 
HETATM   16  C   UNL     1      28.047  43.799  53.880  1.00  0.00     0.118 A 
HETATM   17  C   UNL     1      30.414  43.874  55.393  1.00  0.00     0.052 A 
HETATM   18  N   UNL     1      29.496  46.026  56.249  1.00  0.00    -0.241 NA
HETATM   19  C   UNL     1      30.158  42.847  54.560  1.00  0.00     0.024 A 
HETATM   20  C   UNL     1      28.935  42.796  53.769  1.00  0.00     0.027 A 
HETATM   21 BR   UNL     1      28.664  41.339  52.644  1.00  0.00    -0.050 Br
HETATM   22  C   UNL     1      28.328  46.676  55.969  1.00  0.00     0.146 A 
ENDBRANCH  12  13
ENDBRANCH   1  12
TORSDOF 4
ENDMDL
MODEL 5
REMARK VINA RESULT:      -7.0      2.174      3.128
REMARK  4 active torsions:
REMARK  status: ('A' for Active; 'I' for Inactive)
REMARK    1  A    between atoms: O_2  and  C_3 
REMARK    2  A    between atoms: C_5  and  N_6 
REMARK    3  A    between atoms: N_6  and  C_7 
REMARK    4  A    between atoms: C_7  and  C_8 
ROOT
HETATM    1  N   UNL     1      26.234  46.797  53.058  1.00  0.00    -0.371 N 
HETATM    2  H   UNL     1      27.079  47.332  52.903  1.00  0.00     0.161 HD
ENDROOT
BRANCH   1   3
HETATM    3  C   UNL     1      25.452  46.393  52.007  1.00  0.00     0.103 A 
HETATM    4  C   UNL     1      25.007  47.210  50.965  1.00  0.00     0.085 A 
HETATM    5  C   UNL     1      24.233  46.686  49.926  1.00  0.00     0.073 A 
HETATM    6  C   UNL     1      23.911  45.338  49.933  1.00  0.00     0.053 A 
HETATM    7  C   UNL     1      24.374  44.553  50.977  1.00  0.00     0.092 A 
HETATM    8  N   UNL     1      25.115  45.093  51.954  1.00  0.00    -0.352 N 
HETATM    9  H   UNL     1      25.454  44.493  52.699  1.00  0.00     0.166 HD
BRANCH   5  10
HETATM   10  O   UNL     1      23.869  47.595  48.977  1.00  0.00    -0.356 OA
HETATM   11  C   UNL     1      22.514  48.037  48.967  1.00  0.00     0.210 C 
ENDBRANCH   5  10
ENDBRANCH   1   3
BRANCH   1  12
HETATM   12  C   UNL     1      26.183  46.180  54.382  1.00  0.00     0.180 C 
BRANCH  12  13
HETATM   13  C   UNL     1      27.500  45.952  55.023  1.00  0.00     0.053 A 
HETATM   14  N   UNL     1      28.291  44.843  54.770  1.00  0.00    -0.306 N 
HETATM   15  C   UNL     1      29.432  44.978  55.557  1.00  0.00     0.133 A 
HETATM   16  C   UNL     1      28.078  43.755  53.922  1.00  0.00     0.118 A 
HETATM   17  C   UNL     1      30.410  43.948  55.478  1.00  0.00     0.052 A 
HETATM   18  N   UNL     1      29.397  46.082  56.270  1.00  0.00    -0.241 NA
HETATM   19  C   UNL     1      30.209  42.895  54.662  1.00  0.00     0.024 A 
HETATM   20  C   UNL     1      29.004  42.783  53.850  1.00  0.00     0.027 A 
HETATM   21 BR   UNL     1      28.809  41.294  52.750  1.00  0.00    -0.050 Br
HETATM   22  C   UNL     1      28.212  46.682  55.954  1.00  0.00     0.146 A 
ENDBRANCH  12  13
ENDBRANCH   1  12
TORSDOF 4
ENDMDL
MODEL 6
REMARK VINA RESULT:      -7.0      3.805      7.660
REMARK  4 active torsions:
REMARK  status: ('A' for Active; 'I' for Inactive)
REMARK    1  A    between atoms: O_2  and  C_3 
REMARK    2  A    between atoms: C_5  and  N_6 
REMARK    3  A    between atoms: N_6  and  C_7 
REMARK    4  A    between atoms: C_7  and  C_8 
ROOT
HETATM    1  N   UNL     1      25.992  47.083  52.021  1.00  0.00    -0.371 N 
HETATM    2  H   UNL     1      25.524  47.925  52.336  1.00  0.00     0.161 HD
ENDROOT
BRANCH   1   3
HETATM    3  C   UNL     1      26.417  46.135  52.914  1.00  0.00     0.103 A 
HETATM    4  C   UNL     1      27.115  46.389  54.098  1.00  0.00     0.085 A 
HETATM    5  C   UNL     1      27.478  45.345  54.953  1.00  0.00     0.073 A 
HETATM    6  C   UNL     1      27.134  44.044  54.619  1.00  0.00     0.053 A 
HETATM    7  C   UNL     1      26.435  43.827  53.442  1.00  0.00     0.092 A 
HETATM    8  N   UNL     1      26.104  44.855  52.649  1.00  0.00    -0.352 N 
HETATM    9  H   UNL     1      25.579  44.670  51.801  1.00  0.00     0.166 HD
BRANCH   5  10
HETATM   10  O   UNL     1      28.154  45.736  56.070  1.00  0.00    -0.356 OA
HETATM   11  C   UNL     1      29.570  45.874  55.975  1.00  0.00     0.210 C 
ENDBRANCH   5  10
ENDBRANCH   1   3
BRANCH   1  12
HETATM   12  C   UNL     1      25.785  46.813  50.600  1.00  0.00     0.180 C 
BRANCH  12  13
HETATM   13  C   UNL     1      25.831  48.004  49.717  1.00  0.00     0.053 A 
HETATM   14  N   UNL     1      24.701  48.621  49.205  1.00  0.00    -0.306 N 
HETATM   15  C   UNL     1      25.145  49.684  48.424  1.00  0.00     0.133 A 
HETATM   16  C   UNL     1      23.349  48.314  49.373  1.00  0.00     0.118 A 
HETATM   17  C   UNL     1      24.159  50.480  47.776  1.00  0.00     0.052 A 
HETATM   18  N   UNL     1      26.457  49.763  48.419  1.00  0.00    -0.241 NA
HETATM   19  C   UNL     1      22.854  50.188  47.934  1.00  0.00     0.024 A 
HETATM   20  C   UNL     1      22.420  49.068  48.760  1.00  0.00     0.027 A 
HETATM   21 BR   UNL     1      20.597  48.738  48.923  1.00  0.00    -0.050 Br
HETATM   22  C   UNL     1      26.887  48.732  49.204  1.00  0.00     0.146 A 
ENDBRANCH  12  13
ENDBRANCH   1  12
TORSDOF 4
ENDMDL
MODEL 7
REMARK VINA RESULT:      -6.9      4.494      7.224
REMARK  4 active torsions:
REMARK  status: ('A' for Active; 'I' for Inactive)
REMARK    1  A    between atoms: O_2  and  C_3 
REMARK    2  A    between atoms: C_5  and  N_6 
REMARK    3  A    between atoms: N_6  and  C_7 
REMARK    4  A    between atoms: C_7  and  C_8 
ROOT
HETATM    1  N   UNL     1      20.469  48.743  49.766  1.00  0.00    -0.371 N 
HETATM    2  H   UNL     1      20.956  48.915  50.638  1.00  0.00     0.161 HD
ENDROOT
BRANCH   1   3
HETATM    3  C   UNL     1      19.289  49.380  49.481  1.00  0.00     0.103 A 
HETATM    4  C   UNL     1      18.864  50.589  50.038  1.00  0.00     0.085 A 
HETATM    5  C   UNL     1      17.649  51.165  49.655  1.00  0.00     0.073 A 
HETATM    6  C   UNL     1      16.864  50.527  48.708  1.00  0.00     0.053 A 
HETATM    7  C   UNL     1      17.318  49.333  48.170  1.00  0.00     0.092 A 
HETATM    8  N   UNL     1      18.489  48.813  48.562  1.00  0.00    -0.352 N 
HETATM    9  H   UNL     1      18.805  47.945  48.141  1.00  0.00     0.166 HD
BRANCH   5  10
HETATM   10  O   UNL     1      17.360  52.344  50.277  1.00  0.00    -0.356 OA
HETATM   11  C   UNL     1      16.076  52.917  50.047  1.00  0.00     0.210 C 
ENDBRANCH   5  10
ENDBRANCH   1   3
BRANCH   1  12
HETATM   12  C   UNL     1      21.318  48.130  48.748  1.00  0.00     0.180 C 
BRANCH  12  13
HETATM   13  C   UNL     1      22.531  48.905  48.387  1.00  0.00     0.053 A 
HETATM   14  N   UNL     1      23.799  48.599  48.854  1.00  0.00    -0.306 N 
HETATM   15  C   UNL     1      24.663  49.546  48.310  1.00  0.00     0.133 A 
HETATM   16  C   UNL     1      24.228  47.577  49.702  1.00  0.00     0.118 A 
HETATM   17  C   UNL     1      26.041  49.448  48.650  1.00  0.00     0.052 A 
HETATM   18  N   UNL     1      24.021  50.405  47.550  1.00  0.00    -0.241 NA
HETATM   19  C   UNL     1      26.461  48.464  49.468  1.00  0.00     0.024 A 
HETATM   20  C   UNL     1      25.532  47.487  50.020  1.00  0.00     0.027 A 
HETATM   21 BR   UNL     1      26.198  46.161  51.142  1.00  0.00    -0.050 Br
HETATM   22  C   UNL     1      22.710  50.023  47.597  1.00  0.00     0.146 A 
ENDBRANCH  12  13
ENDBRANCH   1  12
TORSDOF 4
ENDMDL
MODEL 8
REMARK VINA RESULT:      -6.8      5.227      6.872
REMARK  4 active torsions:
REMARK  status: ('A' for Active; 'I' for Inactive)
REMARK    1  A    between atoms: O_2  and  C_3 
REMARK    2  A    between atoms: C_5  and  N_6 
REMARK    3  A    between atoms: N_6  and  C_7 
REMARK    4  A    between atoms: C_7  and  C_8 
ROOT
HETATM    1  N   UNL     1      29.001  41.524  52.400  1.00  0.00    -0.371 N 
HETATM    2  H   UNL     1      30.010  41.616  52.421  1.00  0.00     0.161 HD
ENDROOT
BRANCH   1   3
HETATM    3  C   UNL     1      28.382  40.763  51.442  1.00  0.00     0.103 A 
HETATM    4  C   UNL     1      27.151  41.050  50.847  1.00  0.00     0.085 A 
HETATM    5  C   UNL     1      26.622  40.216  49.858  1.00  0.00     0.073 A 
HETATM    6  C   UNL     1      27.335  39.095  49.464  1.00  0.00     0.053 A 
HETATM    7  C   UNL     1      28.557  38.843  50.068  1.00  0.00     0.092 A 
HETATM    8  N   UNL     1      29.030  39.667  51.012  1.00  0.00    -0.352 N 
HETATM    9  H   UNL     1      29.934  39.467  51.428  1.00  0.00     0.166 HD
BRANCH   5  10
HETATM   10  O   UNL     1      25.416  40.616  49.365  1.00  0.00    -0.356 OA
HETATM   11  C   UNL     1      25.270  41.986  48.997  1.00  0.00     0.210 C 
ENDBRANCH   5  10
ENDBRANCH   1   3
BRANCH   1  12
HETATM   12  C   UNL     1      28.366  41.902  53.660  1.00  0.00     0.180 C 
BRANCH  12  13
HETATM   13  C   UNL     1      29.090  42.929  54.449  1.00  0.00     0.053 A 
HETATM   14  N   UNL     1      28.653  44.238  54.581  1.00  0.00    -0.306 N 
HETATM   15  C   UNL     1      29.591  44.892  55.377  1.00  0.00     0.133 A 
HETATM   16  C   UNL     1      27.524  44.871  54.060  1.00  0.00     0.118 A 
HETATM   17  C   UNL     1      29.366  46.268  55.657  1.00  0.00     0.052 A 
HETATM   18  N   UNL     1      30.563  44.085  55.738  1.00  0.00    -0.241 NA
HETATM   19  C   UNL     1      28.278  46.885  55.157  1.00  0.00     0.024 A 
HETATM   20  C   UNL     1      27.315  46.172  54.328  1.00  0.00     0.027 A 
HETATM   21 BR   UNL     1      25.840  47.103  53.679  1.00  0.00    -0.050 Br
HETATM   22  C   UNL     1      30.268  42.880  55.167  1.00  0.00     0.146 A 
ENDBRANCH  12  13
ENDBRANCH   1  12
TORSDOF 4
ENDMDL
MODEL 9
REMARK VINA RESULT:      -6.8      4.148      7.534
REMARK  4 active torsions:
REMARK  status: ('A' for Active; 'I' for Inactive)
REMARK    1  A    between atoms: O_2  and  C_3 
REMARK    2  A    between atoms: C_5  and  N_6 
REMARK    3  A    between atoms: N_6  and  C_7 
REMARK    4  A    between atoms: C_7  and  C_8 
ROOT
HETATM    1  N   UNL     1      26.169  45.751  49.532  1.00  0.00    -0.371 N 
HETATM    2  H   UNL     1      25.978  45.870  48.544  1.00  0.00     0.161 HD
ENDROOT
BRANCH   1   3
HETATM    3  C   UNL     1      26.662  44.567  50.017  1.00  0.00     0.103 A 
HETATM    4  C   UNL     1      27.245  44.385  51.274  1.00  0.00     0.085 A 
HETATM    5  C   UNL     1      27.692  43.124  51.679  1.00  0.00     0.073 A 
HETATM    6  C   UNL     1      27.548  42.045  50.821  1.00  0.00     0.053 A 
HETATM    7  C   UNL     1      26.958  42.258  49.585  1.00  0.00     0.092 A 
HETATM    8  N   UNL     1      26.542  43.482  49.234  1.00  0.00    -0.352 N 
HETATM    9  H   UNL     1      26.099  43.607  48.329  1.00  0.00     0.166 HD
BRANCH   5  10
HETATM   10  O   UNL     1      28.239  43.091  52.928  1.00  0.00    -0.356 OA
HETATM   11  C   UNL     1      27.352  43.139  54.042  1.00  0.00     0.210 C 
ENDBRANCH   5  10
ENDBRANCH   1   3
BRANCH   1  12
HETATM   12  C   UNL     1      26.270  47.018  50.251  1.00  0.00     0.180 C 
BRANCH  12  13
HETATM   13  C   UNL     1      26.144  48.233  49.410  1.00  0.00     0.053 A 
HETATM   14  N   UNL     1      24.928  48.760  49.005  1.00  0.00    -0.306 N 
HETATM   15  C   UNL     1      25.216  49.881  48.230  1.00  0.00     0.133 A 
HETATM   16  C   UNL     1      23.625  48.328  49.262  1.00  0.00     0.118 A 
HETATM   17  C   UNL     1      24.117  50.602  47.686  1.00  0.00     0.052 A 
HETATM   18  N   UNL     1      26.512  50.077  48.131  1.00  0.00    -0.241 NA
HETATM   19  C   UNL     1      22.859  50.190  47.930  1.00  0.00     0.024 A 
HETATM   20  C   UNL     1      22.589  49.013  48.746  1.00  0.00     0.027 A 
HETATM   21 BR   UNL     1      20.819  48.516  49.032  1.00  0.00    -0.050 Br
HETATM   22  C   UNL     1      27.089  49.067  48.846  1.00  0.00     0.146 A 
ENDBRANCH  12  13
ENDBRANCH   1  12
TORSDOF 4
ENDMDL
MODEL 10
REMARK VINA RESULT:      -6.7      5.428      7.662
REMARK  4 active torsions:
REMARK  status: ('A' for Active; 'I' for Inactive)
REMARK    1  A    between atoms: O_2  and  C_3 
REMARK    2  A    between atoms: C_5  and  N_6 
REMARK    3  A    between atoms: N_6  and  C_7 
REMARK    4  A    between atoms: C_7  and  C_8 
ROOT
HETATM    1  N   UNL     1      27.973  41.238  50.868  1.00  0.00    -0.371 N 
HETATM    2  H   UNL     1      27.926  42.082  50.309  1.00  0.00     0.161 HD
ENDROOT
BRANCH   1   3
HETATM    3  C   UNL     1      28.499  40.081  50.355  1.00  0.00     0.103 A 
HETATM    4  C   UNL     1      28.370  39.646  49.034  1.00  0.00     0.085 A 
HETATM    5  C   UNL     1      28.971  38.457  48.609  1.00  0.00     0.073 A 
HETATM    6  C   UNL     1      29.707  37.709  49.514  1.00  0.00     0.053 A 
HETATM    7  C   UNL     1      29.823  38.172  50.815  1.00  0.00     0.092 A 
HETATM    8  N   UNL     1      29.232  39.317  51.183  1.00  0.00    -0.352 N 
HETATM    9  H   UNL     1      29.346  39.642  52.138  1.00  0.00     0.166 HD
BRANCH   5  10
HETATM   10  O   UNL     1      28.763  38.155  47.296  1.00  0.00    -0.356 OA
HETATM   11  C   UNL     1      27.520  37.553  46.943  1.00  0.00     0.210 C 
ENDBRANCH   5  10
ENDBRANCH   1   3
BRANCH   1  12
HETATM   12  C   UNL     1      27.836  41.494  52.300  1.00  0.00     0.180 C 
BRANCH  12  13
HETATM   13  C   UNL     1      27.409  42.868  52.658  1.00  0.00     0.053 A 
HETATM   14  N   UNL     1      28.072  43.658  53.583  1.00  0.00    -0.306 N 
HETATM   15  C   UNL     1      27.374  44.860  53.655  1.00  0.00     0.133 A 
HETATM   16  C   UNL     1      29.212  43.394  54.345  1.00  0.00     0.118 A 
HETATM   17  C   UNL     1      27.863  45.850  54.553  1.00  0.00     0.052 A 
HETATM   18  N   UNL     1      26.338  44.865  52.847  1.00  0.00    -0.241 NA
HETATM   19  C   UNL     1      28.961  45.601  55.291  1.00  0.00     0.024 A 
HETATM   20  C   UNL     1      29.671  44.332  55.192  1.00  0.00     0.027 A 
HETATM   21 BR   UNL     1      31.180  44.073  56.249  1.00  0.00    -0.050 Br
HETATM   22  C   UNL     1      26.346  43.643  52.237  1.00  0.00     0.146 A 
ENDBRANCH  12  13
ENDBRANCH   1  12
TORSDOF 4
ENDMDL
