MODEL 1
REMARK VINA RESULT:      -8.2      0.000      0.000
REMARK  7 active torsions:
REMARK  status: ('A' for Active; 'I' for Inactive)
REMARK    1  A    between atoms: C_3  and  N_4 
REMARK       I    between atoms: N_4  and  C_5 
REMARK    2  A    between atoms: C_5  and  C_6 
REMARK    3  A    between atoms: C_7  and  C_8 
REMARK    4  A    between atoms: C_20  and  C_21 
REMARK    5  A    between atoms: C_21  and  C_22 
REMARK    6  A    between atoms: C_22  and  C_23 
REMARK    7  A    between atoms: C_23  and  O_24 
ROOT
HETATM    1  C   UNL     1      27.308  42.630  51.791  1.00  0.00     0.062 A 
HETATM    2  C   UNL     1      27.033  42.895  50.313  1.00  0.00     0.202 A 
HETATM    3  N   UNL     1      27.414  41.757  49.469  1.00  0.00    -0.083 N 
HETATM    4  C   UNL     1      27.997  40.616  49.943  1.00  0.00     0.726 A 
HETATM    5  N   UNL     1      28.221  40.494  51.262  1.00  0.00    -0.192 N 
HETATM    6  N   UNL     1      27.365  41.761  48.120  1.00  0.00    -0.140 NA
HETATM    7  C   UNL     1      27.856  40.541  47.850  1.00  0.00     0.166 A 
HETATM    8  N   UNL     1      28.259  39.814  48.945  1.00  0.00    -0.046 NA
HETATM    9  C   UNL     1      27.885  41.467  52.195  1.00  0.00     0.037 A 
HETATM   10  C   UNL     1      28.229  41.134  53.627  1.00  0.00     0.070 C 
HETATM   11  H   UNL     1      28.646  39.637  51.606  1.00  0.00     0.184 HD
ENDROOT
BRANCH   1  12
HETATM   12  C   UNL     1      26.827  43.616  52.810  1.00  0.00     0.256 C 
HETATM   13  N   UNL     1      27.624  44.731  52.976  1.00  0.00    -0.323 N 
HETATM   14  H   UNL     1      28.296  44.948  52.258  1.00  0.00     0.169 HD
HETATM   15  O   UNL     1      25.743  43.431  53.353  1.00  0.00    -0.267 OA
BRANCH  13  16
HETATM   16  C   UNL     1      27.309  45.818  53.827  1.00  0.00     0.041 A 
HETATM   17  C   UNL     1      26.374  46.826  53.532  1.00  0.00    -0.035 A 
HETATM   18  C   UNL     1      25.480  46.822  52.323  1.00  0.00     0.050 C 
HETATM   19  C   UNL     1      26.215  47.890  54.441  1.00  0.00     0.009 A 
HETATM   20  C   UNL     1      26.922  47.928  55.642  1.00  0.00     0.001 A 
HETATM   21  C   UNL     1      27.792  46.893  55.961  1.00  0.00     0.002 A 
HETATM   22  C   UNL     1      27.974  45.838  55.065  1.00  0.00     0.030 A 
ENDBRANCH  13  16
ENDBRANCH   1  12
BRANCH   2  23
HETATM   23  C   UNL     1      25.595  43.312  50.011  1.00  0.00    -0.026 A 
HETATM   24  C   UNL     1      25.320  44.641  49.635  1.00  0.00     0.035 A 
HETATM   25  C   UNL     1      24.008  45.058  49.379  1.00  0.00     0.056 A 
HETATM   26 CL   UNL     1      23.766  46.716  48.958  1.00  0.00    -0.083 Cl
HETATM   27  C   UNL     1      22.955  44.146  49.482  1.00  0.00     0.055 A 
HETATM   28 CL   UNL     1      21.312  44.592  49.187  1.00  0.00    -0.083 Cl
HETATM   29  C   UNL     1      23.220  42.821  49.834  1.00  0.00     0.026 A 
HETATM   30  C   UNL     1      24.529  42.404  50.095  1.00  0.00     0.011 A 
ENDBRANCH   2  23
BRANCH   7  31
HETATM   31  C   UNL     1      27.997  40.014  46.469  1.00  0.00     0.085 C 
BRANCH  31  32
HETATM   32  C   UNL     1      27.429  38.607  46.300  1.00  0.00     0.034 C 
BRANCH  32  33
HETATM   33  C   UNL     1      28.504  37.527  46.252  1.00  0.00     0.164 C 
BRANCH  33  34
HETATM   34  O   UNL     1      28.817  37.108  47.576  1.00  0.00    -0.401 OA
HETATM   35  H   UNL     1      29.728  36.768  47.568  1.00  0.00     0.209 HD
ENDBRANCH  33  34
ENDBRANCH  32  33
ENDBRANCH  31  32
ENDBRANCH   7  31
TORSDOF 7
ENDMDL
MODEL 2
REMARK VINA RESULT:      -8.2      3.636      6.054
REMARK  7 active torsions:
REMARK  status: ('A' for Active; 'I' for Inactive)
REMARK    1  A    between atoms: C_3  and  N_4 
REMARK       I    between atoms: N_4  and  C_5 
REMARK    2  A    between atoms: C_5  and  C_6 
REMARK    3  A    between atoms: C_7  and  C_8 
REMARK    4  A    between atoms: C_20  and  C_21 
REMARK    5  A    between atoms: C_21  and  C_22 
REMARK    6  A    between atoms: C_22  and  C_23 
REMARK    7  A    between atoms: C_23  and  O_24 
ROOT
HETATM    1  C   UNL     1      26.157  45.140  53.091  1.00  0.00     0.062 A 
HETATM    2  C   UNL     1      25.418  44.144  52.201  1.00  0.00     0.202 A 
HETATM    3  N   UNL     1      24.741  44.805  51.080  1.00  0.00    -0.083 N 
HETATM    4  C   UNL     1      24.727  46.157  50.884  1.00  0.00     0.726 A 
HETATM    5  N   UNL     1      25.388  46.949  51.744  1.00  0.00    -0.192 N 
HETATM    6  N   UNL     1      23.940  44.172  50.196  1.00  0.00    -0.140 NA
HETATM    7  C   UNL     1      23.545  45.204  49.434  1.00  0.00     0.166 A 
HETATM    8  N   UNL     1      24.004  46.438  49.832  1.00  0.00    -0.046 NA
HETATM    9  C   UNL     1      26.107  46.474  52.835  1.00  0.00     0.037 A 
HETATM   10  C   UNL     1      26.772  47.535  53.680  1.00  0.00     0.070 C 
HETATM   11  H   UNL     1      25.380  47.954  51.585  1.00  0.00     0.184 HD
ENDROOT
BRANCH   1  12
HETATM   12  C   UNL     1      27.039  44.624  54.185  1.00  0.00     0.256 C 
HETATM   13  N   UNL     1      28.374  44.962  54.078  1.00  0.00    -0.323 N 
HETATM   14  H   UNL     1      28.625  45.719  53.461  1.00  0.00     0.169 HD
HETATM   15  O   UNL     1      26.531  44.032  55.131  1.00  0.00    -0.267 OA
BRANCH  13  16
HETATM   16  C   UNL     1      29.358  44.645  55.045  1.00  0.00     0.041 A 
HETATM   17  C   UNL     1      30.252  43.564  54.957  1.00  0.00    -0.035 A 
HETATM   18  C   UNL     1      30.376  42.663  53.759  1.00  0.00     0.050 C 
HETATM   19  C   UNL     1      31.132  43.323  56.030  1.00  0.00     0.009 A 
HETATM   20  C   UNL     1      31.166  44.166  57.141  1.00  0.00     0.001 A 
HETATM   21  C   UNL     1      30.330  45.274  57.189  1.00  0.00     0.002 A 
HETATM   22  C   UNL     1      29.441  45.520  56.142  1.00  0.00     0.030 A 
ENDBRANCH  13  16
ENDBRANCH   1  12
BRANCH   2  23
HETATM   23  C   UNL     1      26.290  43.001  51.686  1.00  0.00    -0.026 A 
HETATM   24  C   UNL     1      26.471  42.833  50.300  1.00  0.00     0.035 A 
HETATM   25  C   UNL     1      27.242  41.778  49.798  1.00  0.00     0.056 A 
HETATM   26 CL   UNL     1      27.376  41.634  48.082  1.00  0.00    -0.083 Cl
HETATM   27  C   UNL     1      27.855  40.884  50.679  1.00  0.00     0.055 A 
HETATM   28 CL   UNL     1      28.815  39.556  50.132  1.00  0.00    -0.083 Cl
HETATM   29  C   UNL     1      27.699  41.054  52.057  1.00  0.00     0.026 A 
HETATM   30  C   UNL     1      26.925  42.105  52.559  1.00  0.00     0.011 A 
ENDBRANCH   2  23
BRANCH   7  31
HETATM   31  C   UNL     1      22.643  45.049  48.265  1.00  0.00     0.085 C 
BRANCH  31  32
HETATM   32  C   UNL     1      21.619  46.175  48.140  1.00  0.00     0.034 C 
BRANCH  32  33
HETATM   33  C   UNL     1      20.181  45.700  48.319  1.00  0.00     0.164 C 
BRANCH  33  34
HETATM   34  O   UNL     1      20.066  44.977  49.540  1.00  0.00    -0.401 OA
HETATM   35  H   UNL     1      20.842  44.395  49.610  1.00  0.00     0.209 HD
ENDBRANCH  33  34
ENDBRANCH  32  33
ENDBRANCH  31  32
ENDBRANCH   7  31
TORSDOF 7
ENDMDL
MODEL 3
REMARK VINA RESULT:      -8.1      4.150      7.457
REMARK  7 active torsions:
REMARK  status: ('A' for Active; 'I' for Inactive)
REMARK    1  A    between atoms: C_3  and  N_4 
REMARK       I    between atoms: N_4  and  C_5 
REMARK    2  A    between atoms: C_5  and  C_6 
REMARK    3  A    between atoms: C_7  and  C_8 
REMARK    4  A    between atoms: C_20  and  C_21 
REMARK    5  A    between atoms: C_21  and  C_22 
REMARK    6  A    between atoms: C_22  and  C_23 
REMARK    7  A    between atoms: C_23  and  O_24 
ROOT
HETATM    1  C   UNL     1      25.783  46.971  50.017  1.00  0.00     0.062 A 
HETATM    2  C   UNL     1      24.269  46.778  49.988  1.00  0.00     0.202 A 
HETATM    3  N   UNL     1      23.589  47.864  49.274  1.00  0.00    -0.083 N 
HETATM    4  C   UNL     1      24.228  48.948  48.743  1.00  0.00     0.726 A 
HETATM    5  N   UNL     1      25.565  49.036  48.847  1.00  0.00    -0.192 N 
HETATM    6  N   UNL     1      22.247  47.989  49.180  1.00  0.00    -0.140 NA
HETATM    7  C   UNL     1      22.152  49.139  48.495  1.00  0.00     0.166 A 
HETATM    8  N   UNL     1      23.349  49.758  48.215  1.00  0.00    -0.046 NA
HETATM    9  C   UNL     1      26.355  48.073  49.463  1.00  0.00     0.037 A 
HETATM   10  C   UNL     1      27.837  48.368  49.477  1.00  0.00     0.070 C 
HETATM   11  H   UNL     1      26.033  49.842  48.441  1.00  0.00     0.184 HD
ENDROOT
BRANCH   1  12
HETATM   12  C   UNL     1      26.648  45.876  50.559  1.00  0.00     0.256 C 
HETATM   13  N   UNL     1      26.464  45.584  51.896  1.00  0.00    -0.323 N 
HETATM   14  H   UNL     1      25.622  45.910  52.344  1.00  0.00     0.169 HD
HETATM   15  O   UNL     1      27.378  45.257  49.792  1.00  0.00    -0.267 OA
BRANCH  13  16
HETATM   16  C   UNL     1      27.120  44.534  52.582  1.00  0.00     0.041 A 
HETATM   17  C   UNL     1      27.850  44.684  53.775  1.00  0.00    -0.035 A 
HETATM   18  C   UNL     1      27.931  45.963  54.561  1.00  0.00     0.050 C 
HETATM   19  C   UNL     1      28.515  43.563  54.308  1.00  0.00     0.009 A 
HETATM   20  C   UNL     1      28.413  42.308  53.709  1.00  0.00     0.001 A 
HETATM   21  C   UNL     1      27.632  42.151  52.571  1.00  0.00     0.002 A 
HETATM   22  C   UNL     1      26.979  43.253  52.019  1.00  0.00     0.030 A 
ENDBRANCH  13  16
ENDBRANCH   1  12
BRANCH   2  23
HETATM   23  C   UNL     1      23.824  45.426  49.434  1.00  0.00    -0.026 A 
HETATM   24  C   UNL     1      23.757  45.233  48.042  1.00  0.00     0.035 A 
HETATM   25  C   UNL     1      23.325  44.014  47.505  1.00  0.00     0.056 A 
HETATM   26 CL   UNL     1      23.243  43.883  45.784  1.00  0.00    -0.083 Cl
HETATM   27  C   UNL     1      22.968  42.965  48.357  1.00  0.00     0.055 A 
HETATM   28 CL   UNL     1      22.420  41.438  47.767  1.00  0.00    -0.083 Cl
HETATM   29  C   UNL     1      23.050  43.141  49.741  1.00  0.00     0.026 A 
HETATM   30  C   UNL     1      23.477  44.359  50.277  1.00  0.00     0.011 A 
ENDBRANCH   2  23
BRANCH   7  31
HETATM   31  C   UNL     1      20.854  49.737  48.094  1.00  0.00     0.085 C 
BRANCH  31  32
HETATM   32  C   UNL     1      20.556  51.058  48.798  1.00  0.00     0.034 C 
BRANCH  32  33
HETATM   33  C   UNL     1      20.555  50.941  50.319  1.00  0.00     0.164 C 
BRANCH  33  34
HETATM   34  O   UNL     1      21.897  50.922  50.795  1.00  0.00    -0.401 OA
HETATM   35  H   UNL     1      22.083  50.022  51.111  1.00  0.00     0.209 HD
ENDBRANCH  33  34
ENDBRANCH  32  33
ENDBRANCH  31  32
ENDBRANCH   7  31
TORSDOF 7
ENDMDL
MODEL 4
REMARK VINA RESULT:      -8.1      3.364      5.214
REMARK  7 active torsions:
REMARK  status: ('A' for Active; 'I' for Inactive)
REMARK    1  A    between atoms: C_3  and  N_4 
REMARK       I    between atoms: N_4  and  C_5 
REMARK    2  A    between atoms: C_5  and  C_6 
REMARK    3  A    between atoms: C_7  and  C_8 
REMARK    4  A    between atoms: C_20  and  C_21 
REMARK    5  A    between atoms: C_21  and  C_22 
REMARK    6  A    between atoms: C_22  and  C_23 
REMARK    7  A    between atoms: C_23  and  O_24 
ROOT
HETATM    1  C   UNL     1      25.391  44.408  52.067  1.00  0.00     0.062 A 
HETATM    2  C   UNL     1      24.852  43.250  51.231  1.00  0.00     0.202 A 
HETATM    3  N   UNL     1      24.080  43.718  50.075  1.00  0.00    -0.083 N 
HETATM    4  C   UNL     1      23.826  45.033  49.807  1.00  0.00     0.726 A 
HETATM    5  N   UNL     1      24.325  45.976  50.624  1.00  0.00    -0.192 N 
HETATM    6  N   UNL     1      23.416  42.905  49.225  1.00  0.00    -0.140 NA
HETATM    7  C   UNL     1      22.850  43.809  48.409  1.00  0.00     0.166 A 
HETATM    8  N   UNL     1      23.076  45.124  48.740  1.00  0.00    -0.046 NA
HETATM    9  C   UNL     1      25.104  45.696  51.739  1.00  0.00     0.037 A 
HETATM   10  C   UNL     1      25.559  46.902  52.527  1.00  0.00     0.070 C 
HETATM   11  H   UNL     1      24.138  46.953  50.411  1.00  0.00     0.184 HD
ENDROOT
BRANCH   1  12
HETATM   12  C   UNL     1      26.339  44.118  53.189  1.00  0.00     0.256 C 
HETATM   13  N   UNL     1      27.644  44.520  52.979  1.00  0.00    -0.323 N 
HETATM   14  H   UNL     1      27.824  45.190  52.249  1.00  0.00     0.169 HD
HETATM   15  O   UNL     1      25.902  43.641  54.231  1.00  0.00    -0.267 OA
BRANCH  13  16
HETATM   16  C   UNL     1      28.676  44.413  53.942  1.00  0.00     0.041 A 
HETATM   17  C   UNL     1      29.646  43.395  53.972  1.00  0.00    -0.035 A 
HETATM   18  C   UNL     1      29.801  42.343  52.908  1.00  0.00     0.050 C 
HETATM   19  C   UNL     1      30.571  43.372  55.033  1.00  0.00     0.009 A 
HETATM   20  C   UNL     1      30.576  44.365  56.011  1.00  0.00     0.001 A 
HETATM   21  C   UNL     1      29.661  45.408  55.937  1.00  0.00     0.002 A 
HETATM   22  C   UNL     1      28.726  45.439  54.902  1.00  0.00     0.030 A 
ENDBRANCH  13  16
ENDBRANCH   1  12
BRANCH   2  23
HETATM   23  C   UNL     1      25.922  42.257  50.779  1.00  0.00    -0.026 A 
HETATM   24  C   UNL     1      26.363  42.270  49.442  1.00  0.00     0.035 A 
HETATM   25  C   UNL     1      27.322  41.354  48.993  1.00  0.00     0.056 A 
HETATM   26 CL   UNL     1      27.774  41.424  47.327  1.00  0.00    -0.083 Cl
HETATM   27  C   UNL     1      27.862  40.420  49.880  1.00  0.00     0.055 A 
HETATM   28 CL   UNL     1      29.042  39.256  49.396  1.00  0.00    -0.083 Cl
HETATM   29  C   UNL     1      27.446  40.412  51.214  1.00  0.00     0.026 A 
HETATM   30  C   UNL     1      26.485  41.324  51.663  1.00  0.00     0.011 A 
ENDBRANCH   2  23
BRANCH   7  31
HETATM   31  C   UNL     1      22.004  43.432  47.249  1.00  0.00     0.085 C 
BRANCH  31  32
HETATM   32  C   UNL     1      22.577  42.274  46.435  1.00  0.00     0.034 C 
BRANCH  32  33
HETATM   33  C   UNL     1      21.752  40.997  46.545  1.00  0.00     0.164 C 
BRANCH  33  34
HETATM   34  O   UNL     1      21.815  40.503  47.879  1.00  0.00    -0.401 OA
HETATM   35  H   UNL     1      22.021  39.554  47.830  1.00  0.00     0.209 HD
ENDBRANCH  33  34
ENDBRANCH  32  33
ENDBRANCH  31  32
ENDBRANCH   7  31
TORSDOF 7
ENDMDL
MODEL 5
REMARK VINA RESULT:      -8.0      7.403     11.059
REMARK  7 active torsions:
REMARK  status: ('A' for Active; 'I' for Inactive)
REMARK    1  A    between atoms: C_3  and  N_4 
REMARK       I    between atoms: N_4  and  C_5 
REMARK    2  A    between atoms: C_5  and  C_6 
REMARK    3  A    between atoms: C_7  and  C_8 
REMARK    4  A    between atoms: C_20  and  C_21 
REMARK    5  A    between atoms: C_21  and  C_22 
REMARK    6  A    between atoms: C_22  and  C_23 
REMARK    7  A    between atoms: C_23  and  O_24 
ROOT
HETATM    1  C   UNL     1      21.642  49.294  48.860  1.00  0.00     0.062 A 
HETATM    2  C   UNL     1      20.214  48.919  49.247  1.00  0.00     0.202 A 
HETATM    3  N   UNL     1      19.325  50.086  49.274  1.00  0.00    -0.083 N 
HETATM    4  C   UNL     1      19.738  51.366  49.035  1.00  0.00     0.726 A 
HETATM    5  N   UNL     1      21.026  51.593  48.729  1.00  0.00    -0.192 N 
HETATM    6  N   UNL     1      18.036  50.051  49.674  1.00  0.00    -0.140 NA
HETATM    7  C   UNL     1      17.706  51.348  49.563  1.00  0.00     0.166 A 
HETATM    8  N   UNL     1      18.729  52.184  49.180  1.00  0.00    -0.046 NA
HETATM    9  C   UNL     1      21.983  50.590  48.629  1.00  0.00     0.037 A 
HETATM   10  C   UNL     1      23.376  51.060  48.281  1.00  0.00     0.070 C 
HETATM   11  H   UNL     1      21.322  52.548  48.544  1.00  0.00     0.184 HD
ENDROOT
BRANCH   1  12
HETATM   12  C   UNL     1      22.642  48.206  48.621  1.00  0.00     0.256 C 
HETATM   13  N   UNL     1      23.307  47.757  49.745  1.00  0.00    -0.323 N 
HETATM   14  H   UNL     1      22.915  47.973  50.648  1.00  0.00     0.169 HD
HETATM   15  O   UNL     1      22.745  47.728  47.496  1.00  0.00    -0.267 OA
BRANCH  13  16
HETATM   16  C   UNL     1      24.230  46.683  49.750  1.00  0.00     0.041 A 
HETATM   17  C   UNL     1      25.629  46.826  49.762  1.00  0.00    -0.035 A 
HETATM   18  C   UNL     1      26.344  48.142  49.899  1.00  0.00     0.050 C 
HETATM   19  C   UNL     1      26.428  45.669  49.691  1.00  0.00     0.009 A 
HETATM   20  C   UNL     1      25.859  44.396  49.668  1.00  0.00     0.001 A 
HETATM   21  C   UNL     1      24.478  44.259  49.729  1.00  0.00     0.002 A 
HETATM   22  C   UNL     1      23.669  45.395  49.783  1.00  0.00     0.030 A 
ENDBRANCH  13  16
ENDBRANCH   1  12
BRANCH   2  23
HETATM   23  C   UNL     1      19.603  47.817  48.383  1.00  0.00    -0.026 A 
HETATM   24  C   UNL     1      19.272  48.086  47.042  1.00  0.00     0.035 A 
HETATM   25  C   UNL     1      18.686  47.103  46.235  1.00  0.00     0.056 A 
HETATM   26 CL   UNL     1      18.283  47.539  44.613  1.00  0.00    -0.083 Cl
HETATM   27  C   UNL     1      18.436  45.832  46.757  1.00  0.00     0.055 A 
HETATM   28 CL   UNL     1      17.710  44.573  45.823  1.00  0.00    -0.083 Cl
HETATM   29  C   UNL     1      18.780  45.548  48.081  1.00  0.00     0.026 A 
HETATM   30  C   UNL     1      19.361  46.530  48.889  1.00  0.00     0.011 A 
ENDBRANCH   2  23
BRANCH   7  31
HETATM   31  C   UNL     1      16.349  51.866  49.869  1.00  0.00     0.085 C 
BRANCH  31  32
HETATM   32  C   UNL     1      16.315  53.377  50.083  1.00  0.00     0.034 C 
BRANCH  32  33
HETATM   33  C   UNL     1      14.957  53.887  50.552  1.00  0.00     0.164 C 
BRANCH  33  34
HETATM   34  O   UNL     1      15.017  54.196  51.940  1.00  0.00    -0.401 OA
HETATM   35  H   UNL     1      14.810  53.383  52.431  1.00  0.00     0.209 HD
ENDBRANCH  33  34
ENDBRANCH  32  33
ENDBRANCH  31  32
ENDBRANCH   7  31
TORSDOF 7
ENDMDL
MODEL 6
REMARK VINA RESULT:      -7.9      3.610      7.882
REMARK  7 active torsions:
REMARK  status: ('A' for Active; 'I' for Inactive)
REMARK    1  A    between atoms: C_3  and  N_4 
REMARK       I    between atoms: N_4  and  C_5 
REMARK    2  A    between atoms: C_5  and  C_6 
REMARK    3  A    between atoms: C_7  and  C_8 
REMARK    4  A    between atoms: C_20  and  C_21 
REMARK    5  A    between atoms: C_21  and  C_22 
REMARK    6  A    between atoms: C_22  and  C_23 
REMARK    7  A    between atoms: C_23  and  O_24 
ROOT
HETATM    1  C   UNL     1      24.254  44.410  50.337  1.00  0.00     0.062 A 
HETATM    2  C   UNL     1      24.552  45.643  51.185  1.00  0.00     0.202 A 
HETATM    3  N   UNL     1      25.475  45.345  52.285  1.00  0.00    -0.083 N 
HETATM    4  C   UNL     1      25.968  44.100  52.553  1.00  0.00     0.726 A 
HETATM    5  N   UNL     1      25.620  43.073  51.760  1.00  0.00    -0.192 N 
HETATM    6  N   UNL     1      25.832  46.231  53.240  1.00  0.00    -0.140 NA
HETATM    7  C   UNL     1      26.622  45.464  54.008  1.00  0.00     0.166 A 
HETATM    8  N   UNL     1      26.722  44.149  53.620  1.00  0.00    -0.046 NA
HETATM    9  C   UNL     1      24.784  43.199  50.658  1.00  0.00     0.037 A 
HETATM   10  C   UNL     1      24.514  41.919  49.903  1.00  0.00     0.070 C 
HETATM   11  H   UNL     1      26.000  42.151  51.962  1.00  0.00     0.184 HD
ENDROOT
BRANCH   1  12
HETATM   12  C   UNL     1      23.463  44.566  49.075  1.00  0.00     0.256 C 
HETATM   13  N   UNL     1      22.114  44.803  49.248  1.00  0.00    -0.323 N 
HETATM   14  H   UNL     1      21.797  45.113  50.153  1.00  0.00     0.169 HD
HETATM   15  O   UNL     1      24.052  44.569  47.999  1.00  0.00    -0.267 OA
BRANCH  13  16
HETATM   16  C   UNL     1      21.206  45.059  48.192  1.00  0.00     0.041 A 
HETATM   17  C   UNL     1      20.537  46.279  47.986  1.00  0.00    -0.035 A 
HETATM   18  C   UNL     1      20.788  47.528  48.785  1.00  0.00     0.050 C 
HETATM   19  C   UNL     1      19.604  46.369  46.935  1.00  0.00     0.009 A 
HETATM   20  C   UNL     1      19.378  45.298  46.072  1.00  0.00     0.001 A 
HETATM   21  C   UNL     1      20.095  44.119  46.238  1.00  0.00     0.002 A 
HETATM   22  C   UNL     1      21.012  44.005  47.283  1.00  0.00     0.030 A 
ENDBRANCH  13  16
ENDBRANCH   1  12
BRANCH   2  23
HETATM   23  C   UNL     1      25.060  46.841  50.386  1.00  0.00    -0.026 A 
HETATM   24  C   UNL     1      24.150  47.820  49.944  1.00  0.00     0.035 A 
HETATM   25  C   UNL     1      24.583  48.914  49.186  1.00  0.00     0.056 A 
HETATM   26 CL   UNL     1      23.387  50.044  48.659  1.00  0.00    -0.083 Cl
HETATM   27  C   UNL     1      25.937  49.052  48.871  1.00  0.00     0.055 A 
HETATM   28 CL   UNL     1      26.542  50.371  47.936  1.00  0.00    -0.083 Cl
HETATM   29  C   UNL     1      26.852  48.097  49.323  1.00  0.00     0.026 A 
HETATM   30  C   UNL     1      26.420  47.001  50.076  1.00  0.00     0.011 A 
ENDBRANCH   2  23
BRANCH   7  31
HETATM   31  C   UNL     1      27.313  45.974  55.219  1.00  0.00     0.085 C 
BRANCH  31  32
HETATM   32  C   UNL     1      27.617  47.469  55.156  1.00  0.00     0.034 C 
BRANCH  32  33
HETATM   33  C   UNL     1      26.571  48.324  55.863  1.00  0.00     0.164 C 
BRANCH  33  34
HETATM   34  O   UNL     1      25.569  48.718  54.932  1.00  0.00    -0.401 OA
HETATM   35  H   UNL     1      25.991  48.789  54.059  1.00  0.00     0.209 HD
ENDBRANCH  33  34
ENDBRANCH  32  33
ENDBRANCH  31  32
ENDBRANCH   7  31
TORSDOF 7
ENDMDL
MODEL 7
REMARK VINA RESULT:      -7.9      2.324      3.149
REMARK  7 active torsions:
REMARK  status: ('A' for Active; 'I' for Inactive)
REMARK    1  A    between atoms: C_3  and  N_4 
REMARK       I    between atoms: N_4  and  C_5 
REMARK    2  A    between atoms: C_5  and  C_6 
REMARK    3  A    between atoms: C_7  and  C_8 
REMARK    4  A    between atoms: C_20  and  C_21 
REMARK    5  A    between atoms: C_21  and  C_22 
REMARK    6  A    between atoms: C_22  and  C_23 
REMARK    7  A    between atoms: C_23  and  O_24 
ROOT
HETATM    1  C   UNL     1      28.442  40.553  50.354  1.00  0.00     0.062 A 
HETATM    2  C   UNL     1      27.914  41.305  49.136  1.00  0.00     0.202 A 
HETATM    3  N   UNL     1      27.896  40.464  47.934  1.00  0.00    -0.083 N 
HETATM    4  C   UNL     1      28.348  39.176  47.896  1.00  0.00     0.726 A 
HETATM    5  N   UNL     1      28.820  38.614  49.021  1.00  0.00    -0.192 N 
HETATM    6  N   UNL     1      27.563  40.906  46.702  1.00  0.00    -0.140 NA
HETATM    7  C   UNL     1      27.757  39.792  45.978  1.00  0.00     0.166 A 
HETATM    8  N   UNL     1      28.244  38.713  46.678  1.00  0.00    -0.046 NA
HETATM    9  C   UNL     1      28.871  39.267  50.247  1.00  0.00     0.037 A 
HETATM   10  C   UNL     1      29.445  38.457  51.386  1.00  0.00     0.070 C 
HETATM   11  H   UNL     1      29.146  37.652  48.985  1.00  0.00     0.184 HD
ENDROOT
BRANCH   1  12
HETATM   12  C   UNL     1      28.374  41.205  51.701  1.00  0.00     0.256 C 
HETATM   13  N   UNL     1      29.281  42.225  51.910  1.00  0.00    -0.323 N 
HETATM   14  H   UNL     1      29.727  42.638  51.106  1.00  0.00     0.169 HD
HETATM   15  O   UNL     1      27.487  40.873  52.480  1.00  0.00    -0.267 OA
BRANCH  13  16
HETATM   16  C   UNL     1      29.330  43.022  53.079  1.00  0.00     0.041 A 
HETATM   17  C   UNL     1      28.440  44.069  53.376  1.00  0.00    -0.035 A 
HETATM   18  C   UNL     1      27.228  44.409  52.553  1.00  0.00     0.050 C 
HETATM   19  C   UNL     1      28.653  44.828  54.543  1.00  0.00     0.009 A 
HETATM   20  C   UNL     1      29.688  44.524  55.426  1.00  0.00     0.001 A 
HETATM   21  C   UNL     1      30.521  43.443  55.163  1.00  0.00     0.002 A 
HETATM   22  C   UNL     1      30.335  42.689  54.004  1.00  0.00     0.030 A 
ENDBRANCH  13  16
ENDBRANCH   1  12
BRANCH   2  23
HETATM   23  C   UNL     1      26.544  41.949  49.346  1.00  0.00    -0.026 A 
HETATM   24  C   UNL     1      26.426  43.351  49.344  1.00  0.00     0.035 A 
HETATM   25  C   UNL     1      25.188  43.968  49.561  1.00  0.00     0.056 A 
HETATM   26 CL   UNL     1      25.149  45.696  49.577  1.00  0.00    -0.083 Cl
HETATM   27  C   UNL     1      24.048  43.189  49.769  1.00  0.00     0.055 A 
HETATM   28 CL   UNL     1      22.491  43.880  50.050  1.00  0.00    -0.083 Cl
HETATM   29  C   UNL     1      24.151  41.795  49.752  1.00  0.00     0.026 A 
HETATM   30  C   UNL     1      25.388  41.178  49.540  1.00  0.00     0.011 A 
ENDBRANCH   2  23
BRANCH   7  31
HETATM   31  C   UNL     1      27.506  39.724  44.517  1.00  0.00     0.085 C 
BRANCH  31  32
HETATM   32  C   UNL     1      27.878  41.009  43.781  1.00  0.00     0.034 C 
BRANCH  32  33
HETATM   33  C   UNL     1      29.167  40.886  42.976  1.00  0.00     0.164 C 
BRANCH  33  34
HETATM   34  O   UNL     1      29.037  41.607  41.755  1.00  0.00    -0.401 OA
HETATM   35  H   UNL     1      28.791  42.521  41.978  1.00  0.00     0.209 HD
ENDBRANCH  33  34
ENDBRANCH  32  33
ENDBRANCH  31  32
ENDBRANCH   7  31
TORSDOF 7
ENDMDL
MODEL 8
REMARK VINA RESULT:      -7.9      3.445      7.816
REMARK  7 active torsions:
REMARK  status: ('A' for Active; 'I' for Inactive)
REMARK    1  A    between atoms: C_3  and  N_4 
REMARK       I    between atoms: N_4  and  C_5 
REMARK    2  A    between atoms: C_5  and  C_6 
REMARK    3  A    between atoms: C_7  and  C_8 
REMARK    4  A    between atoms: C_20  and  C_21 
REMARK    5  A    between atoms: C_21  and  C_22 
REMARK    6  A    between atoms: C_22  and  C_23 
REMARK    7  A    between atoms: C_23  and  O_24 
ROOT
HETATM    1  C   UNL     1      24.425  43.896  50.503  1.00  0.00     0.062 A 
HETATM    2  C   UNL     1      24.572  45.189  51.300  1.00  0.00     0.202 A 
HETATM    3  N   UNL     1      25.658  45.110  52.284  1.00  0.00    -0.083 N 
HETATM    4  C   UNL     1      26.413  43.992  52.500  1.00  0.00     0.726 A 
HETATM    5  N   UNL     1      26.184  42.894  51.761  1.00  0.00    -0.192 N 
HETATM    6  N   UNL     1      25.942  46.077  53.182  1.00  0.00    -0.140 NA
HETATM    7  C   UNL     1      26.950  45.502  53.856  1.00  0.00     0.166 A 
HETATM    8  N   UNL     1      27.262  44.220  53.468  1.00  0.00    -0.046 NA
HETATM    9  C   UNL     1      25.216  42.822  50.766  1.00  0.00     0.037 A 
HETATM   10  C   UNL     1      25.118  41.491  50.058  1.00  0.00     0.070 C 
HETATM   11  H   UNL     1      26.758  42.070  51.923  1.00  0.00     0.184 HD
ENDROOT
BRANCH   1  12
HETATM   12  C   UNL     1      23.478  43.858  49.344  1.00  0.00     0.256 C 
HETATM   13  N   UNL     1      24.042  44.117  48.111  1.00  0.00    -0.323 N 
HETATM   14  H   UNL     1      25.044  44.051  48.021  1.00  0.00     0.169 HD
HETATM   15  O   UNL     1      22.315  43.518  49.535  1.00  0.00    -0.267 OA
BRANCH  13  16
HETATM   16  C   UNL     1      23.341  44.051  46.882  1.00  0.00     0.041 A 
HETATM   17  C   UNL     1      23.345  42.946  46.012  1.00  0.00    -0.035 A 
HETATM   18  C   UNL     1      23.993  41.626  46.325  1.00  0.00     0.050 C 
HETATM   19  C   UNL     1      22.661  43.048  44.786  1.00  0.00     0.009 A 
HETATM   20  C   UNL     1      21.941  44.194  44.451  1.00  0.00     0.001 A 
HETATM   21  C   UNL     1      21.882  45.255  45.346  1.00  0.00     0.002 A 
HETATM   22  C   UNL     1      22.567  45.179  46.559  1.00  0.00     0.030 A 
ENDBRANCH  13  16
ENDBRANCH   1  12
BRANCH   2  23
HETATM   23  C   UNL     1      24.739  46.438  50.437  1.00  0.00    -0.026 A 
HETATM   24  C   UNL     1      26.030  46.922  50.154  1.00  0.00     0.035 A 
HETATM   25  C   UNL     1      26.212  48.081  49.389  1.00  0.00     0.056 A 
HETATM   26 CL   UNL     1      27.833  48.616  49.125  1.00  0.00    -0.083 Cl
HETATM   27  C   UNL     1      25.102  48.763  48.884  1.00  0.00     0.055 A 
HETATM   28 CL   UNL     1      25.250  50.201  47.939  1.00  0.00    -0.083 Cl
HETATM   29  C   UNL     1      23.817  48.280  49.142  1.00  0.00     0.026 A 
HETATM   30  C   UNL     1      23.634  47.125  49.910  1.00  0.00     0.011 A 
ENDBRANCH   2  23
BRANCH   7  31
HETATM   31  C   UNL     1      27.664  46.172  54.972  1.00  0.00     0.085 C 
BRANCH  31  32
HETATM   32  C   UNL     1      27.710  47.692  54.831  1.00  0.00     0.034 C 
BRANCH  32  33
HETATM   33  C   UNL     1      26.619  48.402  55.624  1.00  0.00     0.164 C 
BRANCH  33  34
HETATM   34  O   UNL     1      25.500  48.649  54.780  1.00  0.00    -0.401 OA
HETATM   35  H   UNL     1      25.175  49.543  54.978  1.00  0.00     0.209 HD
ENDBRANCH  33  34
ENDBRANCH  32  33
ENDBRANCH  31  32
ENDBRANCH   7  31
TORSDOF 7
ENDMDL
MODEL 9
REMARK VINA RESULT:      -7.7      3.737      5.879
REMARK  7 active torsions:
REMARK  status: ('A' for Active; 'I' for Inactive)
REMARK    1  A    between atoms: C_3  and  N_4 
REMARK       I    between atoms: N_4  and  C_5 
REMARK    2  A    between atoms: C_5  and  C_6 
REMARK    3  A    between atoms: C_7  and  C_8 
REMARK    4  A    between atoms: C_20  and  C_21 
REMARK    5  A    between atoms: C_21  and  C_22 
REMARK    6  A    between atoms: C_22  and  C_23 
REMARK    7  A    between atoms: C_23  and  O_24 
ROOT
HETATM    1  C   UNL     1      25.595  44.822  52.355  1.00  0.00     0.062 A 
HETATM    2  C   UNL     1      25.005  43.804  51.383  1.00  0.00     0.202 A 
HETATM    3  N   UNL     1      24.264  44.448  50.293  1.00  0.00    -0.083 N 
HETATM    4  C   UNL     1      24.078  45.797  50.189  1.00  0.00     0.726 A 
HETATM    5  N   UNL     1      24.617  46.606  51.116  1.00  0.00    -0.192 N 
HETATM    6  N   UNL     1      23.566  43.780  49.349  1.00  0.00    -0.140 NA
HETATM    7  C   UNL     1      23.051  44.804  48.650  1.00  0.00     0.166 A 
HETATM    8  N   UNL     1      23.340  46.056  49.141  1.00  0.00    -0.046 NA
HETATM    9  C   UNL     1      25.375  46.153  52.188  1.00  0.00     0.037 A 
HETATM   10  C   UNL     1      25.884  47.229  53.119  1.00  0.00     0.070 C 
HETATM   11  H   UNL     1      24.481  47.610  51.024  1.00  0.00     0.184 HD
ENDROOT
BRANCH   1  12
HETATM   12  C   UNL     1      26.521  44.349  53.433  1.00  0.00     0.256 C 
HETATM   13  N   UNL     1      27.832  44.763  53.310  1.00  0.00    -0.323 N 
HETATM   14  H   UNL     1      28.031  45.538  52.697  1.00  0.00     0.169 HD
HETATM   15  O   UNL     1      26.060  43.721  54.381  1.00  0.00    -0.267 OA
BRANCH  13  16
HETATM   16  C   UNL     1      28.846  44.496  54.261  1.00  0.00     0.041 A 
HETATM   17  C   UNL     1      29.145  45.308  55.369  1.00  0.00    -0.035 A 
HETATM   18  C   UNL     1      28.342  46.514  55.774  1.00  0.00     0.050 C 
HETATM   19  C   UNL     1      30.231  44.958  56.193  1.00  0.00     0.009 A 
HETATM   20  C   UNL     1      30.972  43.799  55.961  1.00  0.00     0.001 A 
HETATM   21  C   UNL     1      30.627  42.963  54.907  1.00  0.00     0.002 A 
HETATM   22  C   UNL     1      29.564  43.302  54.070  1.00  0.00     0.030 A 
ENDBRANCH  13  16
ENDBRANCH   1  12
BRANCH   2  23
HETATM   23  C   UNL     1      26.026  42.822  50.812  1.00  0.00    -0.026 A 
HETATM   24  C   UNL     1      26.815  42.051  51.687  1.00  0.00     0.035 A 
HETATM   25  C   UNL     1      27.778  41.163  51.193  1.00  0.00     0.056 A 
HETATM   26 CL   UNL     1      28.722  40.287  52.345  1.00  0.00    -0.083 Cl
HETATM   27  C   UNL     1      27.955  41.024  49.814  1.00  0.00     0.055 A 
HETATM   28 CL   UNL     1      29.127  39.954  49.134  1.00  0.00    -0.083 Cl
HETATM   29  C   UNL     1      27.163  41.769  48.937  1.00  0.00     0.026 A 
HETATM   30  C   UNL     1      26.204  42.659  49.430  1.00  0.00     0.011 A 
ENDBRANCH   2  23
BRANCH   7  31
HETATM   31  C   UNL     1      22.195  44.616  47.452  1.00  0.00     0.085 C 
BRANCH  31  32
HETATM   32  C   UNL     1      21.809  45.929  46.775  1.00  0.00     0.034 C 
BRANCH  32  33
HETATM   33  C   UNL     1      21.264  45.738  45.364  1.00  0.00     0.164 C 
BRANCH  33  34
HETATM   34  O   UNL     1      22.347  45.648  44.444  1.00  0.00    -0.401 OA
HETATM   35  H   UNL     1      21.979  45.383  43.583  1.00  0.00     0.209 HD
ENDBRANCH  33  34
ENDBRANCH  32  33
ENDBRANCH  31  32
ENDBRANCH   7  31
TORSDOF 7
ENDMDL
MODEL 10
REMARK VINA RESULT:      -7.7      4.041      6.747
REMARK  7 active torsions:
REMARK  status: ('A' for Active; 'I' for Inactive)
REMARK    1  A    between atoms: C_3  and  N_4 
REMARK       I    between atoms: N_4  and  C_5 
REMARK    2  A    between atoms: C_5  and  C_6 
REMARK    3  A    between atoms: C_7  and  C_8 
REMARK    4  A    between atoms: C_20  and  C_21 
REMARK    5  A    between atoms: C_21  and  C_22 
REMARK    6  A    between atoms: C_22  and  C_23 
REMARK    7  A    between atoms: C_23  and  O_24 
ROOT
HETATM    1  C   UNL     1      25.220  45.367  50.228  1.00  0.00     0.062 A 
HETATM    2  C   UNL     1      24.096  44.347  50.069  1.00  0.00     0.202 A 
HETATM    3  N   UNL     1      22.928  44.917  49.387  1.00  0.00    -0.083 N 
HETATM    4  C   UNL     1      22.836  46.220  48.990  1.00  0.00     0.726 A 
HETATM    5  N   UNL     1      23.874  47.045  49.203  1.00  0.00    -0.192 N 
HETATM    6  N   UNL     1      21.763  44.261  49.200  1.00  0.00    -0.140 NA
HETATM    7  C   UNL     1      21.035  45.214  48.597  1.00  0.00     0.166 A 
HETATM    8  N   UNL     1      21.661  46.432  48.458  1.00  0.00    -0.046 NA
HETATM    9  C   UNL     1      25.063  46.650  49.804  1.00  0.00     0.037 A 
HETATM   10  C   UNL     1      26.102  47.736  49.955  1.00  0.00     0.070 C 
HETATM   11  H   UNL     1      23.799  48.012  48.895  1.00  0.00     0.184 HD
ENDROOT
BRANCH   1  12
HETATM   12  C   UNL     1      26.547  44.914  50.752  1.00  0.00     0.256 C 
HETATM   13  N   UNL     1      26.569  44.569  52.089  1.00  0.00    -0.323 N 
HETATM   14  H   UNL     1      25.690  44.386  52.548  1.00  0.00     0.169 HD
HETATM   15  O   UNL     1      27.485  44.789  49.972  1.00  0.00    -0.267 OA
BRANCH  13  16
HETATM   16  C   UNL     1      27.698  44.040  52.759  1.00  0.00     0.041 A 
HETATM   17  C   UNL     1      28.289  44.601  53.906  1.00  0.00    -0.035 A 
HETATM   18  C   UNL     1      27.725  45.774  54.659  1.00  0.00     0.050 C 
HETATM   19  C   UNL     1      29.456  44.009  54.425  1.00  0.00     0.009 A 
HETATM   20  C   UNL     1      29.996  42.855  53.859  1.00  0.00     0.001 A 
HETATM   21  C   UNL     1      29.367  42.264  52.770  1.00  0.00     0.002 A 
HETATM   22  C   UNL     1      28.219  42.845  52.231  1.00  0.00     0.030 A 
ENDBRANCH  13  16
ENDBRANCH   1  12
BRANCH   2  23
HETATM   23  C   UNL     1      24.523  43.051  49.382  1.00  0.00    -0.026 A 
HETATM   24  C   UNL     1      25.121  42.027  50.139  1.00  0.00     0.035 A 
HETATM   25  C   UNL     1      25.547  40.839  49.531  1.00  0.00     0.056 A 
HETATM   26 CL   UNL     1      26.303  39.655  50.537  1.00  0.00    -0.083 Cl
HETATM   27  C   UNL     1      25.367  40.656  48.158  1.00  0.00     0.055 A 
HETATM   28 CL   UNL     1      25.874  39.222  47.341  1.00  0.00    -0.083 Cl
HETATM   29  C   UNL     1      24.756  41.659  47.401  1.00  0.00     0.026 A 
HETATM   30  C   UNL     1      24.334  42.847  48.007  1.00  0.00     0.011 A 
ENDBRANCH   2  23
BRANCH   7  31
HETATM   31  C   UNL     1      19.638  45.000  48.143  1.00  0.00     0.085 C 
BRANCH  31  32
HETATM   32  C   UNL     1      18.972  46.271  47.621  1.00  0.00     0.034 C 
BRANCH  32  33
HETATM   33  C   UNL     1      17.588  46.510  48.214  1.00  0.00     0.164 C 
BRANCH  33  34
HETATM   34  O   UNL     1      17.003  45.264  48.575  1.00  0.00    -0.401 OA
HETATM   35  H   UNL     1      16.368  45.026  47.878  1.00  0.00     0.209 HD
ENDBRANCH  33  34
ENDBRANCH  32  33
ENDBRANCH  31  32
ENDBRANCH   7  31
TORSDOF 7
ENDMDL
