MODEL 1
REMARK VINA RESULT:      -7.1      0.000      0.000
REMARK  3 active torsions:
REMARK  status: ('A' for Active; 'I' for Inactive)
REMARK    1  A    between atoms: C_4  and  N_5 
REMARK    2  A    between atoms: N_5  and  C_6 
REMARK    3  A    between atoms: C_14  and  C_15 
REMARK       I    between atoms: C_15  and  N_16 
ROOT
HETATM    1  C   UNL     1      31.039  44.257  56.046  1.00  0.00     0.020 A 
HETATM    2  C   UNL     1      30.170  45.309  56.259  1.00  0.00     0.119 A 
HETATM    3  N   UNL     1      28.949  45.403  55.686  1.00  0.00    -0.242 NA
HETATM    4  C   UNL     1      28.546  44.423  54.838  1.00  0.00     0.143 A 
HETATM    5  C   UNL     1      29.370  43.313  54.589  1.00  0.00     0.077 A 
HETATM    6  C   UNL     1      30.631  43.238  55.196  1.00  0.00     0.022 A 
ENDROOT
BRANCH   4   7
HETATM    7  N   UNL     1      27.259  44.493  54.256  1.00  0.00    -0.339 N 
HETATM    8  H   UNL     1      26.780  43.589  54.342  1.00  0.00     0.167 HD
BRANCH   7   9
HETATM    9  C   UNL     1      26.826  45.228  53.130  1.00  0.00     0.055 A 
HETATM   10  C   UNL     1      26.356  46.551  53.272  1.00  0.00     0.062 A 
HETATM   11 CL   UNL     1      26.248  47.285  54.836  1.00  0.00    -0.082 Cl
HETATM   12  C   UNL     1      25.952  47.304  52.167  1.00  0.00     0.050 A 
HETATM   13  C   UNL     1      26.026  46.745  50.896  1.00  0.00     0.035 A 
HETATM   14 CL   UNL     1      25.537  47.665  49.526  1.00  0.00    -0.084 Cl
HETATM   15  C   UNL     1      26.499  45.448  50.723  1.00  0.00     0.026 A 
HETATM   16  C   UNL     1      26.897  44.698  51.834  1.00  0.00     0.033 A 
ENDBRANCH   7   9
ENDBRANCH   4   7
BRANCH   5  17
HETATM   17  C   UNL     1      28.936  42.252  53.650  1.00  0.00     0.253 C 
HETATM   18  N   UNL     1      29.786  41.937  52.626  1.00  0.00    -0.366 N 
HETATM   19  H   UNL     1      30.755  42.223  52.618  1.00  0.00     0.159 HD
HETATM   20  H   UNL     1      29.531  41.135  52.062  1.00  0.00     0.159 HD
HETATM   21  O   UNL     1      27.868  41.669  53.794  1.00  0.00    -0.268 OA
ENDBRANCH   5  17
TORSDOF 3
ENDMDL
MODEL 2
REMARK VINA RESULT:      -6.9      1.352      1.819
REMARK  3 active torsions:
REMARK  status: ('A' for Active; 'I' for Inactive)
REMARK    1  A    between atoms: C_4  and  N_5 
REMARK    2  A    between atoms: N_5  and  C_6 
REMARK    3  A    between atoms: C_14  and  C_15 
REMARK       I    between atoms: C_15  and  N_16 
ROOT
HETATM    1  C   UNL     1      30.665  44.323  55.914  1.00  0.00     0.020 A 
HETATM    2  C   UNL     1      29.750  45.357  55.904  1.00  0.00     0.119 A 
HETATM    3  N   UNL     1      28.605  45.342  55.187  1.00  0.00    -0.242 NA
HETATM    4  C   UNL     1      28.330  44.261  54.414  1.00  0.00     0.143 A 
HETATM    5  C   UNL     1      29.206  43.162  54.388  1.00  0.00     0.077 A 
HETATM    6  C   UNL     1      30.387  43.202  55.142  1.00  0.00     0.022 A 
ENDROOT
BRANCH   4   7
HETATM    7  N   UNL     1      27.121  44.217  53.682  1.00  0.00    -0.339 N 
HETATM    8  H   UNL     1      26.883  43.246  53.447  1.00  0.00     0.167 HD
BRANCH   7   9
HETATM    9  C   UNL     1      26.609  45.141  52.744  1.00  0.00     0.055 A 
HETATM   10  C   UNL     1      26.663  44.868  51.362  1.00  0.00     0.062 A 
HETATM   11 CL   UNL     1      27.406  43.417  50.777  1.00  0.00    -0.082 Cl
HETATM   12  C   UNL     1      26.135  45.757  50.422  1.00  0.00     0.050 A 
HETATM   13  C   UNL     1      25.531  46.931  50.856  1.00  0.00     0.035 A 
HETATM   14 CL   UNL     1      24.871  48.030  49.708  1.00  0.00    -0.084 Cl
HETATM   15  C   UNL     1      25.450  47.221  52.215  1.00  0.00     0.026 A 
HETATM   16  C   UNL     1      25.985  46.329  53.149  1.00  0.00     0.033 A 
ENDBRANCH   7   9
ENDBRANCH   4   7
BRANCH   5  17
HETATM   17  C   UNL     1      28.914  41.989  53.532  1.00  0.00     0.253 C 
HETATM   18  N   UNL     1      29.819  41.691  52.550  1.00  0.00    -0.366 N 
HETATM   19  H   UNL     1      30.751  42.081  52.535  1.00  0.00     0.159 HD
HETATM   20  H   UNL     1      29.667  40.824  52.049  1.00  0.00     0.159 HD
HETATM   21  O   UNL     1      27.913  41.305  53.705  1.00  0.00    -0.268 OA
ENDBRANCH   5  17
TORSDOF 3
ENDMDL
MODEL 3
REMARK VINA RESULT:      -6.9      6.188      8.370
REMARK  3 active torsions:
REMARK  status: ('A' for Active; 'I' for Inactive)
REMARK    1  A    between atoms: C_4  and  N_5 
REMARK    2  A    between atoms: N_5  and  C_6 
REMARK    3  A    between atoms: C_14  and  C_15 
REMARK       I    between atoms: C_15  and  N_16 
ROOT
HETATM    1  C   UNL     1      26.186  46.767  50.564  1.00  0.00     0.020 A 
HETATM    2  C   UNL     1      24.812  46.651  50.643  1.00  0.00     0.119 A 
HETATM    3  N   UNL     1      23.949  47.477  50.011  1.00  0.00    -0.242 NA
HETATM    4  C   UNL     1      24.446  48.495  49.263  1.00  0.00     0.143 A 
HETATM    5  C   UNL     1      25.834  48.663  49.121  1.00  0.00     0.077 A 
HETATM    6  C   UNL     1      26.708  47.792  49.786  1.00  0.00     0.022 A 
ENDROOT
BRANCH   4   7
HETATM    7  N   UNL     1      23.557  49.349  48.570  1.00  0.00    -0.339 N 
HETATM    8  H   UNL     1      24.074  50.114  48.123  1.00  0.00     0.167 HD
BRANCH   7   9
HETATM    9  C   UNL     1      22.230  49.710  48.894  1.00  0.00     0.055 A 
HETATM   10  C   UNL     1      21.139  48.975  48.386  1.00  0.00     0.062 A 
HETATM   11 CL   UNL     1      21.398  47.644  47.309  1.00  0.00    -0.082 Cl
HETATM   12  C   UNL     1      19.822  49.299  48.720  1.00  0.00     0.050 A 
HETATM   13  C   UNL     1      19.578  50.361  49.583  1.00  0.00     0.035 A 
HETATM   14 CL   UNL     1      17.959  50.766  50.006  1.00  0.00    -0.084 Cl
HETATM   15  C   UNL     1      20.634  51.096  50.112  1.00  0.00     0.026 A 
HETATM   16  C   UNL     1      21.950  50.769  49.770  1.00  0.00     0.033 A 
ENDBRANCH   7   9
ENDBRANCH   4   7
BRANCH   5  17
HETATM   17  C   UNL     1      26.375  49.784  48.317  1.00  0.00     0.253 C 
HETATM   18  N   UNL     1      27.548  50.347  48.740  1.00  0.00    -0.366 N 
HETATM   19  H   UNL     1      28.153  49.899  49.414  1.00  0.00     0.159 HD
HETATM   20  H   UNL     1      27.966  51.032  48.121  1.00  0.00     0.159 HD
HETATM   21  O   UNL     1      25.806  50.180  47.308  1.00  0.00    -0.268 OA
ENDBRANCH   5  17
TORSDOF 3
ENDMDL
MODEL 4
REMARK VINA RESULT:      -6.9      4.359      6.973
REMARK  3 active torsions:
REMARK  status: ('A' for Active; 'I' for Inactive)
REMARK    1  A    between atoms: C_4  and  N_5 
REMARK    2  A    between atoms: N_5  and  C_6 
REMARK    3  A    between atoms: C_14  and  C_15 
REMARK       I    between atoms: C_15  and  N_16 
ROOT
HETATM    1  C   UNL     1      24.158  49.895  48.185  1.00  0.00     0.020 A 
HETATM    2  C   UNL     1      23.461  49.102  49.076  1.00  0.00     0.119 A 
HETATM    3  N   UNL     1      24.047  48.223  49.918  1.00  0.00    -0.242 NA
HETATM    4  C   UNL     1      25.397  48.087  49.889  1.00  0.00     0.143 A 
HETATM    5  C   UNL     1      26.173  48.874  49.021  1.00  0.00     0.077 A 
HETATM    6  C   UNL     1      25.542  49.780  48.158  1.00  0.00     0.022 A 
ENDROOT
BRANCH   4   7
HETATM    7  N   UNL     1      26.027  47.193  50.786  1.00  0.00    -0.339 N 
HETATM    8  H   UNL     1      26.892  47.607  51.150  1.00  0.00     0.167 HD
BRANCH   7   9
HETATM    9  C   UNL     1      26.073  45.782  50.757  1.00  0.00     0.055 A 
HETATM   10  C   UNL     1      26.342  45.046  51.929  1.00  0.00     0.062 A 
HETATM   11 CL   UNL     1      26.676  45.857  53.422  1.00  0.00    -0.082 Cl
HETATM   12  C   UNL     1      26.361  43.649  51.926  1.00  0.00     0.050 A 
HETATM   13  C   UNL     1      26.096  42.965  50.744  1.00  0.00     0.035 A 
HETATM   14 CL   UNL     1      26.111  41.244  50.729  1.00  0.00    -0.084 Cl
HETATM   15  C   UNL     1      25.813  43.664  49.575  1.00  0.00     0.026 A 
HETATM   16  C   UNL     1      25.800  45.062  49.585  1.00  0.00     0.033 A 
ENDBRANCH   7   9
ENDBRANCH   4   7
BRANCH   5  17
HETATM   17  C   UNL     1      27.645  48.713  48.977  1.00  0.00     0.253 C 
HETATM   18  N   UNL     1      28.403  49.822  49.236  1.00  0.00    -0.366 N 
HETATM   19  H   UNL     1      28.020  50.654  49.663  1.00  0.00     0.159 HD
HETATM   20  H   UNL     1      29.402  49.674  49.316  1.00  0.00     0.159 HD
HETATM   21  O   UNL     1      28.163  47.630  48.736  1.00  0.00    -0.268 OA
ENDBRANCH   5  17
TORSDOF 3
ENDMDL
MODEL 5
REMARK VINA RESULT:      -6.9      3.928      7.067
REMARK  3 active torsions:
REMARK  status: ('A' for Active; 'I' for Inactive)
REMARK    1  A    between atoms: C_4  and  N_5 
REMARK    2  A    between atoms: N_5  and  C_6 
REMARK    3  A    between atoms: C_14  and  C_15 
REMARK       I    between atoms: C_15  and  N_16 
ROOT
HETATM    1  C   UNL     1      24.041  50.054  48.672  1.00  0.00     0.020 A 
HETATM    2  C   UNL     1      23.307  49.014  49.209  1.00  0.00     0.119 A 
HETATM    3  N   UNL     1      23.853  47.867  49.670  1.00  0.00    -0.242 NA
HETATM    4  C   UNL     1      25.199  47.706  49.594  1.00  0.00     0.143 A 
HETATM    5  C   UNL     1      26.011  48.729  49.076  1.00  0.00     0.077 A 
HETATM    6  C   UNL     1      25.420  49.909  48.605  1.00  0.00     0.022 A 
ENDROOT
BRANCH   4   7
HETATM    7  N   UNL     1      25.789  46.524  50.101  1.00  0.00    -0.339 N 
HETATM    8  H   UNL     1      25.404  45.702  49.623  1.00  0.00     0.167 HD
BRANCH   7   9
HETATM    9  C   UNL     1      26.223  46.234  51.413  1.00  0.00     0.055 A 
HETATM   10  C   UNL     1      26.872  45.017  51.704  1.00  0.00     0.062 A 
HETATM   11 CL   UNL     1      27.104  43.825  50.470  1.00  0.00    -0.082 Cl
HETATM   12  C   UNL     1      27.334  44.725  52.990  1.00  0.00     0.050 A 
HETATM   13  C   UNL     1      27.165  45.660  54.004  1.00  0.00     0.035 A 
HETATM   14 CL   UNL     1      27.736  45.315  55.591  1.00  0.00    -0.084 Cl
HETATM   15  C   UNL     1      26.542  46.877  53.744  1.00  0.00     0.026 A 
HETATM   16  C   UNL     1      26.077  47.159  52.456  1.00  0.00     0.033 A 
ENDBRANCH   7   9
ENDBRANCH   4   7
BRANCH   5  17
HETATM   17  C   UNL     1      27.478  48.545  48.977  1.00  0.00     0.253 C 
HETATM   18  N   UNL     1      28.263  49.633  49.243  1.00  0.00    -0.366 N 
HETATM   19  H   UNL     1      27.910  50.457  49.709  1.00  0.00     0.159 HD
HETATM   20  H   UNL     1      29.262  49.465  49.284  1.00  0.00     0.159 HD
HETATM   21  O   UNL     1      27.968  47.461  48.684  1.00  0.00    -0.268 OA
ENDBRANCH   5  17
TORSDOF 3
ENDMDL
MODEL 6
REMARK VINA RESULT:      -6.9      4.252      7.357
REMARK  3 active torsions:
REMARK  status: ('A' for Active; 'I' for Inactive)
REMARK    1  A    between atoms: C_4  and  N_5 
REMARK    2  A    between atoms: N_5  and  C_6 
REMARK    3  A    between atoms: C_14  and  C_15 
REMARK       I    between atoms: C_15  and  N_16 
ROOT
HETATM    1  C   UNL     1      26.188  50.096  48.040  1.00  0.00     0.020 A 
HETATM    2  C   UNL     1      27.076  49.320  48.759  1.00  0.00     0.119 A 
HETATM    3  N   UNL     1      26.703  48.321  49.589  1.00  0.00    -0.242 NA
HETATM    4  C   UNL     1      25.380  48.063  49.749  1.00  0.00     0.143 A 
HETATM    5  C   UNL     1      24.418  48.799  49.036  1.00  0.00     0.077 A 
HETATM    6  C   UNL     1      24.832  49.830  48.181  1.00  0.00     0.022 A 
ENDROOT
BRANCH   4   7
HETATM    7  N   UNL     1      24.974  47.001  50.590  1.00  0.00    -0.339 N 
HETATM    8  H   UNL     1      23.983  47.101  50.836  1.00  0.00     0.167 HD
BRANCH   7   9
HETATM    9  C   UNL     1      25.711  46.313  51.580  1.00  0.00     0.055 A 
HETATM   10  C   UNL     1      26.460  45.165  51.252  1.00  0.00     0.062 A 
HETATM   11 CL   UNL     1      26.451  44.537  49.639  1.00  0.00    -0.082 Cl
HETATM   12  C   UNL     1      27.219  44.490  52.212  1.00  0.00     0.050 A 
HETATM   13  C   UNL     1      27.249  44.967  53.518  1.00  0.00     0.035 A 
HETATM   14 CL   UNL     1      28.185  44.147  54.707  1.00  0.00    -0.084 Cl
HETATM   15  C   UNL     1      26.532  46.106  53.868  1.00  0.00     0.026 A 
HETATM   16  C   UNL     1      25.771  46.774  52.903  1.00  0.00     0.033 A 
ENDBRANCH   7   9
ENDBRANCH   4   7
BRANCH   5  17
HETATM   17  C   UNL     1      22.975  48.528  49.224  1.00  0.00     0.253 C 
HETATM   18  N   UNL     1      22.215  49.531  49.763  1.00  0.00    -0.366 N 
HETATM   19  H   UNL     1      22.539  50.486  49.821  1.00  0.00     0.159 HD
HETATM   20  H   UNL     1      21.214  49.375  49.780  1.00  0.00     0.159 HD
HETATM   21  O   UNL     1      22.477  47.458  48.897  1.00  0.00    -0.268 OA
ENDBRANCH   5  17
TORSDOF 3
ENDMDL
MODEL 7
REMARK VINA RESULT:      -6.8      2.695      5.613
REMARK  3 active torsions:
REMARK  status: ('A' for Active; 'I' for Inactive)
REMARK    1  A    between atoms: C_4  and  N_5 
REMARK    2  A    between atoms: N_5  and  C_6 
REMARK    3  A    between atoms: C_14  and  C_15 
REMARK       I    between atoms: C_15  and  N_16 
ROOT
HETATM    1  C   UNL     1      25.618  42.940  50.649  1.00  0.00     0.020 A 
HETATM    2  C   UNL     1      26.869  43.422  50.318  1.00  0.00     0.119 A 
HETATM    3  N   UNL     1      27.643  44.145  51.157  1.00  0.00    -0.242 NA
HETATM    4  C   UNL     1      27.172  44.436  52.396  1.00  0.00     0.143 A 
HETATM    5  C   UNL     1      25.915  43.963  52.810  1.00  0.00     0.077 A 
HETATM    6  C   UNL     1      25.131  43.214  51.920  1.00  0.00     0.022 A 
ENDROOT
BRANCH   4   7
HETATM    7  N   UNL     1      27.983  45.165  53.297  1.00  0.00    -0.339 N 
HETATM    8  H   UNL     1      28.232  46.075  52.893  1.00  0.00     0.167 HD
BRANCH   7   9
HETATM    9  C   UNL     1      28.953  44.693  54.209  1.00  0.00     0.055 A 
HETATM   10  C   UNL     1      29.196  45.376  55.418  1.00  0.00     0.062 A 
HETATM   11 CL   UNL     1      28.351  46.841  55.789  1.00  0.00    -0.082 Cl
HETATM   12  C   UNL     1      30.130  44.908  56.346  1.00  0.00     0.050 A 
HETATM   13  C   UNL     1      30.826  43.734  56.080  1.00  0.00     0.035 A 
HETATM   14 CL   UNL     1      31.975  43.143  57.218  1.00  0.00    -0.084 Cl
HETATM   15  C   UNL     1      30.596  43.030  54.902  1.00  0.00     0.026 A 
HETATM   16  C   UNL     1      29.664  43.507  53.976  1.00  0.00     0.033 A 
ENDBRANCH   7   9
ENDBRANCH   4   7
BRANCH   5  17
HETATM   17  C   UNL     1      25.394  44.294  54.156  1.00  0.00     0.253 C 
HETATM   18  N   UNL     1      25.361  43.286  55.079  1.00  0.00    -0.366 N 
HETATM   19  H   UNL     1      25.870  42.422  54.958  1.00  0.00     0.159 HD
HETATM   20  H   UNL     1      25.112  43.552  56.025  1.00  0.00     0.159 HD
HETATM   21  O   UNL     1      25.022  45.428  54.436  1.00  0.00    -0.268 OA
ENDBRANCH   5  17
TORSDOF 3
ENDMDL
MODEL 8
REMARK VINA RESULT:      -6.7      5.710      8.117
REMARK  3 active torsions:
REMARK  status: ('A' for Active; 'I' for Inactive)
REMARK    1  A    between atoms: C_4  and  N_5 
REMARK    2  A    between atoms: N_5  and  C_6 
REMARK    3  A    between atoms: C_14  and  C_15 
REMARK       I    between atoms: C_15  and  N_16 
ROOT
HETATM    1  C   UNL     1      27.249  49.026  48.828  1.00  0.00     0.020 A 
HETATM    2  C   UNL     1      26.299  49.817  48.212  1.00  0.00     0.119 A 
HETATM    3  N   UNL     1      24.969  49.692  48.415  1.00  0.00    -0.242 NA
HETATM    4  C   UNL     1      24.523  48.728  49.259  1.00  0.00     0.143 A 
HETATM    5  C   UNL     1      25.432  47.897  49.936  1.00  0.00     0.077 A 
HETATM    6  C   UNL     1      26.807  48.048  49.709  1.00  0.00     0.022 A 
ENDROOT
BRANCH   4   7
HETATM    7  N   UNL     1      23.136  48.604  49.506  1.00  0.00    -0.339 N 
HETATM    8  H   UNL     1      22.881  47.616  49.613  1.00  0.00     0.167 HD
BRANCH   7   9
HETATM    9  C   UNL     1      22.068  49.390  49.018  1.00  0.00     0.055 A 
HETATM   10  C   UNL     1      21.236  48.910  47.985  1.00  0.00     0.062 A 
HETATM   11 CL   UNL     1      21.536  47.370  47.254  1.00  0.00    -0.082 Cl
HETATM   12  C   UNL     1      20.157  49.660  47.511  1.00  0.00     0.050 A 
HETATM   13  C   UNL     1      19.886  50.901  48.076  1.00  0.00     0.035 A 
HETATM   14 CL   UNL     1      18.556  51.831  47.504  1.00  0.00    -0.084 Cl
HETATM   15  C   UNL     1      20.681  51.394  49.106  1.00  0.00     0.026 A 
HETATM   16  C   UNL     1      21.762  50.640  49.573  1.00  0.00     0.033 A 
ENDBRANCH   7   9
ENDBRANCH   4   7
BRANCH   5  17
HETATM   17  C   UNL     1      24.945  46.834  50.844  1.00  0.00     0.253 C 
HETATM   18  N   UNL     1      25.329  46.906  52.155  1.00  0.00    -0.366 N 
HETATM   19  H   UNL     1      25.722  47.744  52.560  1.00  0.00     0.159 HD
HETATM   20  H   UNL     1      24.897  46.242  52.787  1.00  0.00     0.159 HD
HETATM   21  O   UNL     1      24.216  45.935  50.443  1.00  0.00    -0.268 OA
ENDBRANCH   5  17
TORSDOF 3
ENDMDL
MODEL 9
REMARK VINA RESULT:      -6.6      2.233      2.835
REMARK  3 active torsions:
REMARK  status: ('A' for Active; 'I' for Inactive)
REMARK    1  A    between atoms: C_4  and  N_5 
REMARK    2  A    between atoms: N_5  and  C_6 
REMARK    3  A    between atoms: C_14  and  C_15 
REMARK       I    between atoms: C_15  and  N_16 
ROOT
HETATM    1  C   UNL     1      30.012  42.900  54.146  1.00  0.00     0.020 A 
HETATM    2  C   UNL     1      29.242  43.880  54.741  1.00  0.00     0.119 A 
HETATM    3  N   UNL     1      27.974  44.167  54.374  1.00  0.00    -0.242 NA
HETATM    4  C   UNL     1      27.414  43.470  53.353  1.00  0.00     0.143 A 
HETATM    5  C   UNL     1      28.131  42.445  52.712  1.00  0.00     0.077 A 
HETATM    6  C   UNL     1      29.445  42.167  53.112  1.00  0.00     0.022 A 
ENDROOT
BRANCH   4   7
HETATM    7  N   UNL     1      26.077  43.737  52.977  1.00  0.00    -0.339 N 
HETATM    8  H   UNL     1      25.541  42.863  52.925  1.00  0.00     0.167 HD
BRANCH   7   9
HETATM    9  C   UNL     1      25.573  44.733  52.111  1.00  0.00     0.055 A 
HETATM   10  C   UNL     1      24.651  44.404  51.096  1.00  0.00     0.062 A 
HETATM   11 CL   UNL     1      24.155  42.764  50.853  1.00  0.00    -0.082 Cl
HETATM   12  C   UNL     1      24.120  45.380  50.250  1.00  0.00     0.050 A 
HETATM   13  C   UNL     1      24.496  46.708  50.418  1.00  0.00     0.035 A 
HETATM   14 CL   UNL     1      23.843  47.921  49.385  1.00  0.00    -0.084 Cl
HETATM   15  C   UNL     1      25.393  47.065  51.420  1.00  0.00     0.026 A 
HETATM   16  C   UNL     1      25.924  46.082  52.260  1.00  0.00     0.033 A 
ENDBRANCH   7   9
ENDBRANCH   4   7
BRANCH   5  17
HETATM   17  C   UNL     1      27.526  41.697  51.586  1.00  0.00     0.253 C 
HETATM   18  N   UNL     1      26.989  40.471  51.868  1.00  0.00    -0.366 N 
HETATM   19  H   UNL     1      26.789  40.169  52.811  1.00  0.00     0.159 HD
HETATM   20  H   UNL     1      26.478  40.022  51.116  1.00  0.00     0.159 HD
HETATM   21  O   UNL     1      27.495  42.162  50.453  1.00  0.00    -0.268 OA
ENDBRANCH   5  17
TORSDOF 3
ENDMDL
MODEL 10
REMARK VINA RESULT:      -6.4      7.608     10.050
REMARK  3 active torsions:
REMARK  status: ('A' for Active; 'I' for Inactive)
REMARK    1  A    between atoms: C_4  and  N_5 
REMARK    2  A    between atoms: N_5  and  C_6 
REMARK    3  A    between atoms: C_14  and  C_15 
REMARK       I    between atoms: C_15  and  N_16 
ROOT
HETATM    1  C   UNL     1      18.687  46.340  47.393  1.00  0.00     0.020 A 
HETATM    2  C   UNL     1      20.039  46.313  47.110  1.00  0.00     0.119 A 
HETATM    3  N   UNL     1      20.971  46.983  47.823  1.00  0.00    -0.242 NA
HETATM    4  C   UNL     1      20.570  47.744  48.873  1.00  0.00     0.143 A 
HETATM    5  C   UNL     1      19.212  47.805  49.231  1.00  0.00     0.077 A 
HETATM    6  C   UNL     1      18.265  47.100  48.476  1.00  0.00     0.022 A 
ENDROOT
BRANCH   4   7
HETATM    7  N   UNL     1      21.536  48.427  49.648  1.00  0.00    -0.339 N 
HETATM    8  H   UNL     1      21.088  49.163  50.205  1.00  0.00     0.167 HD
BRANCH   7   9
HETATM    9  C   UNL     1      22.882  48.723  49.340  1.00  0.00     0.055 A 
HETATM   10  C   UNL     1      23.214  49.883  48.610  1.00  0.00     0.062 A 
HETATM   11 CL   UNL     1      21.976  50.943  48.026  1.00  0.00    -0.082 Cl
HETATM   12  C   UNL     1      24.542  50.208  48.321  1.00  0.00     0.050 A 
HETATM   13  C   UNL     1      25.562  49.380  48.775  1.00  0.00     0.035 A 
HETATM   14 CL   UNL     1      27.202  49.773  48.431  1.00  0.00    -0.084 Cl
HETATM   15  C   UNL     1      25.266  48.236  49.510  1.00  0.00     0.026 A 
HETATM   16  C   UNL     1      23.934  47.915  49.791  1.00  0.00     0.033 A 
ENDBRANCH   7   9
ENDBRANCH   4   7
BRANCH   5  17
HETATM   17  C   UNL     1      18.773  48.650  50.366  1.00  0.00     0.253 C 
HETATM   18  N   UNL     1      18.609  48.034  51.577  1.00  0.00    -0.366 N 
HETATM   19  H   UNL     1      18.982  47.116  51.774  1.00  0.00     0.159 HD
HETATM   20  H   UNL     1      18.421  48.641  52.366  1.00  0.00     0.159 HD
HETATM   21  O   UNL     1      18.579  49.852  50.231  1.00  0.00    -0.268 OA
ENDBRANCH   5  17
TORSDOF 3
ENDMDL
