MODEL 1
REMARK VINA RESULT:      -8.2      0.000      0.000
REMARK  3 active torsions:
REMARK  status: ('A' for Active; 'I' for Inactive)
REMARK    1  A    between atoms: C_2  and  N_3 
REMARK    2  A    between atoms: N_10  and  C_11 
REMARK    3  A    between atoms: C_11  and  C_12 
ROOT
HETATM    1  N   UNL     1      23.874  45.048  50.508  1.00  0.00    -0.063 N 
HETATM    2  H   UNL     1      22.850  45.074  50.605  1.00  0.00     0.280 HD
HETATM    3  C   UNL     1      24.378  44.692  51.913  1.00  0.00     0.277 C 
HETATM    4  C   UNL     1      25.913  44.818  52.171  1.00  0.00     0.132 C 
HETATM    5  O   UNL     1      26.660  44.109  51.162  1.00  0.00    -0.373 OA
HETATM    6  C   UNL     1      26.851  42.720  51.461  1.00  0.00     0.199 C 
HETATM    7  C   UNL     1      27.661  42.496  52.748  1.00  0.00     0.299 C 
HETATM    8  N   UNL     1      27.513  43.554  53.765  1.00  0.00     0.097 N 
HETATM    9  C   UNL     1      26.214  44.230  53.602  1.00  0.00     0.314 C 
HETATM   10  C   UNL     1      26.309  46.320  52.175  1.00  0.00     0.209 C 
HETATM   11  O   UNL     1      26.508  46.993  50.941  1.00  0.00    -0.386 OA
HETATM   12  C   UNL     1      25.716  46.653  49.819  1.00  0.00     0.195 C 
HETATM   13  C   UNL     1      24.231  46.480  50.122  1.00  0.00     0.261 C 
ENDROOT
BRANCH   1  14
HETATM   14  C   UNL     1      24.111  43.977  49.420  1.00  0.00     0.180 C 
HETATM   15  C   UNL     1      23.481  44.400  48.089  1.00  0.00     0.039 C 
HETATM   16  C   UNL     1      23.476  42.652  49.852  1.00  0.00     0.039 C 
ENDBRANCH   1  14
BRANCH   8  17
HETATM   17  C   UNL     1      28.657  44.485  53.745  1.00  0.00     0.311 C 
BRANCH  17  18
HETATM   18  C   UNL     1      29.483  44.460  55.016  1.00  0.00    -0.030 A 
HETATM   19  C   UNL     1      29.333  45.479  55.973  1.00  0.00     0.012 A 
HETATM   20  C   UNL     1      30.095  45.469  57.142  1.00  0.00     0.043 A 
HETATM   21  C   UNL     1      30.999  44.438  57.361  1.00  0.00     0.116 A 
HETATM   22  F   UNL     1      31.735  44.434  58.480  1.00  0.00    -0.206 F 
HETATM   23  C   UNL     1      31.157  43.416  56.434  1.00  0.00     0.043 A 
HETATM   24  C   UNL     1      30.397  43.423  55.263  1.00  0.00     0.012 A 
ENDBRANCH  17  18
ENDBRANCH   8  17
TORSDOF 3
ENDMDL
MODEL 2
REMARK VINA RESULT:      -7.6      1.942      3.388
REMARK  3 active torsions:
REMARK  status: ('A' for Active; 'I' for Inactive)
REMARK    1  A    between atoms: C_2  and  N_3 
REMARK    2  A    between atoms: N_10  and  C_11 
REMARK    3  A    between atoms: C_11  and  C_12 
ROOT
HETATM    1  N   UNL     1      25.653  42.150  48.535  1.00  0.00    -0.063 N 
HETATM    2  H   UNL     1      25.716  42.389  47.536  1.00  0.00     0.280 HD
HETATM    3  C   UNL     1      26.534  43.196  49.232  1.00  0.00     0.277 C 
HETATM    4  C   UNL     1      26.856  42.963  50.741  1.00  0.00     0.132 C 
HETATM    5  O   UNL     1      25.646  42.730  51.491  1.00  0.00    -0.373 OA
HETATM    6  C   UNL     1      25.011  43.933  51.941  1.00  0.00     0.199 C 
HETATM    7  C   UNL     1      25.891  44.746  52.903  1.00  0.00     0.299 C 
HETATM    8  N   UNL     1      27.344  44.604  52.684  1.00  0.00     0.097 N 
HETATM    9  C   UNL     1      27.606  44.241  51.279  1.00  0.00     0.314 C 
HETATM   10  C   UNL     1      27.815  41.749  50.879  1.00  0.00     0.209 C 
HETATM   11  O   UNL     1      27.285  40.433  50.837  1.00  0.00    -0.386 OA
HETATM   12  C   UNL     1      26.178  40.147  50.003  1.00  0.00     0.195 C 
HETATM   13  C   UNL     1      26.263  40.754  48.606  1.00  0.00     0.261 C 
ENDROOT
BRANCH   1  14
HETATM   14  C   UNL     1      24.140  42.241  48.837  1.00  0.00     0.180 C 
HETATM   15  C   UNL     1      23.354  41.219  48.010  1.00  0.00     0.039 C 
HETATM   16  C   UNL     1      23.626  43.640  48.486  1.00  0.00     0.039 C 
ENDBRANCH   1  14
BRANCH   8  17
HETATM   17  C   UNL     1      27.945  43.663  53.647  1.00  0.00     0.311 C 
BRANCH  17  18
HETATM   18  C   UNL     1      28.735  44.344  54.748  1.00  0.00    -0.030 A 
HETATM   19  C   UNL     1      29.965  43.807  55.166  1.00  0.00     0.012 A 
HETATM   20  C   UNL     1      30.695  44.421  56.184  1.00  0.00     0.043 A 
HETATM   21  C   UNL     1      30.203  45.576  56.778  1.00  0.00     0.116 A 
HETATM   22  F   UNL     1      30.901  46.161  57.760  1.00  0.00    -0.206 F 
HETATM   23  C   UNL     1      28.994  46.129  56.374  1.00  0.00     0.043 A 
HETATM   24  C   UNL     1      28.261  45.517  55.357  1.00  0.00     0.012 A 
ENDBRANCH  17  18
ENDBRANCH   8  17
TORSDOF 3
ENDMDL
MODEL 3
REMARK VINA RESULT:      -7.3      6.877      9.446
REMARK  3 active torsions:
REMARK  status: ('A' for Active; 'I' for Inactive)
REMARK    1  A    between atoms: C_2  and  N_3 
REMARK    2  A    between atoms: N_10  and  C_11 
REMARK    3  A    between atoms: C_11  and  C_12 
ROOT
HETATM    1  N   UNL     1      17.237  50.326  49.130  1.00  0.00    -0.063 N 
HETATM    2  H   UNL     1      16.538  50.159  49.866  1.00  0.00     0.280 HD
HETATM    3  C   UNL     1      18.510  49.646  49.653  1.00  0.00     0.277 C 
HETATM    4  C   UNL     1      19.836  49.931  48.881  1.00  0.00     0.132 C 
HETATM    5  O   UNL     1      19.667  49.688  47.469  1.00  0.00    -0.373 OA
HETATM    6  C   UNL     1      19.888  48.323  47.092  1.00  0.00     0.199 C 
HETATM    7  C   UNL     1      21.322  47.851  47.381  1.00  0.00     0.299 C 
HETATM    8  N   UNL     1      21.974  48.514  48.526  1.00  0.00     0.097 N 
HETATM    9  C   UNL     1      20.954  48.992  49.477  1.00  0.00     0.314 C 
HETATM   10  C   UNL     1      20.265  51.404  49.124  1.00  0.00     0.209 C 
HETATM   11  O   UNL     1      19.658  52.441  48.369  1.00  0.00    -0.386 OA
HETATM   12  C   UNL     1      18.296  52.335  47.996  1.00  0.00     0.195 C 
HETATM   13  C   UNL     1      17.372  51.845  49.107  1.00  0.00     0.261 C 
ENDROOT
BRANCH   1  14
HETATM   14  C   UNL     1      16.604  49.687  47.874  1.00  0.00     0.180 C 
HETATM   15  C   UNL     1      15.387  50.490  47.404  1.00  0.00     0.039 C 
HETATM   16  C   UNL     1      16.144  48.262  48.196  1.00  0.00     0.039 C 
ENDBRANCH   1  14
BRANCH   8  17
HETATM   17  C   UNL     1      22.895  49.577  48.081  1.00  0.00     0.311 C 
BRANCH  17  18
HETATM   18  C   UNL     1      24.340  49.327  48.463  1.00  0.00    -0.030 A 
HETATM   19  C   UNL     1      25.359  50.139  47.936  1.00  0.00     0.012 A 
HETATM   20  C   UNL     1      26.693  49.911  48.275  1.00  0.00     0.043 A 
HETATM   21  C   UNL     1      27.010  48.878  49.147  1.00  0.00     0.116 A 
HETATM   22  F   UNL     1      28.292  48.655  49.467  1.00  0.00    -0.206 F 
HETATM   23  C   UNL     1      26.019  48.069  49.688  1.00  0.00     0.043 A 
HETATM   24  C   UNL     1      24.684  48.294  49.350  1.00  0.00     0.012 A 
ENDBRANCH  17  18
ENDBRANCH   8  17
TORSDOF 3
ENDMDL
MODEL 4
REMARK VINA RESULT:      -7.3     15.421     17.039
REMARK  3 active torsions:
REMARK  status: ('A' for Active; 'I' for Inactive)
REMARK    1  A    between atoms: C_2  and  N_3 
REMARK    2  A    between atoms: N_10  and  C_11 
REMARK    3  A    between atoms: C_11  and  C_12 
ROOT
HETATM    1  N   UNL     1      36.738  48.110  65.299  1.00  0.00    -0.063 N 
HETATM    2  H   UNL     1      36.350  48.950  64.850  1.00  0.00     0.280 HD
HETATM    3  C   UNL     1      36.792  47.068  64.173  1.00  0.00     0.277 C 
HETATM    4  C   UNL     1      37.103  45.595  64.583  1.00  0.00     0.132 C 
HETATM    5  O   UNL     1      38.292  45.532  65.398  1.00  0.00    -0.373 OA
HETATM    6  C   UNL     1      39.504  45.444  64.638  1.00  0.00     0.199 C 
HETATM    7  C   UNL     1      39.576  44.172  63.778  1.00  0.00     0.299 C 
HETATM    8  N   UNL     1      38.270  43.655  63.326  1.00  0.00     0.097 N 
HETATM    9  C   UNL     1      37.290  44.754  63.262  1.00  0.00     0.314 C 
HETATM   10  C   UNL     1      35.890  45.011  65.357  1.00  0.00     0.209 C 
HETATM   11  O   UNL     1      35.733  45.311  66.736  1.00  0.00    -0.386 OA
HETATM   12  C   UNL     1      36.120  46.580  67.228  1.00  0.00     0.195 C 
HETATM   13  C   UNL     1      35.694  47.755  66.353  1.00  0.00     0.261 C 
ENDROOT
BRANCH   1  14
HETATM   14  C   UNL     1      38.107  48.585  65.838  1.00  0.00     0.180 C 
HETATM   15  C   UNL     1      37.934  49.736  66.834  1.00  0.00     0.039 C 
HETATM   16  C   UNL     1      38.976  49.078  64.678  1.00  0.00     0.039 C 
ENDBRANCH   1  14
BRANCH   8  17
HETATM   17  C   UNL     1      37.820  42.524  64.159  1.00  0.00     0.311 C 
BRANCH  17  18
HETATM   18  C   UNL     1      38.647  41.267  63.973  1.00  0.00    -0.030 A 
HETATM   19  C   UNL     1      39.167  40.595  65.093  1.00  0.00     0.012 A 
HETATM   20  C   UNL     1      39.936  39.442  64.932  1.00  0.00     0.043 A 
HETATM   21  C   UNL     1      40.181  38.956  63.654  1.00  0.00     0.116 A 
HETATM   22  F   UNL     1      40.926  37.853  63.500  1.00  0.00    -0.206 F 
HETATM   23  C   UNL     1      39.670  39.599  62.534  1.00  0.00     0.043 A 
HETATM   24  C   UNL     1      38.900  40.752  62.692  1.00  0.00     0.012 A 
ENDBRANCH  17  18
ENDBRANCH   8  17
TORSDOF 3
ENDMDL
MODEL 5
REMARK VINA RESULT:      -7.1      3.238      7.238
REMARK  3 active torsions:
REMARK  status: ('A' for Active; 'I' for Inactive)
REMARK    1  A    between atoms: C_2  and  N_3 
REMARK    2  A    between atoms: N_10  and  C_11 
REMARK    3  A    between atoms: C_11  and  C_12 
ROOT
HETATM    1  N   UNL     1      28.512  43.559  54.893  1.00  0.00    -0.063 N 
HETATM    2  H   UNL     1      28.459  43.000  55.755  1.00  0.00     0.280 HD
HETATM    3  C   UNL     1      27.046  43.804  54.509  1.00  0.00     0.277 C 
HETATM    4  C   UNL     1      26.773  44.415  53.099  1.00  0.00     0.132 C 
HETATM    5  O   UNL     1      27.562  45.606  52.898  1.00  0.00    -0.373 OA
HETATM    6  C   UNL     1      26.940  46.797  53.397  1.00  0.00     0.199 C 
HETATM    7  C   UNL     1      25.609  47.111  52.695  1.00  0.00     0.299 C 
HETATM    8  N   UNL     1      24.873  45.930  52.204  1.00  0.00     0.097 N 
HETATM    9  C   UNL     1      25.235  44.746  53.004  1.00  0.00     0.314 C 
HETATM   10  C   UNL     1      27.107  43.361  52.009  1.00  0.00     0.209 C 
HETATM   11  O   UNL     1      28.457  43.169  51.613  1.00  0.00    -0.386 OA
HETATM   12  C   UNL     1      29.494  43.299  52.567  1.00  0.00     0.195 C 
HETATM   13  C   UNL     1      29.210  42.628  53.907  1.00  0.00     0.261 C 
ENDROOT
BRANCH   1  14
HETATM   14  C   UNL     1      29.310  44.812  55.319  1.00  0.00     0.180 C 
HETATM   15  C   UNL     1      30.643  44.419  55.965  1.00  0.00     0.039 C 
HETATM   16  C   UNL     1      28.501  45.618  56.339  1.00  0.00     0.039 C 
ENDBRANCH   1  14
BRANCH   8  17
HETATM   17  C   UNL     1      25.073  45.734  50.756  1.00  0.00     0.311 C 
BRANCH  17  18
HETATM   18  C   UNL     1      25.470  47.000  50.021  1.00  0.00    -0.030 A 
HETATM   19  C   UNL     1      26.825  47.267  49.762  1.00  0.00     0.012 A 
HETATM   20  C   UNL     1      27.201  48.434  49.095  1.00  0.00     0.043 A 
HETATM   21  C   UNL     1      26.224  49.329  48.679  1.00  0.00     0.116 A 
HETATM   22  F   UNL     1      26.586  50.452  48.044  1.00  0.00    -0.206 F 
HETATM   23  C   UNL     1      24.878  49.080  48.916  1.00  0.00     0.043 A 
HETATM   24  C   UNL     1      24.499  47.915  49.584  1.00  0.00     0.012 A 
ENDBRANCH  17  18
ENDBRANCH   8  17
TORSDOF 3
ENDMDL
MODEL 6
REMARK VINA RESULT:      -7.0      1.867      2.715
REMARK  3 active torsions:
REMARK  status: ('A' for Active; 'I' for Inactive)
REMARK    1  A    between atoms: C_2  and  N_3 
REMARK    2  A    between atoms: N_10  and  C_11 
REMARK    3  A    between atoms: C_11  and  C_12 
ROOT
HETATM    1  N   UNL     1      22.637  43.212  49.037  1.00  0.00    -0.063 N 
HETATM    2  H   UNL     1      21.719  42.771  49.177  1.00  0.00     0.280 HD
HETATM    3  C   UNL     1      23.487  42.700  50.207  1.00  0.00     0.277 C 
HETATM    4  C   UNL     1      24.873  43.382  50.432  1.00  0.00     0.132 C 
HETATM    5  O   UNL     1      25.639  43.397  49.209  1.00  0.00    -0.373 OA
HETATM    6  C   UNL     1      26.402  42.203  48.996  1.00  0.00     0.199 C 
HETATM    7  C   UNL     1      27.455  41.967  50.090  1.00  0.00     0.299 C 
HETATM    8  N   UNL     1      27.099  42.502  51.419  1.00  0.00     0.097 N 
HETATM    9  C   UNL     1      25.633  42.577  51.554  1.00  0.00     0.314 C 
HETATM   10  C   UNL     1      24.654  44.831  50.945  1.00  0.00     0.209 C 
HETATM   11  O   UNL     1      24.349  45.862  50.017  1.00  0.00    -0.386 OA
HETATM   12  C   UNL     1      23.559  45.572  48.879  1.00  0.00     0.195 C 
HETATM   13  C   UNL     1      22.337  44.703  49.161  1.00  0.00     0.261 C 
ENDROOT
BRANCH   1  14
HETATM   14  C   UNL     1      23.066  42.726  47.634  1.00  0.00     0.180 C 
HETATM   15  C   UNL     1      22.056  43.165  46.569  1.00  0.00     0.039 C 
HETATM   16  C   UNL     1      23.145  41.197  47.620  1.00  0.00     0.039 C 
ENDBRANCH   1  14
BRANCH   8  17
HETATM   17  C   UNL     1      27.771  43.789  51.679  1.00  0.00     0.311 C 
BRANCH  17  18
HETATM   18  C   UNL     1      28.658  43.772  52.909  1.00  0.00    -0.030 A 
HETATM   19  C   UNL     1      29.773  42.916  52.961  1.00  0.00     0.012 A 
HETATM   20  C   UNL     1      30.589  42.887  54.092  1.00  0.00     0.043 A 
HETATM   21  C   UNL     1      30.300  43.718  55.166  1.00  0.00     0.116 A 
HETATM   22  F   UNL     1      31.081  43.684  56.254  1.00  0.00    -0.206 F 
HETATM   23  C   UNL     1      29.210  44.578  55.133  1.00  0.00     0.043 A 
HETATM   24  C   UNL     1      28.390  44.609  54.004  1.00  0.00     0.012 A 
ENDBRANCH  17  18
ENDBRANCH   8  17
TORSDOF 3
ENDMDL
MODEL 7
REMARK VINA RESULT:      -7.0     15.745     17.745
REMARK  3 active torsions:
REMARK  status: ('A' for Active; 'I' for Inactive)
REMARK    1  A    between atoms: C_2  and  N_3 
REMARK    2  A    between atoms: N_10  and  C_11 
REMARK    3  A    between atoms: C_11  and  C_12 
ROOT
HETATM    1  N   UNL     1      38.891  48.013  66.583  1.00  0.00    -0.063 N 
HETATM    2  H   UNL     1      38.886  48.360  67.551  1.00  0.00     0.280 HD
HETATM    3  C   UNL     1      38.782  46.489  66.725  1.00  0.00     0.277 C 
HETATM    4  C   UNL     1      39.016  45.636  65.439  1.00  0.00     0.132 C 
HETATM    5  O   UNL     1      38.190  46.110  64.356  1.00  0.00    -0.373 OA
HETATM    6  C   UNL     1      36.876  45.539  64.344  1.00  0.00     0.199 C 
HETATM    7  C   UNL     1      36.893  44.013  64.158  1.00  0.00     0.299 C 
HETATM    8  N   UNL     1      38.090  43.336  64.692  1.00  0.00     0.097 N 
HETATM    9  C   UNL     1      38.674  44.136  65.784  1.00  0.00     0.314 C 
HETATM   10  C   UNL     1      40.516  45.707  65.042  1.00  0.00     0.209 C 
HETATM   11  O   UNL     1      40.994  46.835  64.324  1.00  0.00    -0.386 OA
HETATM   12  C   UNL     1      40.447  48.115  64.580  1.00  0.00     0.195 C 
HETATM   13  C   UNL     1      40.259  48.439  66.059  1.00  0.00     0.261 C 
ENDROOT
BRANCH   1  14
HETATM   14  C   UNL     1      37.674  48.713  65.937  1.00  0.00     0.180 C 
HETATM   15  C   UNL     1      37.793  50.236  66.053  1.00  0.00     0.039 C 
HETATM   16  C   UNL     1      36.390  48.277  66.649  1.00  0.00     0.039 C 
ENDBRANCH   1  14
BRANCH   8  17
HETATM   17  C   UNL     1      39.056  43.025  63.621  1.00  0.00     0.311 C 
BRANCH  17  18
HETATM   18  C   UNL     1      39.564  41.597  63.659  1.00  0.00    -0.030 A 
HETATM   19  C   UNL     1      39.157  40.679  62.674  1.00  0.00     0.012 A 
HETATM   20  C   UNL     1      39.612  39.361  62.706  1.00  0.00     0.043 A 
HETATM   21  C   UNL     1      40.479  38.960  63.713  1.00  0.00     0.116 A 
HETATM   22  F   UNL     1      40.910  37.692  63.746  1.00  0.00    -0.206 F 
HETATM   23  C   UNL     1      40.902  39.852  64.690  1.00  0.00     0.043 A 
HETATM   24  C   UNL     1      40.448  41.171  64.663  1.00  0.00     0.012 A 
ENDBRANCH  17  18
ENDBRANCH   8  17
TORSDOF 3
ENDMDL
MODEL 8
REMARK VINA RESULT:      -7.0      6.639      9.513
REMARK  3 active torsions:
REMARK  status: ('A' for Active; 'I' for Inactive)
REMARK    1  A    between atoms: C_2  and  N_3 
REMARK    2  A    between atoms: N_10  and  C_11 
REMARK    3  A    between atoms: C_11  and  C_12 
ROOT
HETATM    1  N   UNL     1      17.564  50.517  47.486  1.00  0.00    -0.063 N 
HETATM    2  H   UNL     1      17.062  51.076  46.783  1.00  0.00     0.280 HD
HETATM    3  C   UNL     1      19.046  50.817  47.222  1.00  0.00     0.277 C 
HETATM    4  C   UNL     1      20.094  49.928  47.961  1.00  0.00     0.132 C 
HETATM    5  O   UNL     1      19.824  49.890  49.377  1.00  0.00    -0.373 OA
HETATM    6  C   UNL     1      20.416  50.973  50.104  1.00  0.00     0.199 C 
HETATM    7  C   UNL     1      21.951  50.976  50.020  1.00  0.00     0.299 C 
HETATM    8  N   UNL     1      22.505  50.405  48.777  1.00  0.00     0.097 N 
HETATM    9  C   UNL     1      21.524  50.533  47.685  1.00  0.00     0.314 C 
HETATM   10  C   UNL     1      20.058  48.493  47.369  1.00  0.00     0.209 C 
HETATM   11  O   UNL     1      19.054  47.586  47.800  1.00  0.00    -0.386 OA
HETATM   12  C   UNL     1      17.762  48.066  48.117  1.00  0.00     0.195 C 
HETATM   13  C   UNL     1      17.202  49.080  47.124  1.00  0.00     0.261 C 
ENDROOT
BRANCH   1  14
HETATM   14  C   UNL     1      17.006  51.035  48.831  1.00  0.00     0.180 C 
HETATM   15  C   UNL     1      15.474  51.039  48.823  1.00  0.00     0.039 C 
HETATM   16  C   UNL     1      17.488  52.468  49.073  1.00  0.00     0.039 C 
ENDBRANCH   1  14
BRANCH   8  17
HETATM   17  C   UNL     1      22.968  49.019  48.981  1.00  0.00     0.311 C 
BRANCH  17  18
HETATM   18  C   UNL     1      24.477  48.887  49.048  1.00  0.00    -0.030 A 
HETATM   19  C   UNL     1      25.295  49.831  48.402  1.00  0.00     0.012 A 
HETATM   20  C   UNL     1      26.684  49.713  48.451  1.00  0.00     0.043 A 
HETATM   21  C   UNL     1      27.258  48.659  49.150  1.00  0.00     0.116 A 
HETATM   22  F   UNL     1      28.592  48.544  49.191  1.00  0.00    -0.206 F 
HETATM   23  C   UNL     1      26.469  47.721  49.803  1.00  0.00     0.043 A 
HETATM   24  C   UNL     1      25.079  47.836  49.756  1.00  0.00     0.012 A 
ENDBRANCH  17  18
ENDBRANCH   8  17
TORSDOF 3
ENDMDL
MODEL 9
REMARK VINA RESULT:      -7.0      3.868      7.529
REMARK  3 active torsions:
REMARK  status: ('A' for Active; 'I' for Inactive)
REMARK    1  A    between atoms: C_2  and  N_3 
REMARK    2  A    between atoms: N_10  and  C_11 
REMARK    3  A    between atoms: C_11  and  C_12 
ROOT
HETATM    1  N   UNL     1      28.316  43.107  52.739  1.00  0.00    -0.063 N 
HETATM    2  H   UNL     1      29.335  42.964  52.755  1.00  0.00     0.280 HD
HETATM    3  C   UNL     1      28.086  44.069  51.565  1.00  0.00     0.277 C 
HETATM    4  C   UNL     1      26.661  44.689  51.422  1.00  0.00     0.132 C 
HETATM    5  O   UNL     1      25.652  43.659  51.448  1.00  0.00    -0.373 OA
HETATM    6  C   UNL     1      25.391  43.080  50.163  1.00  0.00     0.199 C 
HETATM    7  C   UNL     1      24.853  44.102  49.149  1.00  0.00     0.299 C 
HETATM    8  N   UNL     1      25.316  45.487  49.359  1.00  0.00     0.097 N 
HETATM    9  C   UNL     1      26.612  45.482  50.061  1.00  0.00     0.314 C 
HETATM   10  C   UNL     1      26.425  45.701  52.577  1.00  0.00     0.209 C 
HETATM   11  O   UNL     1      26.037  45.222  53.856  1.00  0.00    -0.386 OA
HETATM   12  C   UNL     1      26.538  43.984  54.324  1.00  0.00     0.195 C 
HETATM   13  C   UNL     1      28.029  43.771  54.082  1.00  0.00     0.261 C 
ENDROOT
BRANCH   1  14
HETATM   14  C   UNL     1      27.750  41.681  52.557  1.00  0.00     0.180 C 
HETATM   15  C   UNL     1      28.255  40.746  53.661  1.00  0.00     0.039 C 
HETATM   16  C   UNL     1      28.199  41.115  51.206  1.00  0.00     0.039 C 
ENDBRANCH   1  14
BRANCH   8  17
HETATM   17  C   UNL     1      24.291  46.300  50.041  1.00  0.00     0.311 C 
BRANCH  17  18
HETATM   18  C   UNL     1      24.074  47.659  49.406  1.00  0.00    -0.030 A 
HETATM   19  C   UNL     1      25.162  48.527  49.211  1.00  0.00     0.012 A 
HETATM   20  C   UNL     1      24.971  49.783  48.635  1.00  0.00     0.043 A 
HETATM   21  C   UNL     1      23.695  50.171  48.247  1.00  0.00     0.116 A 
HETATM   22  F   UNL     1      23.511  51.380  47.700  1.00  0.00    -0.206 F 
HETATM   23  C   UNL     1      22.607  49.326  48.421  1.00  0.00     0.043 A 
HETATM   24  C   UNL     1      22.794  48.069  48.997  1.00  0.00     0.012 A 
ENDBRANCH  17  18
ENDBRANCH   8  17
TORSDOF 3
ENDMDL
MODEL 10
REMARK VINA RESULT:      -7.0     13.097     14.785
REMARK  3 active torsions:
REMARK  status: ('A' for Active; 'I' for Inactive)
REMARK    1  A    between atoms: C_2  and  N_3 
REMARK    2  A    between atoms: N_10  and  C_11 
REMARK    3  A    between atoms: C_11  and  C_12 
ROOT
HETATM    1  N   UNL     1      28.884  52.119  39.451  1.00  0.00    -0.063 N 
HETATM    2  H   UNL     1      28.162  52.852  39.468  1.00  0.00     0.280 HD
HETATM    3  C   UNL     1      29.787  52.448  40.648  1.00  0.00     0.277 C 
HETATM    4  C   UNL     1      31.133  51.667  40.758  1.00  0.00     0.132 C 
HETATM    5  O   UNL     1      30.908  50.245  40.660  1.00  0.00    -0.373 OA
HETATM    6  C   UNL     1      30.592  49.628  41.914  1.00  0.00     0.199 C 
HETATM    7  C   UNL     1      31.728  49.753  42.942  1.00  0.00     0.299 C 
HETATM    8  N   UNL     1      32.566  50.959  42.796  1.00  0.00     0.097 N 
HETATM    9  C   UNL     1      31.793  52.031  42.143  1.00  0.00     0.314 C 
HETATM   10  C   UNL     1      32.093  52.137  39.631  1.00  0.00     0.209 C 
HETATM   11  O   UNL     1      31.945  51.605  38.323  1.00  0.00    -0.386 OA
HETATM   12  C   UNL     1      30.655  51.294  37.831  1.00  0.00     0.195 C 
HETATM   13  C   UNL     1      29.595  52.351  38.121  1.00  0.00     0.261 C 
ENDROOT
BRANCH   1  14
HETATM   14  C   UNL     1      28.075  50.807  39.563  1.00  0.00     0.180 C 
HETATM   15  C   UNL     1      27.039  50.704  38.439  1.00  0.00     0.039 C 
HETATM   16  C   UNL     1      27.335  50.770  40.903  1.00  0.00     0.039 C 
ENDBRANCH   1  14
BRANCH   8  17
HETATM   17  C   UNL     1      33.832  50.655  42.104  1.00  0.00     0.311 C 
BRANCH  17  18
HETATM   18  C   UNL     1      34.979  51.558  42.514  1.00  0.00    -0.030 A 
HETATM   19  C   UNL     1      35.063  52.034  43.834  1.00  0.00     0.012 A 
HETATM   20  C   UNL     1      36.109  52.873  44.218  1.00  0.00     0.043 A 
HETATM   21  C   UNL     1      37.077  53.231  43.288  1.00  0.00     0.116 A 
HETATM   22  F   UNL     1      38.077  54.041  43.657  1.00  0.00    -0.206 F 
HETATM   23  C   UNL     1      37.019  52.764  41.981  1.00  0.00     0.043 A 
HETATM   24  C   UNL     1      35.973  51.926  41.593  1.00  0.00     0.012 A 
ENDBRANCH  17  18
ENDBRANCH   8  17
TORSDOF 3
ENDMDL
