MODEL 1
REMARK VINA RESULT:      -8.6      0.000      0.000
REMARK  3 active torsions:
REMARK  status: ('A' for Active; 'I' for Inactive)
REMARK    1  A    between atoms: C_3  and  C_4 
REMARK    2  A    between atoms: C_10  and  C_11 
REMARK    3  A    between atoms: C_14  and  O_15 
ROOT
HETATM    1  C   UNL     1      21.880  50.084  48.345  1.00  0.00    -0.007 A 
HETATM    2  C   UNL     1      22.003  48.852  49.002  1.00  0.00     0.047 A 
HETATM    3  C   UNL     1      23.291  48.365  49.281  1.00  0.00     0.086 A 
HETATM    4  C   UNL     1      24.400  49.107  48.907  1.00  0.00     0.063 A 
HETATM    5  N   UNL     1      25.465  48.349  49.318  1.00  0.00    -0.338 N 
HETATM    6  H   UNL     1      26.437  48.601  49.229  1.00  0.00     0.167 HD
HETATM    7  C   UNL     1      24.991  47.202  49.915  1.00  0.00     0.139 A 
HETATM    8  N   UNL     1      23.669  47.206  49.910  1.00  0.00    -0.228 NA
HETATM    9  C   UNL     1      24.319  50.344  48.271  1.00  0.00     0.033 A 
HETATM   10  C   UNL     1      23.029  50.818  47.999  1.00  0.00     0.016 A 
ENDROOT
BRANCH   1  11
HETATM   11  C   UNL     1      20.543  50.658  47.984  1.00  0.00     0.069 C 
HETATM   12  C   UNL     1      19.931  51.735  48.871  1.00  0.00     0.045 C 
HETATM   13  C   UNL     1      19.223  51.064  50.049  1.00  0.00     0.017 C 
HETATM   14  C   UNL     1      18.983  52.600  48.056  1.00  0.00     0.115 C 
HETATM   15  C   UNL     1      18.105  51.778  47.156  1.00  0.00     0.238 C 
HETATM   16  N   UNL     1      18.671  50.631  46.668  1.00  0.00    -0.247 N 
HETATM   17  O   UNL     1      16.984  52.145  46.814  1.00  0.00    -0.272 OA
HETATM   18  N   UNL     1      19.900  50.142  46.977  1.00  0.00    -0.176 NA
HETATM   19  H   UNL     1      18.138  50.112  45.976  1.00  0.00     0.192 HD
ENDBRANCH   1  11
BRANCH   7  20
HETATM   20  C   UNL     1      25.850  46.169  50.499  1.00  0.00     0.010 A 
HETATM   21  C   UNL     1      26.032  46.129  51.886  1.00  0.00     0.018 A 
HETATM   22  C   UNL     1      26.861  45.168  52.472  1.00  0.00     0.037 A 
HETATM   23  C   UNL     1      27.514  44.219  51.685  1.00  0.00     0.068 A 
HETATM   24  C   UNL     1      27.330  44.239  50.303  1.00  0.00     0.037 A 
HETATM   25  C   UNL     1      26.504  45.208  49.715  1.00  0.00     0.018 A 
BRANCH  23  26
HETATM   26  O   UNL     1      28.295  43.337  52.380  1.00  0.00    -0.356 OA
HETATM   27  C   UNL     1      28.542  43.634  53.748  1.00  0.00     0.210 C 
ENDBRANCH  23  26
ENDBRANCH   7  20
TORSDOF 3
ENDMDL
MODEL 2
REMARK VINA RESULT:      -8.6      2.587     10.168
REMARK  3 active torsions:
REMARK  status: ('A' for Active; 'I' for Inactive)
REMARK    1  A    between atoms: C_3  and  C_4 
REMARK    2  A    between atoms: C_10  and  C_11 
REMARK    3  A    between atoms: C_14  and  O_15 
ROOT
HETATM    1  C   UNL     1      27.253  44.661  52.001  1.00  0.00    -0.007 A 
HETATM    2  C   UNL     1      26.588  45.888  52.129  1.00  0.00     0.047 A 
HETATM    3  C   UNL     1      25.716  46.289  51.102  1.00  0.00     0.086 A 
HETATM    4  C   UNL     1      25.533  45.470  49.999  1.00  0.00     0.063 A 
HETATM    5  N   UNL     1      24.646  46.159  49.214  1.00  0.00    -0.338 N 
HETATM    6  H   UNL     1      24.266  45.841  48.336  1.00  0.00     0.167 HD
HETATM    7  C   UNL     1      24.320  47.341  49.842  1.00  0.00     0.139 A 
HETATM    8  N   UNL     1      24.956  47.426  50.998  1.00  0.00    -0.228 NA
HETATM    9  C   UNL     1      26.161  44.237  49.845  1.00  0.00     0.033 A 
HETATM   10  C   UNL     1      27.027  43.848  50.875  1.00  0.00     0.016 A 
ENDROOT
BRANCH   1  11
HETATM   11  C   UNL     1      28.222  44.175  53.036  1.00  0.00     0.069 C 
HETATM   12  C   UNL     1      28.904  42.827  52.844  1.00  0.00     0.045 C 
HETATM   13  C   UNL     1      27.966  41.723  53.336  1.00  0.00     0.017 C 
HETATM   14  C   UNL     1      30.235  42.810  53.578  1.00  0.00     0.115 C 
HETATM   15  C   UNL     1      30.128  43.410  54.951  1.00  0.00     0.238 C 
HETATM   16  N   UNL     1      29.220  44.425  55.081  1.00  0.00    -0.247 N 
HETATM   17  O   UNL     1      30.860  43.069  55.877  1.00  0.00    -0.272 OA
HETATM   18  N   UNL     1      28.373  44.879  54.121  1.00  0.00    -0.176 NA
HETATM   19  H   UNL     1      29.203  44.917  55.969  1.00  0.00     0.192 HD
ENDBRANCH   1  11
BRANCH   7  20
HETATM   20  C   UNL     1      23.372  48.318  49.302  1.00  0.00     0.010 A 
HETATM   21  C   UNL     1      22.089  47.899  48.931  1.00  0.00     0.018 A 
HETATM   22  C   UNL     1      21.168  48.804  48.394  1.00  0.00     0.037 A 
HETATM   23  C   UNL     1      21.505  50.148  48.231  1.00  0.00     0.068 A 
HETATM   24  C   UNL     1      22.775  50.581  48.611  1.00  0.00     0.037 A 
HETATM   25  C   UNL     1      23.701  49.671  49.142  1.00  0.00     0.018 A 
BRANCH  23  26
HETATM   26  O   UNL     1      20.516  50.926  47.697  1.00  0.00    -0.356 OA
HETATM   27  C   UNL     1      19.857  51.828  48.577  1.00  0.00     0.210 C 
ENDBRANCH  23  26
ENDBRANCH   7  20
TORSDOF 3
ENDMDL
MODEL 3
REMARK VINA RESULT:      -8.5      1.599      9.440
REMARK  3 active torsions:
REMARK  status: ('A' for Active; 'I' for Inactive)
REMARK    1  A    between atoms: C_3  and  C_4 
REMARK    2  A    between atoms: C_10  and  C_11 
REMARK    3  A    between atoms: C_14  and  O_15 
ROOT
HETATM    1  C   UNL     1      25.079  47.602  49.655  1.00  0.00    -0.007 A 
HETATM    2  C   UNL     1      23.679  47.581  49.576  1.00  0.00     0.047 A 
HETATM    3  C   UNL     1      23.023  48.686  49.008  1.00  0.00     0.086 A 
HETATM    4  C   UNL     1      23.766  49.760  48.541  1.00  0.00     0.063 A 
HETATM    5  N   UNL     1      22.825  50.639  48.071  1.00  0.00    -0.338 N 
HETATM    6  H   UNL     1      23.016  51.526  47.632  1.00  0.00     0.167 HD
HETATM    7  C   UNL     1      21.574  50.093  48.256  1.00  0.00     0.139 A 
HETATM    8  N   UNL     1      21.682  48.899  48.814  1.00  0.00    -0.228 NA
HETATM    9  C   UNL     1      25.157  49.809  48.586  1.00  0.00     0.033 A 
HETATM   10  C   UNL     1      25.799  48.701  49.154  1.00  0.00     0.016 A 
ENDROOT
BRANCH   1  11
HETATM   11  C   UNL     1      25.852  46.477  50.275  1.00  0.00     0.069 C 
HETATM   12  C   UNL     1      25.566  46.083  51.718  1.00  0.00     0.045 C 
HETATM   13  C   UNL     1      26.347  47.011  52.650  1.00  0.00     0.017 C 
HETATM   14  C   UNL     1      25.928  44.622  51.938  1.00  0.00     0.115 C 
HETATM   15  C   UNL     1      27.244  44.268  51.308  1.00  0.00     0.238 C 
HETATM   16  N   UNL     1      27.549  44.945  50.158  1.00  0.00    -0.247 N 
HETATM   17  O   UNL     1      27.966  43.377  51.748  1.00  0.00    -0.272 OA
HETATM   18  N   UNL     1      26.818  45.939  49.589  1.00  0.00    -0.176 NA
HETATM   19  H   UNL     1      28.381  44.651  49.657  1.00  0.00     0.192 HD
ENDBRANCH   1  11
BRANCH   7  20
HETATM   20  C   UNL     1      20.329  50.746  47.844  1.00  0.00     0.010 A 
HETATM   21  C   UNL     1      19.608  50.231  46.760  1.00  0.00     0.018 A 
HETATM   22  C   UNL     1      18.427  50.844  46.331  1.00  0.00     0.037 A 
HETATM   23  C   UNL     1      17.935  51.974  46.984  1.00  0.00     0.068 A 
HETATM   24  C   UNL     1      18.636  52.488  48.074  1.00  0.00     0.037 A 
HETATM   25  C   UNL     1      19.825  51.878  48.500  1.00  0.00     0.018 A 
BRANCH  23  26
HETATM   26  O   UNL     1      16.773  52.475  46.465  1.00  0.00    -0.356 OA
HETATM   27  C   UNL     1      16.789  52.856  45.096  1.00  0.00     0.210 C 
ENDBRANCH  23  26
ENDBRANCH   7  20
TORSDOF 3
ENDMDL
MODEL 4
REMARK VINA RESULT:      -8.2      8.667     10.902
REMARK  3 active torsions:
REMARK  status: ('A' for Active; 'I' for Inactive)
REMARK    1  A    between atoms: C_3  and  C_4 
REMARK    2  A    between atoms: C_10  and  C_11 
REMARK    3  A    between atoms: C_14  and  O_15 
ROOT
HETATM    1  C   UNL     1      28.432  43.909  54.037  1.00  0.00    -0.007 A 
HETATM    2  C   UNL     1      29.023  42.756  53.501  1.00  0.00     0.047 A 
HETATM    3  C   UNL     1      28.381  42.108  52.433  1.00  0.00     0.086 A 
HETATM    4  C   UNL     1      27.191  42.618  51.937  1.00  0.00     0.063 A 
HETATM    5  N   UNL     1      26.849  41.752  50.930  1.00  0.00    -0.338 N 
HETATM    6  H   UNL     1      26.044  41.837  50.330  1.00  0.00     0.167 HD
HETATM    7  C   UNL     1      27.812  40.771  50.841  1.00  0.00     0.139 A 
HETATM    8  N   UNL     1      28.756  40.983  51.742  1.00  0.00    -0.228 NA
HETATM    9  C   UNL     1      26.583  43.769  52.431  1.00  0.00     0.033 A 
HETATM   10  C   UNL     1      27.234  44.407  53.494  1.00  0.00     0.016 A 
ENDROOT
BRANCH   1  11
HETATM   11  C   UNL     1      29.038  44.641  55.197  1.00  0.00     0.069 C 
HETATM   12  C   UNL     1      28.301  45.835  55.790  1.00  0.00     0.045 C 
HETATM   13  C   UNL     1      28.620  47.078  54.957  1.00  0.00     0.017 C 
HETATM   14  C   UNL     1      28.694  46.014  57.248  1.00  0.00     0.115 C 
HETATM   15  C   UNL     1      30.174  45.864  57.455  1.00  0.00     0.238 C 
HETATM   16  N   UNL     1      30.799  44.979  56.619  1.00  0.00    -0.247 N 
HETATM   17  O   UNL     1      30.774  46.437  58.362  1.00  0.00    -0.272 OA
HETATM   18  N   UNL     1      30.227  44.294  55.595  1.00  0.00    -0.176 NA
HETATM   19  H   UNL     1      31.778  44.781  56.806  1.00  0.00     0.192 HD
ENDBRANCH   1  11
BRANCH   7  20
HETATM   20  C   UNL     1      27.787  39.690  49.853  1.00  0.00     0.010 A 
HETATM   21  C   UNL     1      28.988  39.085  49.464  1.00  0.00     0.018 A 
HETATM   22  C   UNL     1      28.999  38.065  48.509  1.00  0.00     0.037 A 
HETATM   23  C   UNL     1      27.809  37.617  47.934  1.00  0.00     0.068 A 
HETATM   24  C   UNL     1      26.605  38.202  48.323  1.00  0.00     0.037 A 
HETATM   25  C   UNL     1      26.594  39.231  49.276  1.00  0.00     0.018 A 
BRANCH  23  26
HETATM   26  O   UNL     1      27.958  36.616  47.015  1.00  0.00    -0.356 OA
HETATM   27  C   UNL     1      28.889  36.837  45.964  1.00  0.00     0.210 C 
ENDBRANCH  23  26
ENDBRANCH   7  20
TORSDOF 3
ENDMDL
MODEL 5
REMARK VINA RESULT:      -8.1      3.940      5.778
REMARK  3 active torsions:
REMARK  status: ('A' for Active; 'I' for Inactive)
REMARK    1  A    between atoms: C_3  and  C_4 
REMARK    2  A    between atoms: C_10  and  C_11 
REMARK    3  A    between atoms: C_14  and  O_15 
ROOT
HETATM    1  C   UNL     1      23.579  44.304  49.817  1.00  0.00    -0.007 A 
HETATM    2  C   UNL     1      24.383  45.074  50.669  1.00  0.00     0.047 A 
HETATM    3  C   UNL     1      25.381  44.426  51.416  1.00  0.00     0.086 A 
HETATM    4  C   UNL     1      25.549  43.055  51.294  1.00  0.00     0.063 A 
HETATM    5  N   UNL     1      26.579  42.766  52.150  1.00  0.00    -0.338 N 
HETATM    6  H   UNL     1      26.987  41.855  52.293  1.00  0.00     0.167 HD
HETATM    7  C   UNL     1      27.000  43.932  52.750  1.00  0.00     0.139 A 
HETATM    8  N   UNL     1      26.287  44.951  52.303  1.00  0.00    -0.228 NA
HETATM    9  C   UNL     1      24.783  42.260  50.444  1.00  0.00     0.033 A 
HETATM   10  C   UNL     1      23.793  42.919  49.704  1.00  0.00     0.016 A 
ENDROOT
BRANCH   1  11
HETATM   11  C   UNL     1      22.473  44.914  49.009  1.00  0.00     0.069 C 
HETATM   12  C   UNL     1      22.796  46.041  48.036  1.00  0.00     0.045 C 
HETATM   13  C   UNL     1      22.840  47.363  48.805  1.00  0.00     0.017 C 
HETATM   14  C   UNL     1      21.767  46.070  46.917  1.00  0.00     0.115 C 
HETATM   15  C   UNL     1      20.368  45.900  47.435  1.00  0.00     0.238 C 
HETATM   16  N   UNL     1      20.240  45.105  48.542  1.00  0.00    -0.247 N 
HETATM   17  O   UNL     1      19.391  46.377  46.861  1.00  0.00    -0.272 OA
HETATM   18  N   UNL     1      21.252  44.529  49.242  1.00  0.00    -0.176 NA
HETATM   19  H   UNL     1      19.297  44.890  48.849  1.00  0.00     0.192 HD
ENDBRANCH   1  11
BRANCH   7  20
HETATM   20  C   UNL     1      28.107  44.004  53.707  1.00  0.00     0.010 A 
HETATM   21  C   UNL     1      28.187  45.091  54.586  1.00  0.00     0.018 A 
HETATM   22  C   UNL     1      29.242  45.198  55.497  1.00  0.00     0.037 A 
HETATM   23  C   UNL     1      30.230  44.215  55.559  1.00  0.00     0.068 A 
HETATM   24  C   UNL     1      30.154  43.121  54.698  1.00  0.00     0.037 A 
HETATM   25  C   UNL     1      29.100  43.017  53.779  1.00  0.00     0.018 A 
BRANCH  23  26
HETATM   26  O   UNL     1      31.204  44.440  56.492  1.00  0.00    -0.356 OA
HETATM   27  C   UNL     1      31.703  43.306  57.189  1.00  0.00     0.210 C 
ENDBRANCH  23  26
ENDBRANCH   7  20
TORSDOF 3
ENDMDL
MODEL 6
REMARK VINA RESULT:      -7.9      3.828     10.149
REMARK  3 active torsions:
REMARK  status: ('A' for Active; 'I' for Inactive)
REMARK    1  A    between atoms: C_3  and  C_4 
REMARK    2  A    between atoms: C_10  and  C_11 
REMARK    3  A    between atoms: C_14  and  O_15 
ROOT
HETATM    1  C   UNL     1      27.314  45.389  53.247  1.00  0.00    -0.007 A 
HETATM    2  C   UNL     1      26.812  44.852  52.053  1.00  0.00     0.047 A 
HETATM    3  C   UNL     1      25.771  45.530  51.398  1.00  0.00     0.086 A 
HETATM    4  C   UNL     1      25.268  46.703  51.939  1.00  0.00     0.063 A 
HETATM    5  N   UNL     1      24.282  47.080  51.065  1.00  0.00    -0.338 N 
HETATM    6  H   UNL     1      23.720  47.914  51.136  1.00  0.00     0.167 HD
HETATM    7  C   UNL     1      24.214  46.157  50.045  1.00  0.00     0.139 A 
HETATM    8  N   UNL     1      25.123  45.214  50.230  1.00  0.00    -0.228 NA
HETATM    9  C   UNL     1      25.753  47.278  53.111  1.00  0.00     0.033 A 
HETATM   10  C   UNL     1      26.792  46.593  53.754  1.00  0.00     0.016 A 
ENDROOT
BRANCH   1  11
HETATM   11  C   UNL     1      28.403  44.711  54.022  1.00  0.00     0.069 C 
HETATM   12  C   UNL     1      28.874  43.328  53.591  1.00  0.00     0.045 C 
HETATM   13  C   UNL     1      27.929  42.278  54.177  1.00  0.00     0.017 C 
HETATM   14  C   UNL     1      30.312  43.109  54.035  1.00  0.00     0.115 C 
HETATM   15  C   UNL     1      30.544  43.578  55.443  1.00  0.00     0.238 C 
HETATM   16  N   UNL     1      29.802  44.659  55.834  1.00  0.00    -0.247 N 
HETATM   17  O   UNL     1      31.397  43.078  56.172  1.00  0.00    -0.272 OA
HETATM   18  N   UNL     1      28.842  45.286  55.104  1.00  0.00    -0.176 NA
HETATM   19  H   UNL     1      30.014  45.060  56.742  1.00  0.00     0.192 HD
ENDBRANCH   1  11
BRANCH   7  20
HETATM   20  C   UNL     1      23.288  46.256  48.914  1.00  0.00     0.010 A 
HETATM   21  C   UNL     1      23.067  45.134  48.106  1.00  0.00     0.018 A 
HETATM   22  C   UNL     1      22.205  45.203  47.008  1.00  0.00     0.037 A 
HETATM   23  C   UNL     1      21.534  46.387  46.704  1.00  0.00     0.068 A 
HETATM   24  C   UNL     1      21.734  47.507  47.511  1.00  0.00     0.037 A 
HETATM   25  C   UNL     1      22.605  47.441  48.608  1.00  0.00     0.018 A 
BRANCH  23  26
HETATM   26  O   UNL     1      20.722  46.321  45.606  1.00  0.00    -0.356 OA
HETATM   27  C   UNL     1      19.366  46.713  45.782  1.00  0.00     0.210 C 
ENDBRANCH  23  26
ENDBRANCH   7  20
TORSDOF 3
ENDMDL
MODEL 7
REMARK VINA RESULT:      -7.8      2.834      4.184
REMARK  3 active torsions:
REMARK  status: ('A' for Active; 'I' for Inactive)
REMARK    1  A    between atoms: C_3  and  C_4 
REMARK    2  A    between atoms: C_10  and  C_11 
REMARK    3  A    between atoms: C_14  and  O_15 
ROOT
HETATM    1  C   UNL     1      24.265  47.929  49.490  1.00  0.00    -0.007 A 
HETATM    2  C   UNL     1      24.071  46.546  49.608  1.00  0.00     0.047 A 
HETATM    3  C   UNL     1      25.200  45.716  49.712  1.00  0.00     0.086 A 
HETATM    4  C   UNL     1      26.468  46.278  49.700  1.00  0.00     0.063 A 
HETATM    5  N   UNL     1      27.312  45.203  49.810  1.00  0.00    -0.338 N 
HETATM    6  H   UNL     1      28.317  45.248  49.860  1.00  0.00     0.167 HD
HETATM    7  C   UNL     1      26.559  44.052  49.887  1.00  0.00     0.139 A 
HETATM    8  N   UNL     1      25.272  44.352  49.841  1.00  0.00    -0.228 NA
HETATM    9  C   UNL     1      26.700  47.648  49.603  1.00  0.00     0.033 A 
HETATM   10  C   UNL     1      25.566  48.463  49.501  1.00  0.00     0.016 A 
ENDROOT
BRANCH   1  11
HETATM   11  C   UNL     1      23.115  48.879  49.343  1.00  0.00     0.069 C 
HETATM   12  C   UNL     1      21.734  48.330  49.007  1.00  0.00     0.045 C 
HETATM   13  C   UNL     1      21.638  48.123  47.494  1.00  0.00     0.017 C 
HETATM   14  C   UNL     1      20.661  49.277  49.520  1.00  0.00     0.115 C 
HETATM   15  C   UNL     1      20.991  50.712  49.229  1.00  0.00     0.238 C 
HETATM   16  N   UNL     1      22.324  51.024  49.237  1.00  0.00    -0.247 N 
HETATM   17  O   UNL     1      20.125  51.569  49.071  1.00  0.00    -0.272 OA
HETATM   18  N   UNL     1      23.355  50.156  49.408  1.00  0.00    -0.176 NA
HETATM   19  H   UNL     1      22.569  52.006  49.147  1.00  0.00     0.192 HD
ENDBRANCH   1  11
BRANCH   7  20
HETATM   20  C   UNL     1      27.131  42.712  50.041  1.00  0.00     0.010 A 
HETATM   21  C   UNL     1      27.154  41.845  48.942  1.00  0.00     0.018 A 
HETATM   22  C   UNL     1      27.675  40.553  49.063  1.00  0.00     0.037 A 
HETATM   23  C   UNL     1      28.196  40.107  50.277  1.00  0.00     0.068 A 
HETATM   24  C   UNL     1      28.191  40.967  51.375  1.00  0.00     0.037 A 
HETATM   25  C   UNL     1      27.662  42.260  51.257  1.00  0.00     0.018 A 
BRANCH  23  26
HETATM   26  O   UNL     1      28.673  38.825  50.261  1.00  0.00    -0.356 OA
HETATM   27  C   UNL     1      29.109  38.316  49.008  1.00  0.00     0.210 C 
ENDBRANCH  23  26
ENDBRANCH   7  20
TORSDOF 3
ENDMDL
MODEL 8
REMARK VINA RESULT:      -7.8      8.259      9.429
REMARK  3 active torsions:
REMARK  status: ('A' for Active; 'I' for Inactive)
REMARK    1  A    between atoms: C_3  and  C_4 
REMARK    2  A    between atoms: C_10  and  C_11 
REMARK    3  A    between atoms: C_14  and  O_15 
ROOT
HETATM    1  C   UNL     1      26.927  41.201  49.048  1.00  0.00    -0.007 A 
HETATM    2  C   UNL     1      26.972  42.382  49.802  1.00  0.00     0.047 A 
HETATM    3  C   UNL     1      27.736  42.396  50.981  1.00  0.00     0.086 A 
HETATM    4  C   UNL     1      28.423  41.256  51.367  1.00  0.00     0.063 A 
HETATM    5  N   UNL     1      29.040  41.616  52.537  1.00  0.00    -0.338 N 
HETATM    6  H   UNL     1      29.652  41.031  53.084  1.00  0.00     0.167 HD
HETATM    7  C   UNL     1      28.725  42.926  52.822  1.00  0.00     0.139 A 
HETATM    8  N   UNL     1      27.942  43.416  51.876  1.00  0.00    -0.228 NA
HETATM    9  C   UNL     1      28.418  40.071  50.636  1.00  0.00     0.033 A 
HETATM   10  C   UNL     1      27.653  40.070  49.462  1.00  0.00     0.016 A 
ENDROOT
BRANCH   1  11
HETATM   11  C   UNL     1      26.111  41.094  47.795  1.00  0.00     0.069 C 
HETATM   12  C   UNL     1      26.538  40.115  46.709  1.00  0.00     0.045 C 
HETATM   13  C   UNL     1      27.614  40.774  45.843  1.00  0.00     0.017 C 
HETATM   14  C   UNL     1      25.330  39.691  45.889  1.00  0.00     0.115 C 
HETATM   15  C   UNL     1      24.446  40.856  45.546  1.00  0.00     0.238 C 
HETATM   16  N   UNL     1      24.397  41.854  46.482  1.00  0.00    -0.247 N 
HETATM   17  O   UNL     1      23.751  40.880  44.533  1.00  0.00    -0.272 OA
HETATM   18  N   UNL     1      25.117  41.919  47.632  1.00  0.00    -0.176 NA
HETATM   19  H   UNL     1      23.728  42.602  46.323  1.00  0.00     0.192 HD
ENDBRANCH   1  11
BRANCH   7  20
HETATM   20  C   UNL     1      29.234  43.654  53.987  1.00  0.00     0.010 A 
HETATM   21  C   UNL     1      28.590  44.826  54.400  1.00  0.00     0.018 A 
HETATM   22  C   UNL     1      29.063  45.553  55.496  1.00  0.00     0.037 A 
HETATM   23  C   UNL     1      30.180  45.118  56.210  1.00  0.00     0.068 A 
HETATM   24  C   UNL     1      30.821  43.943  55.816  1.00  0.00     0.037 A 
HETATM   25  C   UNL     1      30.351  43.218  54.712  1.00  0.00     0.018 A 
BRANCH  23  26
HETATM   26  O   UNL     1      30.539  45.919  57.258  1.00  0.00    -0.356 OA
HETATM   27  C   UNL     1      30.690  45.293  58.526  1.00  0.00     0.210 C 
ENDBRANCH  23  26
ENDBRANCH   7  20
TORSDOF 3
ENDMDL
MODEL 9
REMARK VINA RESULT:      -7.8      2.782      9.600
REMARK  3 active torsions:
REMARK  status: ('A' for Active; 'I' for Inactive)
REMARK    1  A    between atoms: C_3  and  C_4 
REMARK    2  A    between atoms: C_10  and  C_11 
REMARK    3  A    between atoms: C_14  and  O_15 
ROOT
HETATM    1  C   UNL     1      26.108  44.276  49.670  1.00  0.00    -0.007 A 
HETATM    2  C   UNL     1      24.785  44.653  49.404  1.00  0.00     0.047 A 
HETATM    3  C   UNL     1      24.466  46.021  49.392  1.00  0.00     0.086 A 
HETATM    4  C   UNL     1      25.457  46.958  49.640  1.00  0.00     0.063 A 
HETATM    5  N   UNL     1      24.808  48.163  49.559  1.00  0.00    -0.338 N 
HETATM    6  H   UNL     1      25.235  49.070  49.660  1.00  0.00     0.167 HD
HETATM    7  C   UNL     1      23.480  47.934  49.271  1.00  0.00     0.139 A 
HETATM    8  N   UNL     1      23.262  46.635  49.154  1.00  0.00    -0.228 NA
HETATM    9  C   UNL     1      26.786  46.624  49.890  1.00  0.00     0.033 A 
HETATM   10  C   UNL     1      27.090  45.257  49.898  1.00  0.00     0.016 A 
ENDROOT
BRANCH   1  11
HETATM   11  C   UNL     1      26.523  42.836  49.731  1.00  0.00     0.069 C 
HETATM   12  C   UNL     1      26.223  42.027  50.986  1.00  0.00     0.045 C 
HETATM   13  C   UNL     1      27.319  42.292  52.020  1.00  0.00     0.017 C 
HETATM   14  C   UNL     1      26.115  40.551  50.638  1.00  0.00     0.115 C 
HETATM   15  C   UNL     1      27.206  40.113  49.703  1.00  0.00     0.238 C 
HETATM   16  N   UNL     1      27.633  41.059  48.810  1.00  0.00    -0.247 N 
HETATM   17  O   UNL     1      27.635  38.962  49.685  1.00  0.00    -0.272 OA
HETATM   18  N   UNL     1      27.220  42.351  48.745  1.00  0.00    -0.176 NA
HETATM   19  H   UNL     1      28.294  40.758  48.101  1.00  0.00     0.192 HD
ENDBRANCH   1  11
BRANCH   7  20
HETATM   20  C   UNL     1      22.490  48.997  49.084  1.00  0.00     0.010 A 
HETATM   21  C   UNL     1      22.922  50.292  48.770  1.00  0.00     0.018 A 
HETATM   22  C   UNL     1      22.003  51.332  48.605  1.00  0.00     0.037 A 
HETATM   23  C   UNL     1      20.634  51.098  48.734  1.00  0.00     0.068 A 
HETATM   24  C   UNL     1      20.191  49.810  49.032  1.00  0.00     0.037 A 
HETATM   25  C   UNL     1      21.113  48.768  49.206  1.00  0.00     0.018 A 
BRANCH  23  26
HETATM   26  O   UNL     1      19.844  52.198  48.549  1.00  0.00    -0.356 OA
HETATM   27  C   UNL     1      18.602  51.997  47.887  1.00  0.00     0.210 C 
ENDBRANCH  23  26
ENDBRANCH   7  20
TORSDOF 3
ENDMDL
MODEL 10
REMARK VINA RESULT:      -7.7      7.508      8.969
REMARK  3 active torsions:
REMARK  status: ('A' for Active; 'I' for Inactive)
REMARK    1  A    between atoms: C_3  and  C_4 
REMARK    2  A    between atoms: C_10  and  C_11 
REMARK    3  A    between atoms: C_14  and  O_15 
ROOT
HETATM    1  C   UNL     1      25.973  41.987  49.362  1.00  0.00    -0.007 A 
HETATM    2  C   UNL     1      26.708  41.540  50.469  1.00  0.00     0.047 A 
HETATM    3  C   UNL     1      27.262  42.497  51.336  1.00  0.00     0.086 A 
HETATM    4  C   UNL     1      27.069  43.846  51.083  1.00  0.00     0.063 A 
HETATM    5  N   UNL     1      27.737  44.477  52.100  1.00  0.00    -0.338 N 
HETATM    6  H   UNL     1      27.783  45.473  52.245  1.00  0.00     0.167 HD
HETATM    7  C   UNL     1      28.299  43.525  52.922  1.00  0.00     0.139 A 
HETATM    8  N   UNL     1      28.007  42.315  52.474  1.00  0.00    -0.228 NA
HETATM    9  C   UNL     1      26.329  44.328  50.006  1.00  0.00     0.033 A 
HETATM   10  C   UNL     1      25.782  43.364  49.149  1.00  0.00     0.016 A 
ENDROOT
BRANCH   1  11
HETATM   11  C   UNL     1      25.376  41.032  48.373  1.00  0.00     0.069 C 
HETATM   12  C   UNL     1      24.198  41.484  47.519  1.00  0.00     0.045 C 
HETATM   13  C   UNL     1      22.908  41.314  48.323  1.00  0.00     0.017 C 
HETATM   14  C   UNL     1      24.166  40.693  46.220  1.00  0.00     0.115 C 
HETATM   15  C   UNL     1      24.412  39.229  46.447  1.00  0.00     0.238 C 
HETATM   16  N   UNL     1      25.256  38.926  47.481  1.00  0.00    -0.247 N 
HETATM   17  O   UNL     1      23.953  38.362  45.708  1.00  0.00    -0.272 OA
HETATM   18  N   UNL     1      25.819  39.809  48.348  1.00  0.00    -0.176 NA
HETATM   19  H   UNL     1      25.522  37.953  47.590  1.00  0.00     0.192 HD
ENDBRANCH   1  11
BRANCH   7  20
HETATM   20  C   UNL     1      29.065  43.838  54.130  1.00  0.00     0.010 A 
HETATM   21  C   UNL     1      28.785  45.014  54.836  1.00  0.00     0.018 A 
HETATM   22  C   UNL     1      29.512  45.351  55.982  1.00  0.00     0.037 A 
HETATM   23  C   UNL     1      30.523  44.513  56.454  1.00  0.00     0.068 A 
HETATM   24  C   UNL     1      30.801  43.332  55.767  1.00  0.00     0.037 A 
HETATM   25  C   UNL     1      30.077  42.997  54.614  1.00  0.00     0.018 A 
BRANCH  23  26
HETATM   26  O   UNL     1      31.156  44.957  57.581  1.00  0.00    -0.356 OA
HETATM   27  C   UNL     1      30.617  46.112  58.212  1.00  0.00     0.210 C 
ENDBRANCH  23  26
ENDBRANCH   7  20
TORSDOF 3
ENDMDL
