MODEL 1
REMARK VINA RESULT:      -8.5      0.000      0.000
REMARK  6 active torsions:
REMARK  status: ('A' for Active; 'I' for Inactive)
REMARK    1  A    between atoms: O_2  and  C_3 
REMARK    2  A    between atoms: C_6  and  C_7 
REMARK    3  A    between atoms: C_12  and  C_13 
REMARK       I    between atoms: C_13  and  N_14 
REMARK    4  A    between atoms: N_14  and  C_15 
REMARK    5  A    between atoms: C_17  and  O_18 
REMARK    6  A    between atoms: C_24  and  C_25 
ROOT
HETATM    1  C   UNL     1      28.336  39.796  48.431  1.00  0.00     0.118 C 
HETATM    2  N   UNL     1      28.874  39.834  49.787  1.00  0.00    -0.366 N 
HETATM    3  C   UNL     1      28.487  40.746  50.702  1.00  0.00     0.123 A 
HETATM    4  N   UNL     1      27.600  41.740  50.399  1.00  0.00    -0.240 N 
HETATM    5  N   UNL     1      27.404  42.623  51.396  1.00  0.00    -0.165 NA
HETATM    6  C   UNL     1      28.120  42.102  52.420  1.00  0.00     0.148 A 
HETATM    7  C   UNL     1      28.817  40.928  52.018  1.00  0.00     0.089 A 
HETATM    8  C   UNL     1      26.955  41.884  49.109  1.00  0.00     0.221 C 
HETATM    9  C   UNL     1      27.779  41.173  48.021  1.00  0.00     0.066 C 
HETATM   10  H   UNL     1      29.457  39.040  50.048  1.00  0.00     0.161 HD
ENDROOT
BRANCH   6  11
HETATM   11  C   UNL     1      28.147  42.725  53.756  1.00  0.00     0.276 C 
HETATM   12  N   UNL     1      29.371  43.303  54.030  1.00  0.00    -0.322 N 
HETATM   13  H   UNL     1      30.050  43.183  53.281  1.00  0.00     0.169 HD
HETATM   14  O   UNL     1      27.171  42.694  54.497  1.00  0.00    -0.266 OA
BRANCH  12  15
HETATM   15  C   UNL     1      29.772  43.997  55.184  1.00  0.00     0.037 A 
HETATM   16  C   UNL     1      30.786  43.558  56.039  1.00  0.00     0.066 A 
HETATM   17  C   UNL     1      31.113  44.309  57.169  1.00  0.00     0.067 A 
HETATM   18  C   UNL     1      30.452  45.495  57.459  1.00  0.00     0.036 A 
HETATM   19  C   UNL     1      29.439  45.938  56.611  1.00  0.00     0.005 A 
HETATM   20  C   UNL     1      29.099  45.189  55.481  1.00  0.00     0.029 A 
BRANCH  17  21
HETATM   21  O   UNL     1      32.092  43.902  58.029  1.00  0.00    -0.361 OA
HETATM   22  H   UNL     1      31.845  43.031  58.383  1.00  0.00     0.217 HD
ENDBRANCH  17  21
ENDBRANCH  12  15
ENDBRANCH   6  11
BRANCH   8  23
HETATM   23  C   UNL     1      25.518  41.423  49.196  1.00  0.00     0.409 C 
HETATM   24  F   UNL     1      24.664  42.366  49.634  1.00  0.00    -0.169 F 
HETATM   25  F   UNL     1      25.059  40.992  47.996  1.00  0.00    -0.169 F 
HETATM   26  F   UNL     1      25.418  40.364  50.040  1.00  0.00    -0.169 F 
ENDBRANCH   8  23
BRANCH   1  27
HETATM   27  C   UNL     1      27.394  38.627  48.202  1.00  0.00    -0.035 A 
HETATM   28  C   UNL     1      27.167  37.627  49.159  1.00  0.00     0.012 A 
HETATM   29  C   UNL     1      26.311  36.555  48.891  1.00  0.00     0.037 A 
HETATM   30  C   UNL     1      25.664  36.448  47.661  1.00  0.00     0.068 A 
HETATM   31  C   UNL     1      25.885  37.426  46.694  1.00  0.00     0.037 A 
HETATM   32  C   UNL     1      26.741  38.502  46.963  1.00  0.00     0.012 A 
BRANCH  30  33
HETATM   33  O   UNL     1      24.860  35.351  47.530  1.00  0.00    -0.356 OA
HETATM   34  C   UNL     1      23.476  35.589  47.305  1.00  0.00     0.210 C 
ENDBRANCH  30  33
ENDBRANCH   1  27
TORSDOF 6
ENDMDL
MODEL 2
REMARK VINA RESULT:      -8.4     13.522     15.563
REMARK  6 active torsions:
REMARK  status: ('A' for Active; 'I' for Inactive)
REMARK    1  A    between atoms: O_2  and  C_3 
REMARK    2  A    between atoms: C_6  and  C_7 
REMARK    3  A    between atoms: C_12  and  C_13 
REMARK       I    between atoms: C_13  and  N_14 
REMARK    4  A    between atoms: N_14  and  C_15 
REMARK    5  A    between atoms: C_17  and  O_18 
REMARK    6  A    between atoms: C_24  and  C_25 
ROOT
HETATM    1  C   UNL     1      19.557  49.986  47.192  1.00  0.00     0.118 C 
HETATM    2  N   UNL     1      18.901  51.281  47.345  1.00  0.00    -0.366 N 
HETATM    3  C   UNL     1      17.939  51.510  48.262  1.00  0.00     0.123 A 
HETATM    4  N   UNL     1      17.472  50.519  49.079  1.00  0.00    -0.240 N 
HETATM    5  N   UNL     1      16.443  50.895  49.863  1.00  0.00    -0.165 NA
HETATM    6  C   UNL     1      16.323  52.219  49.608  1.00  0.00     0.148 A 
HETATM    7  C   UNL     1      17.242  52.637  48.606  1.00  0.00     0.089 A 
HETATM    8  C   UNL     1      17.985  49.163  49.083  1.00  0.00     0.221 C 
HETATM    9  C   UNL     1      18.671  48.852  47.741  1.00  0.00     0.066 C 
HETATM   10  H   UNL     1      19.312  52.045  46.810  1.00  0.00     0.161 HD
ENDROOT
BRANCH   6  11
HETATM   11  C   UNL     1      15.337  53.065  50.304  1.00  0.00     0.276 C 
HETATM   12  N   UNL     1      15.877  54.278  50.684  1.00  0.00    -0.322 N 
HETATM   13  H   UNL     1      16.861  54.375  50.444  1.00  0.00     0.169 HD
HETATM   14  O   UNL     1      14.190  52.681  50.502  1.00  0.00    -0.266 OA
BRANCH  12  15
HETATM   15  C   UNL     1      15.249  55.344  51.352  1.00  0.00     0.037 A 
HETATM   16  C   UNL     1      14.608  55.215  52.586  1.00  0.00     0.066 A 
HETATM   17  C   UNL     1      14.004  56.328  53.172  1.00  0.00     0.067 A 
HETATM   18  C   UNL     1      14.034  57.571  52.553  1.00  0.00     0.036 A 
HETATM   19  C   UNL     1      14.670  57.706  51.321  1.00  0.00     0.005 A 
HETATM   20  C   UNL     1      15.271  56.595  50.723  1.00  0.00     0.029 A 
BRANCH  17  21
HETATM   21  O   UNL     1      13.362  56.234  54.373  1.00  0.00    -0.361 OA
HETATM   22  H   UNL     1      13.981  55.857  55.021  1.00  0.00     0.217 HD
ENDBRANCH  17  21
ENDBRANCH  12  15
ENDBRANCH   6  11
BRANCH   8  23
HETATM   23  C   UNL     1      18.865  48.947  50.293  1.00  0.00     0.409 C 
HETATM   24  F   UNL     1      19.488  50.059  50.725  1.00  0.00    -0.169 F 
HETATM   25  F   UNL     1      18.160  48.449  51.338  1.00  0.00    -0.169 F 
HETATM   26  F   UNL     1      19.824  48.028  50.014  1.00  0.00    -0.169 F 
ENDBRANCH   8  23
BRANCH   1  27
HETATM   27  C   UNL     1      20.989  49.988  47.698  1.00  0.00    -0.035 A 
HETATM   28  C   UNL     1      21.820  48.859  47.648  1.00  0.00     0.012 A 
HETATM   29  C   UNL     1      23.124  48.903  48.151  1.00  0.00     0.037 A 
HETATM   30  C   UNL     1      23.630  50.069  48.724  1.00  0.00     0.068 A 
HETATM   31  C   UNL     1      22.815  51.197  48.792  1.00  0.00     0.037 A 
HETATM   32  C   UNL     1      21.510  51.155  48.285  1.00  0.00     0.012 A 
BRANCH  30  33
HETATM   33  O   UNL     1      24.914  49.973  49.180  1.00  0.00    -0.356 OA
HETATM   34  C   UNL     1      25.936  49.833  48.202  1.00  0.00     0.210 C 
ENDBRANCH  30  33
ENDBRANCH   1  27
TORSDOF 6
ENDMDL
MODEL 3
REMARK VINA RESULT:      -8.4      9.925     11.995
REMARK  6 active torsions:
REMARK  status: ('A' for Active; 'I' for Inactive)
REMARK    1  A    between atoms: O_2  and  C_3 
REMARK    2  A    between atoms: C_6  and  C_7 
REMARK    3  A    between atoms: C_12  and  C_13 
REMARK       I    between atoms: C_13  and  N_14 
REMARK    4  A    between atoms: N_14  and  C_15 
REMARK    5  A    between atoms: C_17  and  O_18 
REMARK    6  A    between atoms: C_24  and  C_25 
ROOT
HETATM    1  C   UNL     1      18.958  51.335  47.499  1.00  0.00     0.118 C 
HETATM    2  N   UNL     1      20.195  50.698  47.058  1.00  0.00    -0.366 N 
HETATM    3  C   UNL     1      21.103  50.191  47.916  1.00  0.00     0.123 A 
HETATM    4  N   UNL     1      20.950  50.291  49.270  1.00  0.00    -0.240 N 
HETATM    5  N   UNL     1      21.997  49.823  49.976  1.00  0.00    -0.165 NA
HETATM    6  C   UNL     1      22.807  49.302  49.025  1.00  0.00     0.148 A 
HETATM    7  C   UNL     1      22.280  49.519  47.722  1.00  0.00     0.089 A 
HETATM    8  C   UNL     1      19.797  50.892  49.912  1.00  0.00     0.221 C 
HETATM    9  C   UNL     1      19.092  51.857  48.942  1.00  0.00     0.066 C 
HETATM   10  H   UNL     1      20.267  50.531  46.054  1.00  0.00     0.161 HD
ENDROOT
BRANCH   6  11
HETATM   11  C   UNL     1      24.070  48.618  49.360  1.00  0.00     0.276 C 
HETATM   12  N   UNL     1      23.851  47.354  49.871  1.00  0.00    -0.322 N 
HETATM   13  H   UNL     1      22.865  47.117  49.953  1.00  0.00     0.169 HD
HETATM   14  O   UNL     1      25.156  49.162  49.192  1.00  0.00    -0.266 OA
BRANCH  12  15
HETATM   15  C   UNL     1      24.799  46.404  50.288  1.00  0.00     0.037 A 
HETATM   16  C   UNL     1      25.372  45.456  49.438  1.00  0.00     0.066 A 
HETATM   17  C   UNL     1      26.301  44.545  49.941  1.00  0.00     0.067 A 
HETATM   18  C   UNL     1      26.675  44.565  51.278  1.00  0.00     0.036 A 
HETATM   19  C   UNL     1      26.107  45.507  52.133  1.00  0.00     0.005 A 
HETATM   20  C   UNL     1      25.170  46.419  51.639  1.00  0.00     0.029 A 
BRANCH  17  21
HETATM   21  O   UNL     1      26.872  43.600  49.137  1.00  0.00    -0.361 OA
HETATM   22  H   UNL     1      27.751  43.919  48.869  1.00  0.00     0.217 HD
ENDBRANCH  17  21
ENDBRANCH  12  15
ENDBRANCH   6  11
BRANCH   8  23
HETATM   23  C   UNL     1      18.900  49.814  50.475  1.00  0.00     0.409 C 
HETATM   24  F   UNL     1      18.926  48.660  49.784  1.00  0.00    -0.169 F 
HETATM   25  F   UNL     1      19.219  49.521  51.759  1.00  0.00    -0.169 F 
HETATM   26  F   UNL     1      17.612  50.243  50.497  1.00  0.00    -0.169 F 
ENDBRANCH   8  23
BRANCH   1  27
HETATM   27  C   UNL     1      17.729  50.483  47.234  1.00  0.00    -0.035 A 
HETATM   28  C   UNL     1      16.426  50.903  47.540  1.00  0.00     0.012 A 
HETATM   29  C   UNL     1      15.328  50.071  47.301  1.00  0.00     0.037 A 
HETATM   30  C   UNL     1      15.500  48.798  46.758  1.00  0.00     0.068 A 
HETATM   31  C   UNL     1      16.788  48.361  46.458  1.00  0.00     0.037 A 
HETATM   32  C   UNL     1      17.889  49.195  46.694  1.00  0.00     0.012 A 
BRANCH  30  33
HETATM   33  O   UNL     1      14.345  48.090  46.581  1.00  0.00    -0.356 OA
HETATM   34  C   UNL     1      13.540  48.439  45.463  1.00  0.00     0.210 C 
ENDBRANCH  30  33
ENDBRANCH   1  27
TORSDOF 6
ENDMDL
MODEL 4
REMARK VINA RESULT:      -8.2     10.957     13.171
REMARK  6 active torsions:
REMARK  status: ('A' for Active; 'I' for Inactive)
REMARK    1  A    between atoms: O_2  and  C_3 
REMARK    2  A    between atoms: C_6  and  C_7 
REMARK    3  A    between atoms: C_12  and  C_13 
REMARK       I    between atoms: C_13  and  N_14 
REMARK    4  A    between atoms: N_14  and  C_15 
REMARK    5  A    between atoms: C_17  and  O_18 
REMARK    6  A    between atoms: C_24  and  C_25 
ROOT
HETATM    1  C   UNL     1      18.220  52.297  48.801  1.00  0.00     0.118 C 
HETATM    2  N   UNL     1      19.643  52.271  48.474  1.00  0.00    -0.366 N 
HETATM    3  C   UNL     1      20.430  51.205  48.721  1.00  0.00     0.123 A 
HETATM    4  N   UNL     1      19.956  50.089  49.351  1.00  0.00    -0.240 N 
HETATM    5  N   UNL     1      20.899  49.163  49.610  1.00  0.00    -0.165 NA
HETATM    6  C   UNL     1      22.006  49.671  49.018  1.00  0.00     0.148 A 
HETATM    7  C   UNL     1      21.749  50.952  48.456  1.00  0.00     0.089 A 
HETATM    8  C   UNL     1      18.577  49.916  49.763  1.00  0.00     0.221 C 
HETATM    9  C   UNL     1      17.893  51.285  49.915  1.00  0.00     0.066 C 
HETATM   10  H   UNL     1      19.977  53.057  47.917  1.00  0.00     0.161 HD
ENDROOT
BRANCH   6  11
HETATM   11  C   UNL     1      23.290  48.946  49.002  1.00  0.00     0.276 C 
HETATM   12  N   UNL     1      23.263  47.834  49.821  1.00  0.00    -0.322 N 
HETATM   13  H   UNL     1      22.379  47.715  50.311  1.00  0.00     0.169 HD
HETATM   14  O   UNL     1      24.238  49.337  48.331  1.00  0.00    -0.266 OA
BRANCH  12  15
HETATM   15  C   UNL     1      24.282  46.896  50.056  1.00  0.00     0.037 A 
HETATM   16  C   UNL     1      24.480  45.755  49.275  1.00  0.00     0.066 A 
HETATM   17  C   UNL     1      25.514  44.872  49.586  1.00  0.00     0.067 A 
HETATM   18  C   UNL     1      26.363  45.111  50.659  1.00  0.00     0.036 A 
HETATM   19  C   UNL     1      26.172  46.246  51.443  1.00  0.00     0.005 A 
HETATM   20  C   UNL     1      25.133  47.132  51.144  1.00  0.00     0.029 A 
BRANCH  17  21
HETATM   21  O   UNL     1      25.728  43.744  48.848  1.00  0.00    -0.361 OA
HETATM   22  H   UNL     1      25.567  43.957  47.912  1.00  0.00     0.217 HD
ENDBRANCH  17  21
ENDBRANCH  12  15
ENDBRANCH   6  11
BRANCH   8  23
HETATM   23  C   UNL     1      17.871  48.972  48.816  1.00  0.00     0.409 C 
HETATM   24  F   UNL     1      16.552  49.207  48.688  1.00  0.00    -0.169 F 
HETATM   25  F   UNL     1      18.410  49.018  47.574  1.00  0.00    -0.169 F 
HETATM   26  F   UNL     1      18.014  47.691  49.241  1.00  0.00    -0.169 F 
ENDBRANCH   8  23
BRANCH   1  27
HETATM   27  C   UNL     1      17.332  52.211  47.571  1.00  0.00    -0.035 A 
HETATM   28  C   UNL     1      15.931  52.254  47.634  1.00  0.00     0.012 A 
HETATM   29  C   UNL     1      15.156  52.144  46.476  1.00  0.00     0.037 A 
HETATM   30  C   UNL     1      15.755  51.982  45.228  1.00  0.00     0.068 A 
HETATM   31  C   UNL     1      17.145  51.927  45.147  1.00  0.00     0.037 A 
HETATM   32  C   UNL     1      17.922  52.040  46.307  1.00  0.00     0.012 A 
BRANCH  30  33
HETATM   33  O   UNL     1      14.882  51.883  44.181  1.00  0.00    -0.356 OA
HETATM   34  C   UNL     1      15.046  52.808  43.115  1.00  0.00     0.210 C 
ENDBRANCH  30  33
ENDBRANCH   1  27
TORSDOF 6
ENDMDL
MODEL 5
REMARK VINA RESULT:      -8.2      3.266      9.500
REMARK  6 active torsions:
REMARK  status: ('A' for Active; 'I' for Inactive)
REMARK    1  A    between atoms: O_2  and  C_3 
REMARK    2  A    between atoms: C_6  and  C_7 
REMARK    3  A    between atoms: C_12  and  C_13 
REMARK       I    between atoms: C_13  and  N_14 
REMARK    4  A    between atoms: N_14  and  C_15 
REMARK    5  A    between atoms: C_17  and  O_18 
REMARK    6  A    between atoms: C_24  and  C_25 
ROOT
HETATM    1  C   UNL     1      26.613  42.687  53.287  1.00  0.00     0.118 C 
HETATM    2  N   UNL     1      27.163  41.540  52.572  1.00  0.00    -0.366 N 
HETATM    3  C   UNL     1      27.280  41.503  51.230  1.00  0.00     0.123 A 
HETATM    4  N   UNL     1      26.835  42.524  50.438  1.00  0.00    -0.240 N 
HETATM    5  N   UNL     1      26.937  42.280  49.118  1.00  0.00    -0.165 NA
HETATM    6  C   UNL     1      27.578  41.088  49.070  1.00  0.00     0.148 A 
HETATM    7  C   UNL     1      27.803  40.570  50.375  1.00  0.00     0.089 A 
HETATM    8  C   UNL     1      26.253  43.750  50.950  1.00  0.00     0.221 C 
HETATM    9  C   UNL     1      25.703  43.524  52.369  1.00  0.00     0.066 C 
HETATM   10  H   UNL     1      27.586  40.821  53.159  1.00  0.00     0.161 HD
ENDROOT
BRANCH   6  11
HETATM   11  C   UNL     1      27.955  40.452  47.795  1.00  0.00     0.276 C 
HETATM   12  N   UNL     1      27.416  41.115  46.709  1.00  0.00    -0.322 N 
HETATM   13  H   UNL     1      26.835  41.909  46.969  1.00  0.00     0.169 HD
HETATM   14  O   UNL     1      28.658  39.448  47.763  1.00  0.00    -0.266 OA
BRANCH  12  15
HETATM   15  C   UNL     1      27.561  40.818  45.343  1.00  0.00     0.037 A 
HETATM   16  C   UNL     1      28.721  41.083  44.612  1.00  0.00     0.066 A 
HETATM   17  C   UNL     1      28.774  40.761  43.255  1.00  0.00     0.067 A 
HETATM   18  C   UNL     1      27.691  40.173  42.615  1.00  0.00     0.036 A 
HETATM   19  C   UNL     1      26.531  39.907  43.337  1.00  0.00     0.005 A 
HETATM   20  C   UNL     1      26.466  40.233  44.695  1.00  0.00     0.029 A 
BRANCH  17  21
HETATM   21  O   UNL     1      29.889  41.016  42.511  1.00  0.00    -0.361 OA
HETATM   22  H   UNL     1      29.740  41.834  42.008  1.00  0.00     0.217 HD
ENDBRANCH  17  21
ENDBRANCH  12  15
ENDBRANCH   6  11
BRANCH   8  23
HETATM   23  C   UNL     1      27.253  44.879  50.846  1.00  0.00     0.409 C 
HETATM   24  F   UNL     1      26.991  45.921  51.655  1.00  0.00    -0.169 F 
HETATM   25  F   UNL     1      28.510  44.458  51.125  1.00  0.00    -0.169 F 
HETATM   26  F   UNL     1      27.289  45.353  49.574  1.00  0.00    -0.169 F 
ENDBRANCH   8  23
BRANCH   1  27
HETATM   27  C   UNL     1      27.672  43.477  54.038  1.00  0.00    -0.035 A 
HETATM   28  C   UNL     1      28.994  43.034  54.190  1.00  0.00     0.012 A 
HETATM   29  C   UNL     1      29.925  43.785  54.912  1.00  0.00     0.037 A 
HETATM   30  C   UNL     1      29.562  44.993  55.508  1.00  0.00     0.068 A 
HETATM   31  C   UNL     1      28.251  45.443  55.376  1.00  0.00     0.037 A 
HETATM   32  C   UNL     1      27.318  44.693  54.649  1.00  0.00     0.012 A 
BRANCH  30  33
HETATM   33  O   UNL     1      30.567  45.622  56.187  1.00  0.00    -0.356 OA
HETATM   34  C   UNL     1      30.358  45.862  57.572  1.00  0.00     0.210 C 
ENDBRANCH  30  33
ENDBRANCH   1  27
TORSDOF 6
ENDMDL
MODEL 6
REMARK VINA RESULT:      -8.2      2.870      9.538
REMARK  6 active torsions:
REMARK  status: ('A' for Active; 'I' for Inactive)
REMARK    1  A    between atoms: O_2  and  C_3 
REMARK    2  A    between atoms: C_6  and  C_7 
REMARK    3  A    between atoms: C_12  and  C_13 
REMARK       I    between atoms: C_13  and  N_14 
REMARK    4  A    between atoms: N_14  and  C_15 
REMARK    5  A    between atoms: C_17  and  O_18 
REMARK    6  A    between atoms: C_24  and  C_25 
ROOT
HETATM    1  C   UNL     1      26.659  42.510  53.114  1.00  0.00     0.118 C 
HETATM    2  N   UNL     1      27.254  41.421  52.347  1.00  0.00    -0.366 N 
HETATM    3  C   UNL     1      27.387  41.460  51.005  1.00  0.00     0.123 A 
HETATM    4  N   UNL     1      26.916  42.507  50.264  1.00  0.00    -0.240 N 
HETATM    5  N   UNL     1      27.040  42.336  48.934  1.00  0.00    -0.165 NA
HETATM    6  C   UNL     1      27.721  41.171  48.831  1.00  0.00     0.148 A 
HETATM    7  C   UNL     1      27.950  40.591  50.109  1.00  0.00     0.089 A 
HETATM    8  C   UNL     1      26.288  43.683  50.832  1.00  0.00     0.221 C 
HETATM    9  C   UNL     1      25.730  43.364  52.230  1.00  0.00     0.066 C 
HETATM   10  H   UNL     1      27.695  40.686  52.899  1.00  0.00     0.161 HD
ENDROOT
BRANCH   6  11
HETATM   11  C   UNL     1      28.133  40.616  47.528  1.00  0.00     0.276 C 
HETATM   12  N   UNL     1      27.840  39.270  47.426  1.00  0.00    -0.322 N 
HETATM   13  H   UNL     1      27.415  38.885  48.266  1.00  0.00     0.169 HD
HETATM   14  O   UNL     1      28.678  41.313  46.679  1.00  0.00    -0.266 OA
BRANCH  12  15
HETATM   15  C   UNL     1      28.068  38.406  46.341  1.00  0.00     0.037 A 
HETATM   16  C   UNL     1      27.507  38.587  45.075  1.00  0.00     0.066 A 
HETATM   17  C   UNL     1      27.783  37.673  44.058  1.00  0.00     0.067 A 
HETATM   18  C   UNL     1      28.615  36.583  44.278  1.00  0.00     0.036 A 
HETATM   19  C   UNL     1      29.177  36.395  45.539  1.00  0.00     0.005 A 
HETATM   20  C   UNL     1      28.900  37.302  46.566  1.00  0.00     0.029 A 
BRANCH  17  21
HETATM   21  O   UNL     1      27.243  37.816  42.812  1.00  0.00    -0.361 OA
HETATM   22  H   UNL     1      26.303  38.044  42.912  1.00  0.00     0.217 HD
ENDBRANCH  17  21
ENDBRANCH  12  15
ENDBRANCH   6  11
BRANCH   8  23
HETATM   23  C   UNL     1      27.250  44.849  50.800  1.00  0.00     0.409 C 
HETATM   24  F   UNL     1      28.505  44.536  51.171  1.00  0.00    -0.169 F 
HETATM   25  F   UNL     1      27.321  45.402  49.565  1.00  0.00    -0.169 F 
HETATM   26  F   UNL     1      26.817  45.833  51.629  1.00  0.00    -0.169 F 
ENDBRANCH   8  23
BRANCH   1  27
HETATM   27  C   UNL     1      27.682  43.293  53.919  1.00  0.00    -0.035 A 
HETATM   28  C   UNL     1      27.397  44.521  54.533  1.00  0.00     0.012 A 
HETATM   29  C   UNL     1      28.381  45.217  55.240  1.00  0.00     0.037 A 
HETATM   30  C   UNL     1      29.676  44.712  55.348  1.00  0.00     0.068 A 
HETATM   31  C   UNL     1      29.981  43.499  54.734  1.00  0.00     0.037 A 
HETATM   32  C   UNL     1      28.994  42.799  54.028  1.00  0.00     0.012 A 
BRANCH  30  33
HETATM   33  O   UNL     1      30.539  45.495  56.062  1.00  0.00    -0.356 OA
HETATM   34  C   UNL     1      30.192  45.770  57.413  1.00  0.00     0.210 C 
ENDBRANCH  30  33
ENDBRANCH   1  27
TORSDOF 6
ENDMDL
MODEL 7
REMARK VINA RESULT:      -8.2      2.925      3.973
REMARK  6 active torsions:
REMARK  status: ('A' for Active; 'I' for Inactive)
REMARK    1  A    between atoms: O_2  and  C_3 
REMARK    2  A    between atoms: C_6  and  C_7 
REMARK    3  A    between atoms: C_12  and  C_13 
REMARK       I    between atoms: C_13  and  N_14 
REMARK    4  A    between atoms: N_14  and  C_15 
REMARK    5  A    between atoms: C_17  and  O_18 
REMARK    6  A    between atoms: C_24  and  C_25 
ROOT
HETATM    1  C   UNL     1      26.120  40.118  47.247  1.00  0.00     0.118 C 
HETATM    2  N   UNL     1      26.095  41.485  47.755  1.00  0.00    -0.366 N 
HETATM    3  C   UNL     1      26.629  41.833  48.944  1.00  0.00     0.123 A 
HETATM    4  N   UNL     1      27.183  40.909  49.784  1.00  0.00    -0.240 N 
HETATM    5  N   UNL     1      27.574  41.412  50.970  1.00  0.00    -0.165 NA
HETATM    6  C   UNL     1      27.357  42.741  50.834  1.00  0.00     0.148 A 
HETATM    7  C   UNL     1      26.760  43.040  49.578  1.00  0.00     0.089 A 
HETATM    8  C   UNL     1      27.301  39.498  49.471  1.00  0.00     0.221 C 
HETATM    9  C   UNL     1      26.271  39.105  48.398  1.00  0.00     0.066 C 
HETATM   10  H   UNL     1      25.775  42.192  47.094  1.00  0.00     0.161 HD
ENDROOT
BRANCH   6  11
HETATM   11  C   UNL     1      27.703  43.705  51.894  1.00  0.00     0.276 C 
HETATM   12  N   UNL     1      28.507  43.138  52.863  1.00  0.00    -0.322 N 
HETATM   13  H   UNL     1      28.705  42.153  52.697  1.00  0.00     0.169 HD
HETATM   14  O   UNL     1      27.288  44.858  51.871  1.00  0.00    -0.266 OA
BRANCH  12  15
HETATM   15  C   UNL     1      29.049  43.739  54.012  1.00  0.00     0.037 A 
HETATM   16  C   UNL     1      28.453  44.812  54.679  1.00  0.00     0.066 A 
HETATM   17  C   UNL     1      29.066  45.352  55.810  1.00  0.00     0.067 A 
HETATM   18  C   UNL     1      30.261  44.836  56.294  1.00  0.00     0.036 A 
HETATM   19  C   UNL     1      30.862  43.766  55.633  1.00  0.00     0.005 A 
HETATM   20  C   UNL     1      30.259  43.224  54.495  1.00  0.00     0.029 A 
BRANCH  17  21
HETATM   21  O   UNL     1      28.514  46.406  56.478  1.00  0.00    -0.361 OA
HETATM   22  H   UNL     1      27.630  46.573  56.108  1.00  0.00     0.217 HD
ENDBRANCH  17  21
ENDBRANCH  12  15
ENDBRANCH   6  11
BRANCH   8  23
HETATM   23  C   UNL     1      28.731  39.169  49.107  1.00  0.00     0.409 C 
HETATM   24  F   UNL     1      29.380  40.163  48.475  1.00  0.00    -0.169 F 
HETATM   25  F   UNL     1      29.460  38.843  50.201  1.00  0.00    -0.169 F 
HETATM   26  F   UNL     1      28.766  38.082  48.294  1.00  0.00    -0.169 F 
ENDBRANCH   8  23
BRANCH   1  27
HETATM   27  C   UNL     1      27.095  39.934  46.096  1.00  0.00    -0.035 A 
HETATM   28  C   UNL     1      27.884  40.975  45.587  1.00  0.00     0.012 A 
HETATM   29  C   UNL     1      28.747  40.762  44.508  1.00  0.00     0.037 A 
HETATM   30  C   UNL     1      28.840  39.509  43.904  1.00  0.00     0.068 A 
HETATM   31  C   UNL     1      28.056  38.465  44.390  1.00  0.00     0.037 A 
HETATM   32  C   UNL     1      27.193  38.677  45.473  1.00  0.00     0.012 A 
BRANCH  30  33
HETATM   33  O   UNL     1      29.717  39.440  42.859  1.00  0.00    -0.356 OA
HETATM   34  C   UNL     1      30.608  38.332  42.835  1.00  0.00     0.210 C 
ENDBRANCH  30  33
ENDBRANCH   1  27
TORSDOF 6
ENDMDL
MODEL 8
REMARK VINA RESULT:      -8.1     14.436     15.782
REMARK  6 active torsions:
REMARK  status: ('A' for Active; 'I' for Inactive)
REMARK    1  A    between atoms: O_2  and  C_3 
REMARK    2  A    between atoms: C_6  and  C_7 
REMARK    3  A    between atoms: C_12  and  C_13 
REMARK       I    between atoms: C_13  and  N_14 
REMARK    4  A    between atoms: N_14  and  C_15 
REMARK    5  A    between atoms: C_17  and  O_18 
REMARK    6  A    between atoms: C_24  and  C_25 
ROOT
HETATM    1  C   UNL     1      29.248  51.905  38.073  1.00  0.00     0.118 C 
HETATM    2  N   UNL     1      30.640  51.510  37.881  1.00  0.00    -0.366 N 
HETATM    3  C   UNL     1      31.610  51.795  38.772  1.00  0.00     0.123 A 
HETATM    4  N   UNL     1      31.362  52.529  39.898  1.00  0.00    -0.240 N 
HETATM    5  N   UNL     1      32.461  52.806  40.625  1.00  0.00    -0.165 NA
HETATM    6  C   UNL     1      33.439  52.123  39.985  1.00  0.00     0.148 A 
HETATM    7  C   UNL     1      32.942  51.483  38.817  1.00  0.00     0.089 A 
HETATM    8  C   UNL     1      30.050  53.021  40.271  1.00  0.00     0.221 C 
HETATM    9  C   UNL     1      29.143  53.106  39.031  1.00  0.00     0.066 C 
HETATM   10  H   UNL     1      30.811  50.881  37.098  1.00  0.00     0.161 HD
ENDROOT
BRANCH   6  11
HETATM   11  C   UNL     1      34.828  52.097  40.478  1.00  0.00     0.276 C 
HETATM   12  N   UNL     1      34.888  51.843  41.834  1.00  0.00    -0.322 N 
HETATM   13  H   UNL     1      33.973  51.740  42.267  1.00  0.00     0.169 HD
HETATM   14  O   UNL     1      35.778  52.295  39.729  1.00  0.00    -0.266 OA
BRANCH  12  15
HETATM   15  C   UNL     1      36.025  51.728  42.653  1.00  0.00     0.037 A 
HETATM   16  C   UNL     1      36.999  50.740  42.494  1.00  0.00     0.066 A 
HETATM   17  C   UNL     1      38.092  50.699  43.360  1.00  0.00     0.067 A 
HETATM   18  C   UNL     1      38.236  51.630  44.379  1.00  0.00     0.036 A 
HETATM   19  C   UNL     1      37.268  52.618  44.545  1.00  0.00     0.005 A 
HETATM   20  C   UNL     1      36.166  52.663  43.687  1.00  0.00     0.029 A 
BRANCH  17  21
HETATM   21  O   UNL     1      39.056  49.740  43.236  1.00  0.00    -0.361 OA
HETATM   22  H   UNL     1      39.405  49.543  44.122  1.00  0.00     0.217 HD
ENDBRANCH  17  21
ENDBRANCH  12  15
ENDBRANCH   6  11
BRANCH   8  23
HETATM   23  C   UNL     1      29.485  52.183  41.395  1.00  0.00     0.409 C 
HETATM   24  F   UNL     1      29.922  50.911  41.406  1.00  0.00    -0.169 F 
HETATM   25  F   UNL     1      29.772  52.718  42.607  1.00  0.00    -0.169 F 
HETATM   26  F   UNL     1      28.131  52.145  41.313  1.00  0.00    -0.169 F 
ENDBRANCH   8  23
BRANCH   1  27
HETATM   27  C   UNL     1      28.343  50.732  38.409  1.00  0.00    -0.035 A 
HETATM   28  C   UNL     1      26.944  50.827  38.435  1.00  0.00     0.012 A 
HETATM   29  C   UNL     1      26.155  49.725  38.777  1.00  0.00     0.037 A 
HETATM   30  C   UNL     1      26.739  48.503  39.109  1.00  0.00     0.068 A 
HETATM   31  C   UNL     1      28.128  48.393  39.099  1.00  0.00     0.037 A 
HETATM   32  C   UNL     1      28.919  49.496  38.753  1.00  0.00     0.012 A 
BRANCH  30  33
HETATM   33  O   UNL     1      25.853  47.512  39.427  1.00  0.00    -0.356 OA
HETATM   34  C   UNL     1      25.271  47.560  40.723  1.00  0.00     0.210 C 
ENDBRANCH  30  33
ENDBRANCH   1  27
TORSDOF 6
ENDMDL
MODEL 9
REMARK VINA RESULT:      -8.0     13.803     14.878
REMARK  6 active torsions:
REMARK  status: ('A' for Active; 'I' for Inactive)
REMARK    1  A    between atoms: O_2  and  C_3 
REMARK    2  A    between atoms: C_6  and  C_7 
REMARK    3  A    between atoms: C_12  and  C_13 
REMARK       I    between atoms: C_13  and  N_14 
REMARK    4  A    between atoms: N_14  and  C_15 
REMARK    5  A    between atoms: C_17  and  O_18 
REMARK    6  A    between atoms: C_24  and  C_25 
ROOT
HETATM    1  C   UNL     1      31.012  49.392  39.040  1.00  0.00     0.118 C 
HETATM    2  N   UNL     1      31.997  49.133  40.085  1.00  0.00    -0.366 N 
HETATM    3  C   UNL     1      32.480  50.100  40.891  1.00  0.00     0.123 A 
HETATM    4  N   UNL     1      32.117  51.410  40.744  1.00  0.00    -0.240 N 
HETATM    5  N   UNL     1      32.769  52.255  41.564  1.00  0.00    -0.165 NA
HETATM    6  C   UNL     1      33.504  51.429  42.344  1.00  0.00     0.148 A 
HETATM    7  C   UNL     1      33.351  50.072  41.947  1.00  0.00     0.089 A 
HETATM    8  C   UNL     1      31.157  51.878  39.764  1.00  0.00     0.221 C 
HETATM    9  C   UNL     1      31.045  50.870  38.606  1.00  0.00     0.066 C 
HETATM   10  H   UNL     1      32.196  48.150  40.265  1.00  0.00     0.161 HD
ENDROOT
BRANCH   6  11
HETATM   11  C   UNL     1      34.348  51.933  43.443  1.00  0.00     0.276 C 
HETATM   12  N   UNL     1      35.597  52.319  42.998  1.00  0.00    -0.322 N 
HETATM   13  H   UNL     1      35.732  52.172  42.000  1.00  0.00     0.169 HD
HETATM   14  O   UNL     1      33.940  51.970  44.599  1.00  0.00    -0.266 OA
BRANCH  12  15
HETATM   15  C   UNL     1      36.662  52.858  43.740  1.00  0.00     0.037 A 
HETATM   16  C   UNL     1      37.087  52.347  44.968  1.00  0.00     0.066 A 
HETATM   17  C   UNL     1      38.150  52.951  45.639  1.00  0.00     0.067 A 
HETATM   18  C   UNL     1      38.804  54.053  45.104  1.00  0.00     0.036 A 
HETATM   19  C   UNL     1      38.386  54.568  43.879  1.00  0.00     0.005 A 
HETATM   20  C   UNL     1      37.316  53.975  43.203  1.00  0.00     0.029 A 
BRANCH  17  21
HETATM   21  O   UNL     1      38.583  52.482  46.846  1.00  0.00    -0.361 OA
HETATM   22  H   UNL     1      39.221  53.119  47.210  1.00  0.00     0.217 HD
ENDBRANCH  17  21
ENDBRANCH  12  15
ENDBRANCH   6  11
BRANCH   8  23
HETATM   23  C   UNL     1      29.842  52.194  40.439  1.00  0.00     0.409 C 
HETATM   24  F   UNL     1      28.764  52.019  39.653  1.00  0.00    -0.169 F 
HETATM   25  F   UNL     1      29.658  51.437  41.548  1.00  0.00    -0.169 F 
HETATM   26  F   UNL     1      29.832  53.485  40.858  1.00  0.00    -0.169 F 
ENDBRANCH   8  23
BRANCH   1  27
HETATM   27  C   UNL     1      29.634  48.852  39.382  1.00  0.00    -0.035 A 
HETATM   28  C   UNL     1      28.545  48.920  38.501  1.00  0.00     0.012 A 
HETATM   29  C   UNL     1      27.288  48.432  38.872  1.00  0.00     0.037 A 
HETATM   30  C   UNL     1      27.083  47.871  40.132  1.00  0.00     0.068 A 
HETATM   31  C   UNL     1      28.151  47.805  41.024  1.00  0.00     0.037 A 
HETATM   32  C   UNL     1      29.411  48.291  40.652  1.00  0.00     0.012 A 
BRANCH  30  33
HETATM   33  O   UNL     1      25.808  47.439  40.366  1.00  0.00    -0.356 OA
HETATM   34  C   UNL     1      24.751  48.239  39.852  1.00  0.00     0.210 C 
ENDBRANCH  30  33
ENDBRANCH   1  27
TORSDOF 6
ENDMDL
MODEL 10
REMARK VINA RESULT:      -7.9      2.867      3.849
REMARK  6 active torsions:
REMARK  status: ('A' for Active; 'I' for Inactive)
REMARK    1  A    between atoms: O_2  and  C_3 
REMARK    2  A    between atoms: C_6  and  C_7 
REMARK    3  A    between atoms: C_12  and  C_13 
REMARK       I    between atoms: C_13  and  N_14 
REMARK    4  A    between atoms: N_14  and  C_15 
REMARK    5  A    between atoms: C_17  and  O_18 
REMARK    6  A    between atoms: C_24  and  C_25 
ROOT
HETATM    1  C   UNL     1      26.403  39.291  48.255  1.00  0.00     0.118 C 
HETATM    2  N   UNL     1      26.418  40.586  48.927  1.00  0.00    -0.366 N 
HETATM    3  C   UNL     1      27.245  40.868  49.954  1.00  0.00     0.123 A 
HETATM    4  N   UNL     1      28.091  39.931  50.476  1.00  0.00    -0.240 N 
HETATM    5  N   UNL     1      28.770  40.349  51.561  1.00  0.00    -0.165 NA
HETATM    6  C   UNL     1      28.416  41.651  51.668  1.00  0.00     0.148 A 
HETATM    7  C   UNL     1      27.458  42.009  50.680  1.00  0.00     0.089 A 
HETATM    8  C   UNL     1      28.226  38.583  49.958  1.00  0.00     0.221 C 
HETATM    9  C   UNL     1      26.962  38.188  49.173  1.00  0.00     0.066 C 
HETATM   10  H   UNL     1      25.864  41.316  48.480  1.00  0.00     0.161 HD
ENDROOT
BRANCH   6  11
HETATM   11  C   UNL     1      28.978  42.533  52.707  1.00  0.00     0.276 C 
HETATM   12  N   UNL     1      28.075  43.499  53.106  1.00  0.00    -0.322 N 
HETATM   13  H   UNL     1      27.190  43.456  52.605  1.00  0.00     0.169 HD
HETATM   14  O   UNL     1      30.122  42.386  53.122  1.00  0.00    -0.266 OA
BRANCH  12  15
HETATM   15  C   UNL     1      28.239  44.503  54.075  1.00  0.00     0.037 A 
HETATM   16  C   UNL     1      29.258  44.498  55.031  1.00  0.00     0.066 A 
HETATM   17  C   UNL     1      29.340  45.534  55.962  1.00  0.00     0.067 A 
HETATM   18  C   UNL     1      28.428  46.581  55.953  1.00  0.00     0.036 A 
HETATM   19  C   UNL     1      27.408  46.592  55.004  1.00  0.00     0.005 A 
HETATM   20  C   UNL     1      27.313  45.555  54.072  1.00  0.00     0.029 A 
BRANCH  17  21
HETATM   21  O   UNL     1      30.318  45.554  56.914  1.00  0.00    -0.361 OA
HETATM   22  H   UNL     1      30.864  46.346  56.773  1.00  0.00     0.217 HD
ENDBRANCH  17  21
ENDBRANCH  12  15
ENDBRANCH   6  11
BRANCH   8  23
HETATM   23  C   UNL     1      29.509  38.459  49.169  1.00  0.00     0.409 C 
HETATM   24  F   UNL     1      29.465  37.539  48.189  1.00  0.00    -0.169 F 
HETATM   25  F   UNL     1      29.858  39.638  48.598  1.00  0.00    -0.169 F 
HETATM   26  F   UNL     1      30.533  38.123  49.994  1.00  0.00    -0.169 F 
ENDBRANCH   8  23
BRANCH   1  27
HETATM   27  C   UNL     1      27.011  39.341  46.864  1.00  0.00    -0.035 A 
HETATM   28  C   UNL     1      27.100  38.220  46.026  1.00  0.00     0.012 A 
HETATM   29  C   UNL     1      27.694  38.310  44.764  1.00  0.00     0.037 A 
HETATM   30  C   UNL     1      28.220  39.518  44.306  1.00  0.00     0.068 A 
HETATM   31  C   UNL     1      28.150  40.640  45.129  1.00  0.00     0.037 A 
HETATM   32  C   UNL     1      27.552  40.550  46.393  1.00  0.00     0.012 A 
BRANCH  30  33
HETATM   33  O   UNL     1      28.774  39.465  43.059  1.00  0.00    -0.356 OA
HETATM   34  C   UNL     1      29.257  40.687  42.516  1.00  0.00     0.210 C 
ENDBRANCH  30  33
ENDBRANCH   1  27
TORSDOF 6
ENDMDL
