MODEL 1
REMARK VINA RESULT:      -9.8      0.000      0.000
REMARK  6 active torsions:
REMARK  status: ('A' for Active; 'I' for Inactive)
REMARK    1  A    between atoms: C_2  and  C_3 
REMARK    2  A    between atoms: C_3  and  C_4 
REMARK    3  A    between atoms: C_6  and  N_7 
REMARK    4  A    between atoms: C_9  and  C_10 
REMARK    5  A    between atoms: C_16  and  N_17 
REMARK       I    between atoms: N_17  and  C_18 
REMARK    6  A    between atoms: C_18  and  C_19 
ROOT
HETATM    1  N   UNL     1      25.916  45.444  50.709  1.00  0.00    -0.044 N 
HETATM    2  N   UNL     1      25.018  45.813  49.756  1.00  0.00    -0.150 NA
HETATM    3  C   UNL     1      24.779  47.107  50.016  1.00  0.00     0.099 A 
HETATM    4  C   UNL     1      25.524  47.567  51.128  1.00  0.00     0.086 A 
HETATM    5  C   UNL     1      26.236  46.477  51.573  1.00  0.00     0.152 A 
ENDROOT
BRANCH   5   6
HETATM    6  N   UNL     1      27.088  46.375  52.668  1.00  0.00    -0.305 N 
HETATM    7  C   UNL     1      26.673  46.476  54.035  1.00  0.00     0.281 C 
HETATM    8  O   UNL     1      25.537  46.818  54.323  1.00  0.00    -0.265 OA
HETATM    9  H   UNL     1      28.085  46.236  52.481  1.00  0.00     0.170 HD
BRANCH   7  10
HETATM   10  C   UNL     1      27.718  46.157  54.973  1.00  0.00     0.144 A 
HETATM   11  O   UNL     1      28.644  45.202  54.639  1.00  0.00    -0.304 OA
HETATM   12  C   UNL     1      29.460  45.044  55.721  1.00  0.00     0.086 A 
HETATM   13  C   UNL     1      29.092  45.918  56.737  1.00  0.00     0.001 A 
HETATM   14  C   UNL     1      30.509  44.135  55.816  1.00  0.00     0.038 A 
HETATM   15  C   UNL     1      27.969  46.630  56.247  1.00  0.00     0.057 A 
HETATM   16  C   UNL     1      29.828  45.905  57.935  1.00  0.00     0.014 A 
HETATM   17  C   UNL     1      30.895  45.004  58.058  1.00  0.00     0.001 A 
HETATM   18  C   UNL     1      31.225  44.133  57.018  1.00  0.00     0.003 A 
ENDBRANCH   7  10
ENDBRANCH   5   6
BRANCH   1  19
HETATM   19  C   UNL     1      26.435  44.141  50.728  1.00  0.00     0.732 A 
HETATM   20  N   UNL     1      26.754  43.535  51.830  1.00  0.00    -0.067 NA
HETATM   21  C   UNL     1      27.280  42.266  51.679  1.00  0.00     0.059 A 
HETATM   22  C   UNL     1      27.460  41.668  50.490  1.00  0.00     0.102 A 
HETATM   23  C   UNL     1      27.070  42.383  49.264  1.00  0.00     0.261 A 
HETATM   24  N   UNL     1      26.562  43.625  49.469  1.00  0.00    -0.152 N 
HETATM   25  O   UNL     1      27.209  41.883  48.156  1.00  0.00    -0.268 OA
HETATM   26  H   UNL     1      26.286  44.176  48.661  1.00  0.00     0.187 HD
BRANCH  21  27
HETATM   27  C   UNL     1      27.701  41.569  52.954  1.00  0.00     0.060 C 
BRANCH  27  28
HETATM   28  C   UNL     1      29.191  41.225  52.953  1.00  0.00     0.002 C 
HETATM   29  C   UNL     1      30.046  42.483  52.928  1.00  0.00     0.005 C 
ENDBRANCH  27  28
ENDBRANCH  21  27
ENDBRANCH   1  19
BRANCH   3  30
HETATM   30  C   UNL     1      23.815  47.915  49.197  1.00  0.00     0.035 A 
HETATM   31  S   UNL     1      22.316  47.330  48.623  1.00  0.00    -0.100 SA
HETATM   32  C   UNL     1      21.956  48.815  47.854  1.00  0.00     0.050 A 
HETATM   33  C   UNL     1      22.958  49.742  48.032  1.00  0.00     0.008 A 
HETATM   34  C   UNL     1      24.034  49.222  48.811  1.00  0.00     0.022 A 
ENDBRANCH   3  30
TORSDOF 6
ENDMDL
MODEL 2
REMARK VINA RESULT:      -9.8      1.610      2.125
REMARK  6 active torsions:
REMARK  status: ('A' for Active; 'I' for Inactive)
REMARK    1  A    between atoms: C_2  and  C_3 
REMARK    2  A    between atoms: C_3  and  C_4 
REMARK    3  A    between atoms: C_6  and  N_7 
REMARK    4  A    between atoms: C_9  and  C_10 
REMARK    5  A    between atoms: C_16  and  N_17 
REMARK       I    between atoms: N_17  and  C_18 
REMARK    6  A    between atoms: C_18  and  C_19 
ROOT
HETATM    1  N   UNL     1      24.783  45.576  50.002  1.00  0.00    -0.044 N 
HETATM    2  N   UNL     1      23.871  46.251  49.250  1.00  0.00    -0.150 NA
HETATM    3  C   UNL     1      24.069  47.537  49.573  1.00  0.00     0.099 A 
HETATM    4  C   UNL     1      25.106  47.687  50.525  1.00  0.00     0.086 A 
HETATM    5  C   UNL     1      25.541  46.412  50.803  1.00  0.00     0.152 A 
ENDROOT
BRANCH   5   6
HETATM    6  N   UNL     1      26.513  45.996  51.708  1.00  0.00    -0.305 N 
HETATM    7  C   UNL     1      26.364  46.020  53.132  1.00  0.00     0.281 C 
HETATM    8  O   UNL     1      25.402  46.564  53.654  1.00  0.00    -0.265 OA
HETATM    9  H   UNL     1      27.405  45.668  51.327  1.00  0.00     0.170 HD
BRANCH   7  10
HETATM   10  C   UNL     1      27.443  45.371  53.829  1.00  0.00     0.144 A 
HETATM   11  O   UNL     1      28.011  45.997  54.909  1.00  0.00    -0.304 OA
HETATM   12  C   UNL     1      29.043  45.211  55.327  1.00  0.00     0.086 A 
HETATM   13  C   UNL     1      29.123  44.061  54.551  1.00  0.00     0.001 A 
HETATM   14  C   UNL     1      29.913  45.505  56.374  1.00  0.00     0.038 A 
HETATM   15  C   UNL     1      28.088  44.173  53.588  1.00  0.00     0.057 A 
HETATM   16  C   UNL     1      30.126  43.121  54.840  1.00  0.00     0.014 A 
HETATM   17  C   UNL     1      31.013  43.387  55.893  1.00  0.00     0.001 A 
HETATM   18  C   UNL     1      30.909  44.561  56.641  1.00  0.00     0.003 A 
ENDBRANCH   7  10
ENDBRANCH   5   6
BRANCH   1  19
HETATM   19  C   UNL     1      24.897  44.182  49.896  1.00  0.00     0.732 A 
HETATM   20  N   UNL     1      25.989  43.549  50.198  1.00  0.00    -0.067 NA
HETATM   21  C   UNL     1      25.952  42.180  50.012  1.00  0.00     0.059 A 
HETATM   22  C   UNL     1      24.878  41.516  49.554  1.00  0.00     0.102 A 
HETATM   23  C   UNL     1      23.653  42.269  49.238  1.00  0.00     0.261 A 
HETATM   24  N   UNL     1      23.745  43.609  49.437  1.00  0.00    -0.152 N 
HETATM   25  O   UNL     1      22.646  41.715  48.822  1.00  0.00    -0.268 OA
HETATM   26  H   UNL     1      22.938  44.188  49.224  1.00  0.00     0.187 HD
BRANCH  21  27
HETATM   27  C   UNL     1      27.234  41.437  50.316  1.00  0.00     0.060 C 
BRANCH  27  28
HETATM   28  C   UNL     1      27.326  41.033  51.788  1.00  0.00     0.002 C 
HETATM   29  C   UNL     1      28.770  40.810  52.209  1.00  0.00     0.005 C 
ENDBRANCH  27  28
ENDBRANCH  21  27
ENDBRANCH   1  19
BRANCH   3  30
HETATM   30  C   UNL     1      23.247  48.640  48.974  1.00  0.00     0.035 A 
HETATM   31  S   UNL     1      21.552  48.569  48.761  1.00  0.00    -0.100 SA
HETATM   32  C   UNL     1      21.509  50.130  48.060  1.00  0.00     0.050 A 
HETATM   33  C   UNL     1      22.762  50.696  47.991  1.00  0.00     0.008 A 
HETATM   34  C   UNL     1      23.768  49.835  48.520  1.00  0.00     0.022 A 
ENDBRANCH   3  30
TORSDOF 6
ENDMDL
MODEL 3
REMARK VINA RESULT:      -9.7      2.583      5.545
REMARK  6 active torsions:
REMARK  status: ('A' for Active; 'I' for Inactive)
REMARK    1  A    between atoms: C_2  and  C_3 
REMARK    2  A    between atoms: C_3  and  C_4 
REMARK    3  A    between atoms: C_6  and  N_7 
REMARK    4  A    between atoms: C_9  and  C_10 
REMARK    5  A    between atoms: C_16  and  N_17 
REMARK       I    between atoms: N_17  and  C_18 
REMARK    6  A    between atoms: C_18  and  C_19 
ROOT
HETATM    1  N   UNL     1      26.820  43.219  51.019  1.00  0.00    -0.044 N 
HETATM    2  N   UNL     1      26.333  42.619  49.899  1.00  0.00    -0.150 NA
HETATM    3  C   UNL     1      26.691  41.334  50.035  1.00  0.00     0.099 A 
HETATM    4  C   UNL     1      27.401  41.110  51.240  1.00  0.00     0.086 A 
HETATM    5  C   UNL     1      27.490  42.339  51.850  1.00  0.00     0.152 A 
ENDROOT
BRANCH   5   6
HETATM    6  N   UNL     1      28.130  42.683  53.037  1.00  0.00    -0.305 N 
HETATM    7  C   UNL     1      29.470  43.182  53.126  1.00  0.00     0.281 C 
HETATM    8  O   UNL     1      30.202  43.192  52.148  1.00  0.00    -0.265 OA
HETATM    9  H   UNL     1      27.611  42.552  53.910  1.00  0.00     0.170 HD
BRANCH   7  10
HETATM   10  C   UNL     1      29.826  43.628  54.447  1.00  0.00     0.144 A 
HETATM   11  O   UNL     1      29.196  44.727  54.972  1.00  0.00    -0.304 OA
HETATM   12  C   UNL     1      29.769  44.973  56.184  1.00  0.00     0.086 A 
HETATM   13  C   UNL     1      30.738  44.017  56.466  1.00  0.00     0.001 A 
HETATM   14  C   UNL     1      29.451  46.032  57.030  1.00  0.00     0.038 A 
HETATM   15  C   UNL     1      30.768  43.155  55.341  1.00  0.00     0.057 A 
HETATM   16  C   UNL     1      31.435  44.102  57.683  1.00  0.00     0.014 A 
HETATM   17  C   UNL     1      31.132  45.155  58.559  1.00  0.00     0.001 A 
HETATM   18  C   UNL     1      30.160  46.103  58.234  1.00  0.00     0.003 A 
ENDBRANCH   7  10
ENDBRANCH   5   6
BRANCH   1  19
HETATM   19  C   UNL     1      26.598  44.586  51.244  1.00  0.00     0.732 A 
HETATM   20  N   UNL     1      26.324  45.061  52.420  1.00  0.00    -0.067 NA
HETATM   21  C   UNL     1      26.102  46.424  52.473  1.00  0.00     0.059 A 
HETATM   22  C   UNL     1      26.159  47.233  51.402  1.00  0.00     0.102 A 
HETATM   23  C   UNL     1      26.488  46.657  50.088  1.00  0.00     0.261 A 
HETATM   24  N   UNL     1      26.694  45.315  50.093  1.00  0.00    -0.152 N 
HETATM   25  O   UNL     1      26.557  47.348  49.082  1.00  0.00    -0.268 OA
HETATM   26  H   UNL     1      26.911  44.854  49.214  1.00  0.00     0.187 HD
BRANCH  21  27
HETATM   27  C   UNL     1      25.736  46.982  53.831  1.00  0.00     0.060 C 
BRANCH  27  28
HETATM   28  C   UNL     1      26.961  47.504  54.584  1.00  0.00     0.002 C 
HETATM   29  C   UNL     1      26.555  48.437  55.714  1.00  0.00     0.005 C 
ENDBRANCH  27  28
ENDBRANCH  21  27
ENDBRANCH   1  19
BRANCH   3  30
HETATM   30  C   UNL     1      26.362  40.305  48.994  1.00  0.00     0.035 A 
HETATM   31  S   UNL     1      25.511  40.637  47.549  1.00  0.00    -0.100 SA
HETATM   32  C   UNL     1      25.593  39.003  47.048  1.00  0.00     0.050 A 
HETATM   33  C   UNL     1      26.258  38.218  47.962  1.00  0.00     0.008 A 
HETATM   34  C   UNL     1      26.705  38.971  49.088  1.00  0.00     0.022 A 
ENDBRANCH   3  30
TORSDOF 6
ENDMDL
MODEL 4
REMARK VINA RESULT:      -9.6      2.141      5.699
REMARK  6 active torsions:
REMARK  status: ('A' for Active; 'I' for Inactive)
REMARK    1  A    between atoms: C_2  and  C_3 
REMARK    2  A    between atoms: C_3  and  C_4 
REMARK    3  A    between atoms: C_6  and  N_7 
REMARK    4  A    between atoms: C_9  and  C_10 
REMARK    5  A    between atoms: C_16  and  N_17 
REMARK       I    between atoms: N_17  and  C_18 
REMARK    6  A    between atoms: C_18  and  C_19 
ROOT
HETATM    1  N   UNL     1      25.362  46.519  51.312  1.00  0.00    -0.044 N 
HETATM    2  N   UNL     1      24.768  47.710  51.027  1.00  0.00    -0.150 NA
HETATM    3  C   UNL     1      24.173  47.503  49.844  1.00  0.00     0.099 A 
HETATM    4  C   UNL     1      24.382  46.184  49.373  1.00  0.00     0.086 A 
HETATM    5  C   UNL     1      25.165  45.571  50.323  1.00  0.00     0.152 A 
ENDROOT
BRANCH   5   6
HETATM    6  N   UNL     1      25.695  44.285  50.324  1.00  0.00    -0.305 N 
HETATM    7  C   UNL     1      24.969  43.105  50.689  1.00  0.00     0.281 C 
HETATM    8  O   UNL     1      23.853  43.180  51.179  1.00  0.00    -0.265 OA
HETATM    9  H   UNL     1      26.679  44.178  50.064  1.00  0.00     0.170 HD
BRANCH   7  10
HETATM   10  C   UNL     1      25.694  41.888  50.432  1.00  0.00     0.144 A 
HETATM   11  O   UNL     1      26.916  41.702  51.027  1.00  0.00    -0.304 OA
HETATM   12  C   UNL     1      27.409  40.520  50.560  1.00  0.00     0.086 A 
HETATM   13  C   UNL     1      26.499  39.920  49.698  1.00  0.00     0.001 A 
HETATM   14  C   UNL     1      28.651  39.979  50.880  1.00  0.00     0.038 A 
HETATM   15  C   UNL     1      25.397  40.809  49.621  1.00  0.00     0.057 A 
HETATM   16  C   UNL     1      26.832  38.683  49.120  1.00  0.00     0.014 A 
HETATM   17  C   UNL     1      28.073  38.110  49.429  1.00  0.00     0.001 A 
HETATM   18  C   UNL     1      28.967  38.750  50.290  1.00  0.00     0.003 A 
ENDBRANCH   7  10
ENDBRANCH   5   6
BRANCH   1  19
HETATM   19  C   UNL     1      26.060  46.345  52.517  1.00  0.00     0.732 A 
HETATM   20  N   UNL     1      26.898  45.372  52.700  1.00  0.00    -0.067 NA
HETATM   21  C   UNL     1      27.483  45.319  53.951  1.00  0.00     0.059 A 
HETATM   22  C   UNL     1      27.227  46.199  54.934  1.00  0.00     0.102 A 
HETATM   23  C   UNL     1      26.281  47.298  54.680  1.00  0.00     0.261 A 
HETATM   24  N   UNL     1      25.735  47.300  53.437  1.00  0.00    -0.152 N 
HETATM   25  O   UNL     1      26.014  48.128  55.537  1.00  0.00    -0.268 OA
HETATM   26  H   UNL     1      25.063  48.026  53.204  1.00  0.00     0.187 HD
BRANCH  21  27
HETATM   27  C   UNL     1      28.426  44.162  54.193  1.00  0.00     0.060 C 
BRANCH  27  28
HETATM   28  C   UNL     1      29.030  43.635  52.890  1.00  0.00     0.002 C 
HETATM   29  C   UNL     1      30.219  42.727  53.162  1.00  0.00     0.005 C 
ENDBRANCH  27  28
ENDBRANCH  21  27
ENDBRANCH   1  19
BRANCH   3  30
HETATM   30  C   UNL     1      23.404  48.584  49.143  1.00  0.00     0.035 A 
HETATM   31  S   UNL     1      21.723  48.526  48.841  1.00  0.00    -0.100 SA
HETATM   32  C   UNL     1      21.744  50.048  48.060  1.00  0.00     0.050 A 
HETATM   33  C   UNL     1      23.008  50.593  48.031  1.00  0.00     0.008 A 
HETATM   34  C   UNL     1      23.969  49.747  48.659  1.00  0.00     0.022 A 
ENDBRANCH   3  30
TORSDOF 6
ENDMDL
MODEL 5
REMARK VINA RESULT:      -9.4      3.443      8.353
REMARK  6 active torsions:
REMARK  status: ('A' for Active; 'I' for Inactive)
REMARK    1  A    between atoms: C_2  and  C_3 
REMARK    2  A    between atoms: C_3  and  C_4 
REMARK    3  A    between atoms: C_6  and  N_7 
REMARK    4  A    between atoms: C_9  and  C_10 
REMARK    5  A    between atoms: C_16  and  N_17 
REMARK       I    between atoms: N_17  and  C_18 
REMARK    6  A    between atoms: C_18  and  C_19 
ROOT
HETATM    1  N   UNL     1      27.967  44.138  53.464  1.00  0.00    -0.044 N 
HETATM    2  N   UNL     1      28.250  44.772  54.634  1.00  0.00    -0.150 NA
HETATM    3  C   UNL     1      29.429  44.255  55.008  1.00  0.00     0.099 A 
HETATM    4  C   UNL     1      29.903  43.297  54.080  1.00  0.00     0.086 A 
HETATM    5  C   UNL     1      28.939  43.222  53.102  1.00  0.00     0.152 A 
ENDROOT
BRANCH   5   6
HETATM    6  N   UNL     1      28.890  42.398  51.981  1.00  0.00    -0.305 N 
HETATM    7  C   UNL     1      28.546  41.008  52.007  1.00  0.00     0.281 C 
HETATM    8  O   UNL     1      28.417  40.412  53.066  1.00  0.00    -0.265 OA
HETATM    9  H   UNL     1      29.137  42.811  51.078  1.00  0.00     0.170 HD
BRANCH   7  10
HETATM   10  C   UNL     1      28.396  40.433  50.696  1.00  0.00     0.144 A 
HETATM   11  O   UNL     1      28.904  39.182  50.455  1.00  0.00    -0.304 OA
HETATM   12  C   UNL     1      28.696  38.916  49.134  1.00  0.00     0.086 A 
HETATM   13  C   UNL     1      28.022  39.969  48.527  1.00  0.00     0.001 A 
HETATM   14  C   UNL     1      29.103  37.764  48.467  1.00  0.00     0.038 A 
HETATM   15  C   UNL     1      27.834  40.942  49.541  1.00  0.00     0.057 A 
HETATM   16  C   UNL     1      27.711  39.872  47.160  1.00  0.00     0.014 A 
HETATM   17  C   UNL     1      28.102  38.720  46.462  1.00  0.00     0.001 A 
HETATM   18  C   UNL     1      28.789  37.688  47.105  1.00  0.00     0.003 A 
ENDBRANCH   7  10
ENDBRANCH   5   6
BRANCH   1  19
HETATM   19  C   UNL     1      26.804  44.458  52.747  1.00  0.00     0.732 A 
HETATM   20  N   UNL     1      26.093  43.559  52.138  1.00  0.00    -0.067 NA
HETATM   21  C   UNL     1      24.993  44.037  51.452  1.00  0.00     0.059 A 
HETATM   22  C   UNL     1      24.651  45.335  51.398  1.00  0.00     0.102 A 
HETATM   23  C   UNL     1      25.475  46.321  52.115  1.00  0.00     0.261 A 
HETATM   24  N   UNL     1      26.543  45.798  52.771  1.00  0.00    -0.152 N 
HETATM   25  O   UNL     1      25.207  47.514  52.103  1.00  0.00    -0.268 OA
HETATM   26  H   UNL     1      27.159  46.430  53.275  1.00  0.00     0.187 HD
BRANCH  21  27
HETATM   27  C   UNL     1      24.184  43.004  50.698  1.00  0.00     0.060 C 
BRANCH  27  28
HETATM   28  C   UNL     1      24.671  42.836  49.258  1.00  0.00     0.002 C 
HETATM   29  C   UNL     1      24.198  41.517  48.668  1.00  0.00     0.005 C 
ENDBRANCH  27  28
ENDBRANCH  21  27
ENDBRANCH   1  19
BRANCH   3  30
HETATM   30  C   UNL     1      30.110  44.673  56.279  1.00  0.00     0.035 A 
HETATM   31  S   UNL     1      31.368  43.793  57.029  1.00  0.00    -0.100 SA
HETATM   32  C   UNL     1      31.490  44.927  58.304  1.00  0.00     0.050 A 
HETATM   33  C   UNL     1      30.591  45.960  58.161  1.00  0.00     0.008 A 
HETATM   34  C   UNL     1      29.793  45.814  56.988  1.00  0.00     0.022 A 
ENDBRANCH   3  30
TORSDOF 6
ENDMDL
MODEL 6
REMARK VINA RESULT:      -9.3      2.779      8.052
REMARK  6 active torsions:
REMARK  status: ('A' for Active; 'I' for Inactive)
REMARK    1  A    between atoms: C_2  and  C_3 
REMARK    2  A    between atoms: C_3  and  C_4 
REMARK    3  A    between atoms: C_6  and  N_7 
REMARK    4  A    between atoms: C_9  and  C_10 
REMARK    5  A    between atoms: C_16  and  N_17 
REMARK       I    between atoms: N_17  and  C_18 
REMARK    6  A    between atoms: C_18  and  C_19 
ROOT
HETATM    1  N   UNL     1      26.536  44.585  51.933  1.00  0.00    -0.044 N 
HETATM    2  N   UNL     1      27.499  44.108  52.769  1.00  0.00    -0.150 NA
HETATM    3  C   UNL     1      27.700  45.108  53.639  1.00  0.00     0.099 A 
HETATM    4  C   UNL     1      26.868  46.220  53.365  1.00  0.00     0.086 A 
HETATM    5  C   UNL     1      26.140  45.872  52.252  1.00  0.00     0.152 A 
ENDROOT
BRANCH   5   6
HETATM    6  N   UNL     1      25.209  46.626  51.542  1.00  0.00    -0.305 N 
HETATM    7  C   UNL     1      25.519  47.445  50.409  1.00  0.00     0.281 C 
HETATM    8  O   UNL     1      26.677  47.653  50.082  1.00  0.00    -0.265 OA
HETATM    9  H   UNL     1      24.239  46.607  51.867  1.00  0.00     0.170 HD
BRANCH   7  10
HETATM   10  C   UNL     1      24.352  47.975  49.753  1.00  0.00     0.144 A 
HETATM   11  O   UNL     1      24.232  49.333  49.602  1.00  0.00    -0.304 OA
HETATM   12  C   UNL     1      23.017  49.563  49.027  1.00  0.00     0.086 A 
HETATM   13  C   UNL     1      22.367  48.362  48.769  1.00  0.00     0.001 A 
HETATM   14  C   UNL     1      22.482  50.815  48.741  1.00  0.00     0.038 A 
HETATM   15  C   UNL     1      23.234  47.344  49.241  1.00  0.00     0.057 A 
HETATM   16  C   UNL     1      21.098  48.398  48.168  1.00  0.00     0.014 A 
HETATM   17  C   UNL     1      20.535  49.646  47.862  1.00  0.00     0.001 A 
HETATM   18  C   UNL     1      21.215  50.831  48.148  1.00  0.00     0.003 A 
ENDBRANCH   7  10
ENDBRANCH   5   6
BRANCH   1  19
HETATM   19  C   UNL     1      26.035  43.782  50.898  1.00  0.00     0.732 A 
HETATM   20  N   UNL     1      24.763  43.637  50.684  1.00  0.00    -0.067 NA
HETATM   21  C   UNL     1      24.428  42.790  49.646  1.00  0.00     0.059 A 
HETATM   22  C   UNL     1      25.329  42.144  48.887  1.00  0.00     0.102 A 
HETATM   23  C   UNL     1      26.763  42.348  49.151  1.00  0.00     0.261 A 
HETATM   24  N   UNL     1      27.035  43.187  50.183  1.00  0.00    -0.152 N 
HETATM   25  O   UNL     1      27.625  41.788  48.489  1.00  0.00    -0.268 OA
HETATM   26  H   UNL     1      28.007  43.359  50.425  1.00  0.00     0.187 HD
BRANCH  21  27
HETATM   27  C   UNL     1      22.948  42.576  49.418  1.00  0.00     0.060 C 
BRANCH  27  28
HETATM   28  C   UNL     1      22.255  43.849  48.930  1.00  0.00     0.002 C 
HETATM   29  C   UNL     1      22.642  44.171  47.495  1.00  0.00     0.005 C 
ENDBRANCH  27  28
ENDBRANCH  21  27
ENDBRANCH   1  19
BRANCH   3  30
HETATM   30  C   UNL     1      28.712  45.006  54.743  1.00  0.00     0.035 A 
HETATM   31  S   UNL     1      28.788  46.070  56.078  1.00  0.00    -0.100 SA
HETATM   32  C   UNL     1      30.141  45.254  56.735  1.00  0.00     0.050 A 
HETATM   33  C   UNL     1      30.527  44.189  55.954  1.00  0.00     0.008 A 
HETATM   34  C   UNL     1      29.700  44.044  54.801  1.00  0.00     0.022 A 
ENDBRANCH   3  30
TORSDOF 6
ENDMDL
MODEL 7
REMARK VINA RESULT:      -9.3      2.824      7.713
REMARK  6 active torsions:
REMARK  status: ('A' for Active; 'I' for Inactive)
REMARK    1  A    between atoms: C_2  and  C_3 
REMARK    2  A    between atoms: C_3  and  C_4 
REMARK    3  A    between atoms: C_6  and  N_7 
REMARK    4  A    between atoms: C_9  and  C_10 
REMARK    5  A    between atoms: C_16  and  N_17 
REMARK       I    between atoms: N_17  and  C_18 
REMARK    6  A    between atoms: C_18  and  C_19 
ROOT
HETATM    1  N   UNL     1      26.897  42.781  51.208  1.00  0.00    -0.044 N 
HETATM    2  N   UNL     1      27.364  41.519  51.004  1.00  0.00    -0.150 NA
HETATM    3  C   UNL     1      27.159  41.303  49.696  1.00  0.00     0.099 A 
HETATM    4  C   UNL     1      26.567  42.424  49.064  1.00  0.00     0.086 A 
HETATM    5  C   UNL     1      26.389  43.358  50.057  1.00  0.00     0.152 A 
ENDROOT
BRANCH   5   6
HETATM    6  N   UNL     1      25.803  44.618  49.980  1.00  0.00    -0.305 N 
HETATM    7  C   UNL     1      26.502  45.821  49.639  1.00  0.00     0.281 C 
HETATM    8  O   UNL     1      27.720  45.834  49.542  1.00  0.00    -0.265 OA
HETATM    9  H   UNL     1      24.807  44.691  50.200  1.00  0.00     0.170 HD
BRANCH   7  10
HETATM   10  C   UNL     1      25.632  46.953  49.455  1.00  0.00     0.144 A 
HETATM   11  O   UNL     1      24.275  46.756  49.453  1.00  0.00    -0.304 OA
HETATM   12  C   UNL     1      23.698  47.963  49.186  1.00  0.00     0.086 A 
HETATM   13  C   UNL     1      24.671  48.947  49.054  1.00  0.00     0.001 A 
HETATM   14  C   UNL     1      22.333  48.195  49.050  1.00  0.00     0.038 A 
HETATM   15  C   UNL     1      25.914  48.287  49.228  1.00  0.00     0.057 A 
HETATM   16  C   UNL     1      24.265  50.265  48.784  1.00  0.00     0.014 A 
HETATM   17  C   UNL     1      22.895  50.531  48.648  1.00  0.00     0.001 A 
HETATM   18  C   UNL     1      21.948  49.512  48.775  1.00  0.00     0.003 A 
ENDBRANCH   7  10
ENDBRANCH   5   6
BRANCH   1  19
HETATM   19  C   UNL     1      26.984  43.372  52.477  1.00  0.00     0.732 A 
HETATM   20  N   UNL     1      28.120  43.668  53.030  1.00  0.00    -0.067 NA
HETATM   21  C   UNL     1      28.039  44.218  54.296  1.00  0.00     0.059 A 
HETATM   22  C   UNL     1      26.883  44.446  54.939  1.00  0.00     0.102 A 
HETATM   23  C   UNL     1      25.615  44.111  54.271  1.00  0.00     0.261 A 
HETATM   24  N   UNL     1      25.752  43.573  53.032  1.00  0.00    -0.152 N 
HETATM   25  O   UNL     1      24.533  44.302  54.810  1.00  0.00    -0.268 OA
HETATM   26  H   UNL     1      24.913  43.307  52.523  1.00  0.00     0.187 HD
BRANCH  21  27
HETATM   27  C   UNL     1      29.359  44.523  54.969  1.00  0.00     0.060 C 
BRANCH  27  28
HETATM   28  C   UNL     1      30.257  43.288  55.052  1.00  0.00     0.002 C 
HETATM   29  C   UNL     1      31.186  43.362  56.254  1.00  0.00     0.005 C 
ENDBRANCH  27  28
ENDBRANCH  21  27
ENDBRANCH   1  19
BRANCH   3  30
HETATM   30  C   UNL     1      27.522  40.003  49.041  1.00  0.00     0.035 A 
HETATM   31  S   UNL     1      26.878  38.486  49.494  1.00  0.00    -0.100 SA
HETATM   32  C   UNL     1      27.802  37.667  48.309  1.00  0.00     0.050 A 
HETATM   33  C   UNL     1      28.585  38.532  47.580  1.00  0.00     0.008 A 
HETATM   34  C   UNL     1      28.423  39.885  48.002  1.00  0.00     0.022 A 
ENDBRANCH   3  30
TORSDOF 6
ENDMDL
MODEL 8
REMARK VINA RESULT:      -9.0      3.931      8.735
REMARK  6 active torsions:
REMARK  status: ('A' for Active; 'I' for Inactive)
REMARK    1  A    between atoms: C_2  and  C_3 
REMARK    2  A    between atoms: C_3  and  C_4 
REMARK    3  A    between atoms: C_6  and  N_7 
REMARK    4  A    between atoms: C_9  and  C_10 
REMARK    5  A    between atoms: C_16  and  N_17 
REMARK       I    between atoms: N_17  and  C_18 
REMARK    6  A    between atoms: C_18  and  C_19 
ROOT
HETATM    1  N   UNL     1      28.424  41.459  51.713  1.00  0.00    -0.044 N 
HETATM    2  N   UNL     1      29.326  41.820  52.666  1.00  0.00    -0.150 NA
HETATM    3  C   UNL     1      28.735  42.840  53.305  1.00  0.00     0.099 A 
HETATM    4  C   UNL     1      27.457  43.128  52.767  1.00  0.00     0.086 A 
HETATM    5  C   UNL     1      27.283  42.241  51.731  1.00  0.00     0.152 A 
ENDROOT
BRANCH   5   6
HETATM    6  N   UNL     1      26.217  42.129  50.843  1.00  0.00    -0.305 N 
HETATM    7  C   UNL     1      26.097  42.863  49.619  1.00  0.00     0.281 C 
HETATM    8  O   UNL     1      26.873  43.767  49.349  1.00  0.00    -0.265 OA
HETATM    9  H   UNL     1      25.457  41.491  51.093  1.00  0.00     0.170 HD
BRANCH   7  10
HETATM   10  C   UNL     1      24.994  42.432  48.801  1.00  0.00     0.144 A 
HETATM   11  O   UNL     1      24.234  43.374  48.156  1.00  0.00    -0.304 OA
HETATM   12  C   UNL     1      23.225  42.707  47.525  1.00  0.00     0.086 A 
HETATM   13  C   UNL     1      23.350  41.337  47.724  1.00  0.00     0.001 A 
HETATM   14  C   UNL     1      22.201  43.298  46.790  1.00  0.00     0.038 A 
HETATM   15  C   UNL     1      24.491  41.169  48.548  1.00  0.00     0.057 A 
HETATM   16  C   UNL     1      22.400  40.483  47.139  1.00  0.00     0.014 A 
HETATM   17  C   UNL     1      21.360  41.048  46.387  1.00  0.00     0.001 A 
HETATM   18  C   UNL     1      21.263  42.431  46.221  1.00  0.00     0.003 A 
ENDBRANCH   7  10
ENDBRANCH   5   6
BRANCH   1  19
HETATM   19  C   UNL     1      28.690  40.377  50.860  1.00  0.00     0.732 A 
HETATM   20  N   UNL     1      28.335  40.373  49.612  1.00  0.00    -0.067 NA
HETATM   21  C   UNL     1      28.642  39.222  48.911  1.00  0.00     0.059 A 
HETATM   22  C   UNL     1      29.266  38.162  49.451  1.00  0.00     0.102 A 
HETATM   23  C   UNL     1      29.666  38.213  50.867  1.00  0.00     0.261 A 
HETATM   24  N   UNL     1      29.338  39.364  51.507  1.00  0.00    -0.152 N 
HETATM   25  O   UNL     1      30.240  37.278  51.408  1.00  0.00    -0.268 OA
HETATM   26  H   UNL     1      29.575  39.456  52.491  1.00  0.00     0.187 HD
BRANCH  21  27
HETATM   27  C   UNL     1      28.191  39.186  47.468  1.00  0.00     0.060 C 
BRANCH  27  28
HETATM   28  C   UNL     1      28.047  40.591  46.879  1.00  0.00     0.002 C 
HETATM   29  C   UNL     1      27.088  40.597  45.699  1.00  0.00     0.005 C 
ENDBRANCH  27  28
ENDBRANCH  21  27
ENDBRANCH   1  19
BRANCH   3  30
HETATM   30  C   UNL     1      29.404  43.559  54.439  1.00  0.00     0.035 A 
HETATM   31  S   UNL     1      28.863  45.046  55.087  1.00  0.00    -0.100 SA
HETATM   32  C   UNL     1      30.139  45.089  56.226  1.00  0.00     0.050 A 
HETATM   33  C   UNL     1      30.961  43.990  56.118  1.00  0.00     0.008 A 
HETATM   34  C   UNL     1      30.535  43.104  55.085  1.00  0.00     0.022 A 
ENDBRANCH   3  30
TORSDOF 6
ENDMDL
MODEL 9
REMARK VINA RESULT:      -9.0      2.793      6.230
REMARK  6 active torsions:
REMARK  status: ('A' for Active; 'I' for Inactive)
REMARK    1  A    between atoms: C_2  and  C_3 
REMARK    2  A    between atoms: C_3  and  C_4 
REMARK    3  A    between atoms: C_6  and  N_7 
REMARK    4  A    between atoms: C_9  and  C_10 
REMARK    5  A    between atoms: C_16  and  N_17 
REMARK       I    between atoms: N_17  and  C_18 
REMARK    6  A    between atoms: C_18  and  C_19 
ROOT
HETATM    1  N   UNL     1      26.783  42.155  51.206  1.00  0.00    -0.044 N 
HETATM    2  N   UNL     1      26.365  41.456  50.116  1.00  0.00    -0.150 NA
HETATM    3  C   UNL     1      27.101  40.336  50.144  1.00  0.00     0.099 A 
HETATM    4  C   UNL     1      27.985  40.315  51.250  1.00  0.00     0.086 A 
HETATM    5  C   UNL     1      27.779  41.503  51.911  1.00  0.00     0.152 A 
ENDROOT
BRANCH   5   6
HETATM    6  N   UNL     1      28.426  42.002  53.037  1.00  0.00    -0.305 N 
HETATM    7  C   UNL     1      29.409  43.044  53.017  1.00  0.00     0.281 C 
HETATM    8  O   UNL     1      29.859  43.463  51.961  1.00  0.00    -0.265 OA
HETATM    9  H   UNL     1      28.196  41.581  53.942  1.00  0.00     0.170 HD
BRANCH   7  10
HETATM   10  C   UNL     1      29.789  43.495  54.330  1.00  0.00     0.144 A 
HETATM   11  O   UNL     1      29.238  44.650  54.823  1.00  0.00    -0.304 OA
HETATM   12  C   UNL     1      29.819  44.884  56.034  1.00  0.00     0.086 A 
HETATM   13  C   UNL     1      30.714  43.867  56.346  1.00  0.00     0.001 A 
HETATM   14  C   UNL     1      29.574  45.984  56.851  1.00  0.00     0.038 A 
HETATM   15  C   UNL     1      30.688  42.977  55.243  1.00  0.00     0.057 A 
HETATM   16  C   UNL     1      31.408  43.931  57.567  1.00  0.00     0.014 A 
HETATM   17  C   UNL     1      31.177  45.024  58.414  1.00  0.00     0.001 A 
HETATM   18  C   UNL     1      30.279  46.033  58.058  1.00  0.00     0.003 A 
ENDBRANCH   7  10
ENDBRANCH   5   6
BRANCH   1  19
HETATM   19  C   UNL     1      26.195  43.388  51.525  1.00  0.00     0.732 A 
HETATM   20  N   UNL     1      26.143  44.373  50.682  1.00  0.00    -0.067 NA
HETATM   21  C   UNL     1      25.559  45.531  51.157  1.00  0.00     0.059 A 
HETATM   22  C   UNL     1      25.066  45.665  52.400  1.00  0.00     0.102 A 
HETATM   23  C   UNL     1      25.130  44.519  53.321  1.00  0.00     0.261 A 
HETATM   24  N   UNL     1      25.715  43.408  52.804  1.00  0.00    -0.152 N 
HETATM   25  O   UNL     1      24.693  44.584  54.461  1.00  0.00    -0.268 OA
HETATM   26  H   UNL     1      25.803  42.586  53.395  1.00  0.00     0.187 HD
BRANCH  21  27
HETATM   27  C   UNL     1      25.535  46.701  50.199  1.00  0.00     0.060 C 
BRANCH  27  28
HETATM   28  C   UNL     1      24.134  46.956  49.641  1.00  0.00     0.002 C 
HETATM   29  C   UNL     1      23.916  48.433  49.353  1.00  0.00     0.005 C 
ENDBRANCH  27  28
ENDBRANCH  21  27
ENDBRANCH   1  19
BRANCH   3  30
HETATM   30  C   UNL     1      26.969  39.273  49.093  1.00  0.00     0.035 A 
HETATM   31  S   UNL     1      27.268  37.612  49.362  1.00  0.00    -0.100 SA
HETATM   32  C   UNL     1      26.905  37.216  47.737  1.00  0.00     0.050 A 
HETATM   33  C   UNL     1      26.560  38.328  47.003  1.00  0.00     0.008 A 
HETATM   34  C   UNL     1      26.595  39.518  47.787  1.00  0.00     0.022 A 
ENDBRANCH   3  30
TORSDOF 6
ENDMDL
MODEL 10
REMARK VINA RESULT:      -8.9      2.973      8.452
REMARK  6 active torsions:
REMARK  status: ('A' for Active; 'I' for Inactive)
REMARK    1  A    between atoms: C_2  and  C_3 
REMARK    2  A    between atoms: C_3  and  C_4 
REMARK    3  A    between atoms: C_6  and  N_7 
REMARK    4  A    between atoms: C_9  and  C_10 
REMARK    5  A    between atoms: C_16  and  N_17 
REMARK       I    between atoms: N_17  and  C_18 
REMARK    6  A    between atoms: C_18  and  C_19 
ROOT
HETATM    1  N   UNL     1      25.562  44.757  51.448  1.00  0.00    -0.044 N 
HETATM    2  N   UNL     1      26.537  44.211  52.225  1.00  0.00    -0.150 NA
HETATM    3  C   UNL     1      26.914  45.216  53.029  1.00  0.00     0.099 A 
HETATM    4  C   UNL     1      26.179  46.399  52.773  1.00  0.00     0.086 A 
HETATM    5  C   UNL     1      25.327  46.089  51.739  1.00  0.00     0.152 A 
ENDROOT
BRANCH   5   6
HETATM    6  N   UNL     1      24.422  46.910  51.073  1.00  0.00    -0.305 N 
HETATM    7  C   UNL     1      24.766  47.811  50.014  1.00  0.00     0.281 C 
HETATM    8  O   UNL     1      25.933  48.026  49.727  1.00  0.00    -0.265 OA
HETATM    9  H   UNL     1      23.445  46.881  51.377  1.00  0.00     0.170 HD
BRANCH   7  10
HETATM   10  C   UNL     1      23.620  48.408  49.380  1.00  0.00     0.144 A 
HETATM   11  O   UNL     1      23.316  49.718  49.650  1.00  0.00    -0.304 OA
HETATM   12  C   UNL     1      22.158  50.003  48.988  1.00  0.00     0.086 A 
HETATM   13  C   UNL     1      21.732  48.898  48.260  1.00  0.00     0.001 A 
HETATM   14  C   UNL     1      21.479  51.217  49.032  1.00  0.00     0.038 A 
HETATM   15  C   UNL     1      22.679  47.876  48.519  1.00  0.00     0.057 A 
HETATM   16  C   UNL     1      20.553  49.005  47.503  1.00  0.00     0.014 A 
HETATM   17  C   UNL     1      19.849  50.218  47.522  1.00  0.00     0.001 A 
HETATM   18  C   UNL     1      20.304  51.301  48.276  1.00  0.00     0.003 A 
ENDBRANCH   7  10
ENDBRANCH   5   6
BRANCH   1  19
HETATM   19  C   UNL     1      24.894  43.973  50.495  1.00  0.00     0.732 A 
HETATM   20  N   UNL     1      23.887  44.420  49.810  1.00  0.00    -0.067 NA
HETATM   21  C   UNL     1      23.318  43.518  48.931  1.00  0.00     0.059 A 
HETATM   22  C   UNL     1      23.753  42.257  48.770  1.00  0.00     0.102 A 
HETATM   23  C   UNL     1      24.909  41.793  49.554  1.00  0.00     0.261 A 
HETATM   24  N   UNL     1      25.426  42.719  50.402  1.00  0.00    -0.152 N 
HETATM   25  O   UNL     1      25.348  40.657  49.443  1.00  0.00    -0.268 OA
HETATM   26  H   UNL     1      26.218  42.456  50.983  1.00  0.00     0.187 HD
BRANCH  21  27
HETATM   27  C   UNL     1      22.113  44.012  48.162  1.00  0.00     0.060 C 
BRANCH  27  28
HETATM   28  C   UNL     1      21.131  44.764  49.061  1.00  0.00     0.002 C 
HETATM   29  C   UNL     1      19.952  45.299  48.262  1.00  0.00     0.005 C 
ENDBRANCH  27  28
ENDBRANCH  21  27
ENDBRANCH   1  19
BRANCH   3  30
HETATM   30  C   UNL     1      28.000  45.049  54.051  1.00  0.00     0.035 A 
HETATM   31  S   UNL     1      28.377  46.206  55.251  1.00  0.00    -0.100 SA
HETATM   32  C   UNL     1      29.639  45.238  55.881  1.00  0.00     0.050 A 
HETATM   33  C   UNL     1      29.771  44.053  55.192  1.00  0.00     0.008 A 
HETATM   34  C   UNL     1      28.821  43.943  54.134  1.00  0.00     0.022 A 
ENDBRANCH   3  30
TORSDOF 6
ENDMDL
