MODEL 1
REMARK VINA RESULT:      -8.4      0.000      0.000
REMARK  5 active torsions:
REMARK  status: ('A' for Active; 'I' for Inactive)
REMARK    1  A    between atoms: C_6  and  C_7 
REMARK    2  A    between atoms: C_12  and  C_13 
REMARK    3  A    between atoms: C_13  and  N_14 
REMARK    4  A    between atoms: C_17  and  O_18 
REMARK    5  A    between atoms: C_17  and  C_19 
ROOT
HETATM    1  C   UNL     1      28.809  42.699  53.218  1.00  0.00     0.096 A 
HETATM    2  N   UNL     1      29.559  41.671  52.806  1.00  0.00    -0.174 NA
HETATM    3  N   UNL     1      28.869  41.110  51.807  1.00  0.00    -0.288 N 
HETATM    4  H   UNL     1      29.288  40.327  51.309  1.00  0.00     0.188 HD
HETATM    5  C   UNL     1      27.646  41.684  51.618  1.00  0.00     0.120 A 
HETATM    6  C   UNL     1      27.556  42.724  52.526  1.00  0.00     0.016 A 
ENDROOT
BRANCH   6   7
HETATM    7  C   UNL     1      26.404  43.638  52.734  1.00  0.00     0.277 C 
BRANCH   7   8
HETATM    8  N   UNL     1      25.863  44.193  51.438  1.00  0.00    -0.064 N 
HETATM    9  H   UNL     1      25.738  43.393  50.802  1.00  0.00     0.280 HD
HETATM   10  C   UNL     1      26.796  45.200  50.756  1.00  0.00     0.282 C 
HETATM   11  C   UNL     1      26.077  46.539  50.907  1.00  0.00     0.180 C 
HETATM   12  C   UNL     1      24.618  46.138  50.756  1.00  0.00     0.076 C 
HETATM   13  C   UNL     1      24.523  44.882  51.609  1.00  0.00     0.238 C 
BRANCH  11  14
HETATM   14  O   UNL     1      26.262  47.021  52.258  1.00  0.00    -0.379 OA
HETATM   15  H   UNL     1      26.395  47.993  52.224  1.00  0.00     0.211 HD
ENDBRANCH  11  14
BRANCH  11  16
HETATM   16  C   UNL     1      26.569  47.513  49.843  1.00  0.00     0.419 C 
HETATM   17  F   UNL     1      27.171  48.580  50.404  1.00  0.00    -0.168 F 
HETATM   18  F   UNL     1      27.453  46.904  49.027  1.00  0.00    -0.168 F 
HETATM   19  F   UNL     1      25.540  47.958  49.095  1.00  0.00    -0.168 F 
ENDBRANCH  11  16
ENDBRANCH   7   8
ENDBRANCH   6   7
BRANCH   1  20
HETATM   20  C   UNL     1      29.275  43.570  54.294  1.00  0.00    -0.003 A 
HETATM   21  C   UNL     1      30.303  43.165  55.152  1.00  0.00     0.037 A 
HETATM   22  C   UNL     1      30.760  44.029  56.148  1.00  0.00     0.035 A 
HETATM   23  C   UNL     1      30.192  45.289  56.313  1.00  0.00     0.024 A 
HETATM   24 CL   UNL     1      32.053  43.532  57.168  1.00  0.00    -0.084 Cl
HETATM   25  C   UNL     1      29.148  45.689  55.478  1.00  0.00     0.003 A 
HETATM   26  C   UNL     1      28.692  44.833  54.473  1.00  0.00     0.014 A 
ENDBRANCH   1  20
TORSDOF 5
ENDMDL
MODEL 2
REMARK VINA RESULT:      -8.3      3.449      5.071
REMARK  5 active torsions:
REMARK  status: ('A' for Active; 'I' for Inactive)
REMARK    1  A    between atoms: C_6  and  C_7 
REMARK    2  A    between atoms: C_12  and  C_13 
REMARK    3  A    between atoms: C_13  and  N_14 
REMARK    4  A    between atoms: C_17  and  O_18 
REMARK    5  A    between atoms: C_17  and  C_19 
ROOT
HETATM    1  C   UNL     1      28.036  46.226  55.294  1.00  0.00     0.096 A 
HETATM    2  N   UNL     1      27.846  47.532  55.079  1.00  0.00    -0.174 NA
HETATM    3  N   UNL     1      26.910  47.599  54.126  1.00  0.00    -0.288 N 
HETATM    4  H   UNL     1      26.575  48.517  53.841  1.00  0.00     0.188 HD
HETATM    5  C   UNL     1      26.553  46.373  53.646  1.00  0.00     0.120 A 
HETATM    6  C   UNL     1      27.270  45.442  54.374  1.00  0.00     0.016 A 
ENDROOT
BRANCH   6   7
HETATM    7  C   UNL     1      27.252  43.966  54.210  1.00  0.00     0.277 C 
BRANCH   7   8
HETATM    8  N   UNL     1      28.151  43.497  53.089  1.00  0.00    -0.064 N 
HETATM    9  H   UNL     1      28.570  44.340  52.673  1.00  0.00     0.280 HD
HETATM   10  C   UNL     1      27.415  42.734  51.981  1.00  0.00     0.282 C 
HETATM   11  C   UNL     1      27.896  41.294  52.135  1.00  0.00     0.180 C 
HETATM   12  C   UNL     1      29.350  41.482  52.540  1.00  0.00     0.076 C 
HETATM   13  C   UNL     1      29.270  42.596  53.573  1.00  0.00     0.238 C 
BRANCH  11  14
HETATM   14  O   UNL     1      27.206  40.684  53.249  1.00  0.00    -0.379 OA
HETATM   15  H   UNL     1      27.747  40.813  54.058  1.00  0.00     0.211 HD
ENDBRANCH  11  14
BRANCH  11  16
HETATM   16  C   UNL     1      27.708  40.543  50.821  1.00  0.00     0.419 C 
HETATM   17  F   UNL     1      27.936  41.349  49.766  1.00  0.00    -0.168 F 
HETATM   18  F   UNL     1      28.561  39.500  50.755  1.00  0.00    -0.168 F 
HETATM   19  F   UNL     1      26.452  40.067  50.722  1.00  0.00    -0.168 F 
ENDBRANCH  11  16
ENDBRANCH   7   8
ENDBRANCH   6   7
BRANCH   1  20
HETATM   20  C   UNL     1      28.983  45.774  56.311  1.00  0.00    -0.003 A 
HETATM   21  C   UNL     1      30.012  44.882  55.989  1.00  0.00     0.037 A 
HETATM   22  C   UNL     1      30.929  44.494  56.967  1.00  0.00     0.035 A 
HETATM   23  C   UNL     1      30.824  44.973  58.270  1.00  0.00     0.024 A 
HETATM   24 CL   UNL     1      32.212  43.430  56.545  1.00  0.00    -0.084 Cl
HETATM   25  C   UNL     1      29.786  45.842  58.604  1.00  0.00     0.003 A 
HETATM   26  C   UNL     1      28.869  46.240  57.629  1.00  0.00     0.014 A 
ENDBRANCH   1  20
TORSDOF 5
ENDMDL
MODEL 3
REMARK VINA RESULT:      -8.1      1.474      2.092
REMARK  5 active torsions:
REMARK  status: ('A' for Active; 'I' for Inactive)
REMARK    1  A    between atoms: C_6  and  C_7 
REMARK    2  A    between atoms: C_12  and  C_13 
REMARK    3  A    between atoms: C_13  and  N_14 
REMARK    4  A    between atoms: C_17  and  O_18 
REMARK    5  A    between atoms: C_17  and  C_19 
ROOT
HETATM    1  C   UNL     1      28.809  42.305  53.382  1.00  0.00     0.096 A 
HETATM    2  N   UNL     1      28.768  41.006  53.699  1.00  0.00    -0.174 NA
HETATM    3  N   UNL     1      28.300  40.392  52.606  1.00  0.00    -0.288 N 
HETATM    4  H   UNL     1      28.234  39.377  52.613  1.00  0.00     0.188 HD
HETATM    5  C   UNL     1      27.945  41.264  51.619  1.00  0.00     0.120 A 
HETATM    6  C   UNL     1      28.250  42.530  52.083  1.00  0.00     0.016 A 
ENDROOT
BRANCH   6   7
HETATM    7  C   UNL     1      28.025  43.822  51.386  1.00  0.00     0.277 C 
BRANCH   7   8
HETATM    8  N   UNL     1      26.605  43.974  50.894  1.00  0.00    -0.064 N 
HETATM    9  H   UNL     1      26.383  43.121  50.362  1.00  0.00     0.280 HD
HETATM   10  C   UNL     1      26.393  45.180  49.972  1.00  0.00     0.282 C 
HETATM   11  C   UNL     1      25.549  46.143  50.802  1.00  0.00     0.180 C 
HETATM   12  C   UNL     1      24.643  45.195  51.572  1.00  0.00     0.076 C 
HETATM   13  C   UNL     1      25.603  44.105  52.025  1.00  0.00     0.238 C 
BRANCH  11  14
HETATM   14  O   UNL     1      26.403  46.809  51.761  1.00  0.00    -0.379 OA
HETATM   15  H   UNL     1      26.652  47.686  51.398  1.00  0.00     0.211 HD
ENDBRANCH  11  14
BRANCH  11  16
HETATM   16  C   UNL     1      24.806  47.105  49.882  1.00  0.00     0.419 C 
HETATM   17  F   UNL     1      24.081  46.435  48.965  1.00  0.00    -0.168 F 
HETATM   18  F   UNL     1      23.972  47.885  50.600  1.00  0.00    -0.168 F 
HETATM   19  F   UNL     1      25.673  47.904  49.230  1.00  0.00    -0.168 F 
ENDBRANCH  11  16
ENDBRANCH   7   8
ENDBRANCH   6   7
BRANCH   1  20
HETATM   20  C   UNL     1      29.307  43.285  54.344  1.00  0.00    -0.003 A 
HETATM   21  C   UNL     1      28.585  44.450  54.623  1.00  0.00     0.037 A 
HETATM   22  C   UNL     1      29.060  45.353  55.575  1.00  0.00     0.035 A 
HETATM   23  C   UNL     1      30.260  45.118  56.242  1.00  0.00     0.024 A 
HETATM   24 CL   UNL     1      28.139  46.760  55.937  1.00  0.00    -0.084 Cl
HETATM   25  C   UNL     1      30.998  43.972  55.949  1.00  0.00     0.003 A 
HETATM   26  C   UNL     1      30.524  43.060  55.004  1.00  0.00     0.014 A 
ENDBRANCH   1  20
TORSDOF 5
ENDMDL
MODEL 4
REMARK VINA RESULT:      -8.1      5.328      7.314
REMARK  5 active torsions:
REMARK  status: ('A' for Active; 'I' for Inactive)
REMARK    1  A    between atoms: C_6  and  C_7 
REMARK    2  A    between atoms: C_12  and  C_13 
REMARK    3  A    between atoms: C_13  and  N_14 
REMARK    4  A    between atoms: C_17  and  O_18 
REMARK    5  A    between atoms: C_17  and  C_19 
ROOT
HETATM    1  C   UNL     1      26.195  48.196  49.422  1.00  0.00     0.096 A 
HETATM    2  N   UNL     1      27.315  48.651  48.849  1.00  0.00    -0.174 NA
HETATM    3  N   UNL     1      26.937  49.720  48.139  1.00  0.00    -0.288 N 
HETATM    4  H   UNL     1      27.654  50.256  47.654  1.00  0.00     0.188 HD
HETATM    5  C   UNL     1      25.588  49.919  48.157  1.00  0.00     0.120 A 
HETATM    6  C   UNL     1      25.057  48.941  48.976  1.00  0.00     0.016 A 
ENDROOT
BRANCH   6   7
HETATM    7  C   UNL     1      23.624  48.715  49.295  1.00  0.00     0.277 C 
BRANCH   7   8
HETATM    8  N   UNL     1      22.698  49.400  48.316  1.00  0.00    -0.064 N 
HETATM    9  H   UNL     1      23.280  49.710  47.526  1.00  0.00     0.280 HD
HETATM   10  C   UNL     1      21.984  50.628  48.892  1.00  0.00     0.282 C 
HETATM   11  C   UNL     1      20.525  50.192  49.009  1.00  0.00     0.180 C 
HETATM   12  C   UNL     1      20.352  49.314  47.779  1.00  0.00     0.076 C 
HETATM   13  C   UNL     1      21.622  48.475  47.782  1.00  0.00     0.238 C 
BRANCH  11  14
HETATM   14  O   UNL     1      20.380  49.347  50.174  1.00  0.00    -0.379 OA
HETATM   15  H   UNL     1      20.087  49.905  50.927  1.00  0.00     0.211 HD
ENDBRANCH  11  14
BRANCH  11  16
HETATM   16  C   UNL     1      19.619  51.418  49.032  1.00  0.00     0.419 C 
HETATM   17  F   UNL     1      18.424  51.147  48.471  1.00  0.00    -0.168 F 
HETATM   18  F   UNL     1      19.413  51.820  50.303  1.00  0.00    -0.168 F 
HETATM   19  F   UNL     1      20.181  52.436  48.353  1.00  0.00    -0.168 F 
ENDBRANCH  11  16
ENDBRANCH   7   8
ENDBRANCH   6   7
BRANCH   1  20
HETATM   20  C   UNL     1      26.238  47.037  50.310  1.00  0.00    -0.003 A 
HETATM   21  C   UNL     1      26.050  47.180  51.689  1.00  0.00     0.037 A 
HETATM   22  C   UNL     1      26.055  46.055  52.513  1.00  0.00     0.035 A 
HETATM   23  C   UNL     1      26.262  44.784  51.982  1.00  0.00     0.024 A 
HETATM   24 CL   UNL     1      25.781  46.244  54.201  1.00  0.00    -0.084 Cl
HETATM   25  C   UNL     1      26.477  44.637  50.612  1.00  0.00     0.003 A 
HETATM   26  C   UNL     1      26.465  45.758  49.780  1.00  0.00     0.014 A 
ENDBRANCH   1  20
TORSDOF 5
ENDMDL
MODEL 5
REMARK VINA RESULT:      -8.1      4.503      5.861
REMARK  5 active torsions:
REMARK  status: ('A' for Active; 'I' for Inactive)
REMARK    1  A    between atoms: C_6  and  C_7 
REMARK    2  A    between atoms: C_12  and  C_13 
REMARK    3  A    between atoms: C_13  and  N_14 
REMARK    4  A    between atoms: C_17  and  O_18 
REMARK    5  A    between atoms: C_17  and  C_19 
ROOT
HETATM    1  C   UNL     1      27.045  43.989  53.230  1.00  0.00     0.096 A 
HETATM    2  N   UNL     1      26.011  44.732  53.638  1.00  0.00    -0.174 NA
HETATM    3  N   UNL     1      25.037  44.496  52.753  1.00  0.00    -0.288 N 
HETATM    4  H   UNL     1      24.129  44.931  52.905  1.00  0.00     0.188 HD
HETATM    5  C   UNL     1      25.436  43.693  51.726  1.00  0.00     0.120 A 
HETATM    6  C   UNL     1      26.748  43.342  51.988  1.00  0.00     0.016 A 
ENDROOT
BRANCH   6   7
HETATM    7  C   UNL     1      27.638  42.500  51.149  1.00  0.00     0.277 C 
BRANCH   7   8
HETATM    8  N   UNL     1      27.346  41.025  51.294  1.00  0.00    -0.064 N 
HETATM    9  H   UNL     1      26.830  40.910  52.178  1.00  0.00     0.280 HD
HETATM   10  C   UNL     1      28.601  40.146  51.358  1.00  0.00     0.282 C 
HETATM   11  C   UNL     1      28.591  39.383  50.036  1.00  0.00     0.180 C 
HETATM   12  C   UNL     1      27.106  39.139  49.816  1.00  0.00     0.076 C 
HETATM   13  C   UNL     1      26.488  40.484  50.167  1.00  0.00     0.238 C 
BRANCH  11  14
HETATM   14  O   UNL     1      29.051  40.262  48.983  1.00  0.00    -0.379 OA
HETATM   15  H   UNL     1      28.826  41.185  49.230  1.00  0.00     0.211 HD
ENDBRANCH  11  14
BRANCH  11  16
HETATM   16  C   UNL     1      29.419  38.110  50.167  1.00  0.00     0.419 C 
HETATM   17  F   UNL     1      30.159  38.127  51.293  1.00  0.00    -0.168 F 
HETATM   18  F   UNL     1      28.611  37.031  50.203  1.00  0.00    -0.168 F 
HETATM   19  F   UNL     1      30.255  37.976  49.118  1.00  0.00    -0.168 F 
ENDBRANCH  11  16
ENDBRANCH   7   8
ENDBRANCH   6   7
BRANCH   1  20
HETATM   20  C   UNL     1      28.292  43.975  53.991  1.00  0.00    -0.003 A 
HETATM   21  C   UNL     1      28.521  44.904  55.012  1.00  0.00     0.037 A 
HETATM   22  C   UNL     1      29.703  44.848  55.752  1.00  0.00     0.035 A 
HETATM   23  C   UNL     1      30.670  43.885  55.478  1.00  0.00     0.024 A 
HETATM   24 CL   UNL     1      29.951  45.971  57.031  1.00  0.00    -0.084 Cl
HETATM   25  C   UNL     1      30.459  42.972  54.444  1.00  0.00     0.003 A 
HETATM   26  C   UNL     1      29.276  43.017  53.704  1.00  0.00     0.014 A 
ENDBRANCH   1  20
TORSDOF 5
ENDMDL
MODEL 6
REMARK VINA RESULT:      -8.0      3.189      4.293
REMARK  5 active torsions:
REMARK  status: ('A' for Active; 'I' for Inactive)
REMARK    1  A    between atoms: C_6  and  C_7 
REMARK    2  A    between atoms: C_12  and  C_13 
REMARK    3  A    between atoms: C_13  and  N_14 
REMARK    4  A    between atoms: C_17  and  O_18 
REMARK    5  A    between atoms: C_17  and  C_19 
ROOT
HETATM    1  C   UNL     1      27.848  46.065  54.832  1.00  0.00     0.096 A 
HETATM    2  N   UNL     1      27.794  47.354  55.185  1.00  0.00    -0.174 NA
HETATM    3  N   UNL     1      26.657  47.816  54.653  1.00  0.00    -0.288 N 
HETATM    4  H   UNL     1      26.391  48.780  54.844  1.00  0.00     0.188 HD
HETATM    5  C   UNL     1      26.015  46.890  53.884  1.00  0.00     0.120 A 
HETATM    6  C   UNL     1      26.761  45.729  53.962  1.00  0.00     0.016 A 
ENDROOT
BRANCH   6   7
HETATM    7  C   UNL     1      26.493  44.440  53.275  1.00  0.00     0.277 C 
BRANCH   7   8
HETATM    8  N   UNL     1      26.192  44.618  51.806  1.00  0.00    -0.064 N 
HETATM    9  H   UNL     1      26.119  45.631  51.639  1.00  0.00     0.280 HD
HETATM   10  C   UNL     1      24.879  43.967  51.356  1.00  0.00     0.282 C 
HETATM   11  C   UNL     1      25.321  42.793  50.487  1.00  0.00     0.180 C 
HETATM   12  C   UNL     1      26.547  43.357  49.785  1.00  0.00     0.076 C 
HETATM   13  C   UNL     1      27.285  44.064  50.912  1.00  0.00     0.238 C 
BRANCH  11  14
HETATM   14  O   UNL     1      25.764  41.715  51.343  1.00  0.00    -0.379 OA
HETATM   15  H   UNL     1      25.882  42.068  52.251  1.00  0.00     0.211 HD
ENDBRANCH  11  14
BRANCH  11  16
HETATM   16  C   UNL     1      24.193  42.394  49.543  1.00  0.00     0.419 C 
HETATM   17  F   UNL     1      24.322  41.112  49.148  1.00  0.00    -0.168 F 
HETATM   18  F   UNL     1      23.001  42.534  50.158  1.00  0.00    -0.168 F 
HETATM   19  F   UNL     1      24.195  43.173  48.444  1.00  0.00    -0.168 F 
ENDBRANCH  11  16
ENDBRANCH   7   8
ENDBRANCH   6   7
BRANCH   1  20
HETATM   20  C   UNL     1      28.958  45.223  55.273  1.00  0.00    -0.003 A 
HETATM   21  C   UNL     1      29.624  45.485  56.475  1.00  0.00     0.037 A 
HETATM   22  C   UNL     1      30.656  44.645  56.896  1.00  0.00     0.035 A 
HETATM   23  C   UNL     1      31.045  43.554  56.124  1.00  0.00     0.024 A 
HETATM   24 CL   UNL     1      31.437  44.955  58.397  1.00  0.00    -0.084 Cl
HETATM   25  C   UNL     1      30.403  43.303  54.912  1.00  0.00     0.003 A 
HETATM   26  C   UNL     1      29.364  44.134  54.488  1.00  0.00     0.014 A 
ENDBRANCH   1  20
TORSDOF 5
ENDMDL
MODEL 7
REMARK VINA RESULT:      -8.0      2.136      2.498
REMARK  5 active torsions:
REMARK  status: ('A' for Active; 'I' for Inactive)
REMARK    1  A    between atoms: C_6  and  C_7 
REMARK    2  A    between atoms: C_12  and  C_13 
REMARK    3  A    between atoms: C_13  and  N_14 
REMARK    4  A    between atoms: C_17  and  O_18 
REMARK    5  A    between atoms: C_17  and  C_19 
ROOT
HETATM    1  C   UNL     1      28.712  42.415  53.345  1.00  0.00     0.096 A 
HETATM    2  N   UNL     1      28.736  41.096  53.562  1.00  0.00    -0.174 NA
HETATM    3  N   UNL     1      28.239  40.548  52.447  1.00  0.00    -0.288 N 
HETATM    4  H   UNL     1      28.213  39.533  52.378  1.00  0.00     0.188 HD
HETATM    5  C   UNL     1      27.805  41.476  51.547  1.00  0.00     0.120 A 
HETATM    6  C   UNL     1      28.084  42.715  52.094  1.00  0.00     0.016 A 
ENDROOT
BRANCH   6   7
HETATM    7  C   UNL     1      27.776  44.045  51.510  1.00  0.00     0.277 C 
BRANCH   7   8
HETATM    8  N   UNL     1      26.356  44.483  51.782  1.00  0.00    -0.064 N 
HETATM    9  H   UNL     1      26.173  44.293  52.777  1.00  0.00     0.280 HD
HETATM   10  C   UNL     1      25.306  43.734  50.953  1.00  0.00     0.282 C 
HETATM   11  C   UNL     1      24.783  44.783  49.975  1.00  0.00     0.180 C 
HETATM   12  C   UNL     1      24.797  46.047  50.822  1.00  0.00     0.076 C 
HETATM   13  C   UNL     1      26.140  45.962  51.531  1.00  0.00     0.238 C 
BRANCH  11  14
HETATM   14  O   UNL     1      25.747  44.956  48.912  1.00  0.00    -0.379 OA
HETATM   15  H   UNL     1      26.567  44.474  49.156  1.00  0.00     0.211 HD
ENDBRANCH  11  14
BRANCH  11  16
HETATM   16  C   UNL     1      23.398  44.382  49.478  1.00  0.00     0.419 C 
HETATM   17  F   UNL     1      22.626  45.466  49.270  1.00  0.00    -0.168 F 
HETATM   18  F   UNL     1      23.500  43.700  48.320  1.00  0.00    -0.168 F 
HETATM   19  F   UNL     1      22.780  43.594  50.380  1.00  0.00    -0.168 F 
ENDBRANCH  11  16
ENDBRANCH   7   8
ENDBRANCH   6   7
BRANCH   1  20
HETATM   20  C   UNL     1      29.219  43.340  54.356  1.00  0.00    -0.003 A 
HETATM   21  C   UNL     1      30.298  42.990  55.174  1.00  0.00     0.037 A 
HETATM   22  C   UNL     1      30.792  43.903  56.106  1.00  0.00     0.035 A 
HETATM   23  C   UNL     1      30.210  45.160  56.247  1.00  0.00     0.024 A 
HETATM   24 CL   UNL     1      32.147  43.472  57.074  1.00  0.00    -0.084 Cl
HETATM   25  C   UNL     1      29.116  45.506  55.454  1.00  0.00     0.003 A 
HETATM   26  C   UNL     1      28.623  44.600  54.513  1.00  0.00     0.014 A 
ENDBRANCH   1  20
TORSDOF 5
ENDMDL
MODEL 8
REMARK VINA RESULT:      -8.0      5.301      8.573
REMARK  5 active torsions:
REMARK  status: ('A' for Active; 'I' for Inactive)
REMARK    1  A    between atoms: C_6  and  C_7 
REMARK    2  A    between atoms: C_12  and  C_13 
REMARK    3  A    between atoms: C_13  and  N_14 
REMARK    4  A    between atoms: C_17  and  O_18 
REMARK    5  A    between atoms: C_17  and  C_19 
ROOT
HETATM    1  C   UNL     1      24.864  49.456  48.446  1.00  0.00     0.096 A 
HETATM    2  N   UNL     1      25.736  50.174  47.729  1.00  0.00    -0.174 NA
HETATM    3  N   UNL     1      26.939  49.684  48.046  1.00  0.00    -0.288 N 
HETATM    4  H   UNL     1      27.756  50.061  47.569  1.00  0.00     0.188 HD
HETATM    5  C   UNL     1      26.885  48.732  49.021  1.00  0.00     0.120 A 
HETATM    6  C   UNL     1      25.548  48.555  49.323  1.00  0.00     0.016 A 
ENDROOT
BRANCH   6   7
HETATM    7  C   UNL     1      24.970  47.644  50.345  1.00  0.00     0.277 C 
BRANCH   7   8
HETATM    8  N   UNL     1      26.010  47.118  51.306  1.00  0.00    -0.064 N 
HETATM    9  H   UNL     1      26.850  47.699  51.181  1.00  0.00     0.280 HD
HETATM   10  C   UNL     1      26.401  45.656  51.059  1.00  0.00     0.282 C 
HETATM   11  C   UNL     1      25.817  44.906  52.254  1.00  0.00     0.180 C 
HETATM   12  C   UNL     1      26.009  45.903  53.386  1.00  0.00     0.076 C 
HETATM   13  C   UNL     1      25.572  47.217  52.755  1.00  0.00     0.238 C 
BRANCH  11  14
HETATM   14  O   UNL     1      24.394  44.739  52.054  1.00  0.00    -0.379 OA
HETATM   15  H   UNL     1      24.194  44.894  51.105  1.00  0.00     0.211 HD
ENDBRANCH  11  14
BRANCH  11  16
HETATM   16  C   UNL     1      26.560  43.589  52.451  1.00  0.00     0.419 C 
HETATM   17  F   UNL     1      27.848  43.698  52.070  1.00  0.00    -0.168 F 
HETATM   18  F   UNL     1      26.527  43.226  53.749  1.00  0.00    -0.168 F 
HETATM   19  F   UNL     1      25.990  42.609  51.724  1.00  0.00    -0.168 F 
ENDBRANCH  11  16
ENDBRANCH   7   8
ENDBRANCH   6   7
BRANCH   1  20
HETATM   20  C   UNL     1      23.429  49.700  48.325  1.00  0.00    -0.003 A 
HETATM   21  C   UNL     1      22.558  48.682  47.924  1.00  0.00     0.037 A 
HETATM   22  C   UNL     1      21.186  48.926  47.853  1.00  0.00     0.035 A 
HETATM   23  C   UNL     1      20.670  50.182  48.161  1.00  0.00     0.024 A 
HETATM   24 CL   UNL     1      20.124  47.651  47.399  1.00  0.00    -0.084 Cl
HETATM   25  C   UNL     1      21.535  51.210  48.535  1.00  0.00     0.003 A 
HETATM   26  C   UNL     1      22.909  50.970  48.617  1.00  0.00     0.014 A 
ENDBRANCH   1  20
TORSDOF 5
ENDMDL
MODEL 9
REMARK VINA RESULT:      -7.9      3.375      4.778
REMARK  5 active torsions:
REMARK  status: ('A' for Active; 'I' for Inactive)
REMARK    1  A    between atoms: C_6  and  C_7 
REMARK    2  A    between atoms: C_12  and  C_13 
REMARK    3  A    between atoms: C_13  and  N_14 
REMARK    4  A    between atoms: C_17  and  O_18 
REMARK    5  A    between atoms: C_17  and  C_19 
ROOT
HETATM    1  C   UNL     1      27.606  45.290  54.148  1.00  0.00     0.096 A 
HETATM    2  N   UNL     1      27.213  46.567  54.080  1.00  0.00    -0.174 NA
HETATM    3  N   UNL     1      26.103  46.553  53.333  1.00  0.00    -0.288 N 
HETATM    4  H   UNL     1      25.604  47.429  53.192  1.00  0.00     0.188 HD
HETATM    5  C   UNL     1      25.814  45.317  52.834  1.00  0.00     0.120 A 
HETATM    6  C   UNL     1      26.776  44.458  53.332  1.00  0.00     0.016 A 
ENDROOT
BRANCH   6   7
HETATM    7  C   UNL     1      26.912  43.005  53.055  1.00  0.00     0.277 C 
BRANCH   7   8
HETATM    8  N   UNL     1      27.443  42.726  51.669  1.00  0.00    -0.064 N 
HETATM    9  H   UNL     1      27.890  43.595  51.342  1.00  0.00     0.280 HD
HETATM   10  C   UNL     1      26.361  42.338  50.655  1.00  0.00     0.282 C 
HETATM   11  C   UNL     1      26.621  40.860  50.377  1.00  0.00     0.180 C 
HETATM   12  C   UNL     1      28.140  40.787  50.422  1.00  0.00     0.076 C 
HETATM   13  C   UNL     1      28.480  41.620  51.649  1.00  0.00     0.238 C 
BRANCH  11  14
HETATM   14  O   UNL     1      26.111  40.077  51.481  1.00  0.00    -0.379 OA
HETATM   15  H   UNL     1      25.590  39.329  51.116  1.00  0.00     0.211 HD
ENDBRANCH  11  14
BRANCH  11  16
HETATM   16  C   UNL     1      26.019  40.473  49.030  1.00  0.00     0.419 C 
HETATM   17  F   UNL     1      26.621  41.135  48.023  1.00  0.00    -0.168 F 
HETATM   18  F   UNL     1      26.165  39.149  48.819  1.00  0.00    -0.168 F 
HETATM   19  F   UNL     1      24.704  40.764  48.997  1.00  0.00    -0.168 F 
ENDBRANCH  11  16
ENDBRANCH   7   8
ENDBRANCH   6   7
BRANCH   1  20
HETATM   20  C   UNL     1      28.788  44.921  54.924  1.00  0.00    -0.003 A 
HETATM   21  C   UNL     1      29.142  45.632  56.076  1.00  0.00     0.037 A 
HETATM   22  C   UNL     1      30.252  45.237  56.823  1.00  0.00     0.035 A 
HETATM   23  C   UNL     1      31.027  44.150  56.428  1.00  0.00     0.024 A 
HETATM   24 CL   UNL     1      30.650  46.095  58.260  1.00  0.00    -0.084 Cl
HETATM   25  C   UNL     1      30.695  43.454  55.266  1.00  0.00     0.003 A 
HETATM   26  C   UNL     1      29.580  43.838  54.517  1.00  0.00     0.014 A 
ENDBRANCH   1  20
TORSDOF 5
ENDMDL
MODEL 10
REMARK VINA RESULT:      -7.8      5.432      8.750
REMARK  5 active torsions:
REMARK  status: ('A' for Active; 'I' for Inactive)
REMARK    1  A    between atoms: C_6  and  C_7 
REMARK    2  A    between atoms: C_12  and  C_13 
REMARK    3  A    between atoms: C_13  and  N_14 
REMARK    4  A    between atoms: C_17  and  O_18 
REMARK    5  A    between atoms: C_17  and  C_19 
ROOT
HETATM    1  C   UNL     1      24.516  49.295  48.413  1.00  0.00     0.096 A 
HETATM    2  N   UNL     1      25.291  50.122  47.702  1.00  0.00    -0.174 NA
HETATM    3  N   UNL     1      26.546  49.807  48.042  1.00  0.00    -0.288 N 
HETATM    4  H   UNL     1      27.309  50.290  47.573  1.00  0.00     0.188 HD
HETATM    5  C   UNL     1      26.609  48.863  49.024  1.00  0.00     0.120 A 
HETATM    6  C   UNL     1      25.304  48.503  49.308  1.00  0.00     0.016 A 
ENDROOT
BRANCH   6   7
HETATM    7  C   UNL     1      24.842  47.528  50.329  1.00  0.00     0.277 C 
BRANCH   7   8
HETATM    8  N   UNL     1      25.962  47.054  51.226  1.00  0.00    -0.064 N 
HETATM    9  H   UNL     1      26.777  47.648  51.020  1.00  0.00     0.280 HD
HETATM   10  C   UNL     1      26.366  45.593  50.996  1.00  0.00     0.282 C 
HETATM   11  C   UNL     1      25.890  44.870  52.253  1.00  0.00     0.180 C 
HETATM   12  C   UNL     1      26.143  45.908  53.336  1.00  0.00     0.076 C 
HETATM   13  C   UNL     1      25.631  47.191  52.699  1.00  0.00     0.238 C 
BRANCH  11  14
HETATM   14  O   UNL     1      24.460  44.668  52.165  1.00  0.00    -0.379 OA
HETATM   15  H   UNL     1      24.016  45.533  52.298  1.00  0.00     0.211 HD
ENDBRANCH  11  14
BRANCH  11  16
HETATM   16  C   UNL     1      26.675  43.576  52.435  1.00  0.00     0.419 C 
HETATM   17  F   UNL     1      26.686  43.194  53.727  1.00  0.00    -0.168 F 
HETATM   18  F   UNL     1      26.121  42.589  51.702  1.00  0.00    -0.168 F 
HETATM   19  F   UNL     1      27.951  43.735  52.033  1.00  0.00    -0.168 F 
ENDBRANCH  11  16
ENDBRANCH   7   8
ENDBRANCH   6   7
BRANCH   1  20
HETATM   20  C   UNL     1      23.063  49.336  48.268  1.00  0.00    -0.003 A 
HETATM   21  C   UNL     1      22.352  50.522  48.483  1.00  0.00     0.037 A 
HETATM   22  C   UNL     1      20.969  50.548  48.301  1.00  0.00     0.035 A 
HETATM   23  C   UNL     1      20.280  49.399  47.922  1.00  0.00     0.024 A 
HETATM   24 CL   UNL     1      20.116  52.024  48.528  1.00  0.00    -0.084 Cl
HETATM   25  C   UNL     1      20.978  48.207  47.732  1.00  0.00     0.003 A 
HETATM   26  C   UNL     1      22.364  48.176  47.905  1.00  0.00     0.014 A 
ENDBRANCH   1  20
TORSDOF 5
ENDMDL
