MODEL 1
REMARK VINA RESULT:      -9.5      0.000      0.000
REMARK  4 active torsions:
REMARK  status: ('A' for Active; 'I' for Inactive)
REMARK    1  A    between atoms: C_9  and  C_10 
REMARK    2  A    between atoms: C_10  and  C_11 
REMARK       I    between atoms: C_11  and  N_12 
REMARK    3  A    between atoms: N_12  and  C_13 
REMARK    4  A    between atoms: C_15  and  C_16 
ROOT
HETATM    1  C   UNL     1      25.767  46.695  53.344  1.00  0.00     0.227 C 
HETATM    2  N   UNL     1      25.774  46.426  51.997  1.00  0.00    -0.327 N 
HETATM    3  O   UNL     1      25.567  47.804  53.842  1.00  0.00    -0.273 OA
HETATM    4  H   UNL     1      25.943  45.450  51.748  1.00  0.00     0.169 HD
ENDROOT
BRANCH   1   5
HETATM    5  C   UNL     1      26.011  45.525  54.280  1.00  0.00     0.165 C 
BRANCH   5   6
HETATM    6  C   UNL     1      26.893  44.354  53.887  1.00  0.00     0.074 A 
HETATM    7  C   UNL     1      28.247  44.259  54.501  1.00  0.00     0.006 A 
HETATM    8  C   UNL     1      28.735  45.186  55.431  1.00  0.00     0.014 A 
HETATM    9  C   UNL     1      29.051  43.186  54.122  1.00  0.00     0.046 A 
HETATM   10  C   UNL     1      30.019  45.036  55.962  1.00  0.00     0.001 A 
HETATM   11  C   UNL     1      30.821  43.963  55.573  1.00  0.00     0.001 A 
HETATM   12  C   UNL     1      30.337  43.034  54.653  1.00  0.00     0.018 A 
HETATM   13  C   UNL     1      28.528  42.205  53.160  1.00  0.00     0.272 A 
HETATM   14  O   UNL     1      29.195  41.245  52.793  1.00  0.00    -0.266 OA
HETATM   15  N   UNL     1      27.252  42.427  52.704  1.00  0.00    -0.243 N 
HETATM   16  N   UNL     1      26.445  43.467  53.046  1.00  0.00    -0.175 NA
HETATM   17  H   UNL     1      26.884  41.749  52.042  1.00  0.00     0.192 HD
ENDBRANCH   5   6
ENDBRANCH   1   5
BRANCH   2  18
HETATM   18  C   UNL     1      25.591  47.317  50.924  1.00  0.00     0.035 A 
HETATM   19  C   UNL     1      24.344  47.684  50.410  1.00  0.00     0.047 A 
HETATM   20  C   UNL     1      24.231  48.589  49.331  1.00  0.00     0.071 A 
HETATM   21  C   UNL     1      25.399  49.120  48.775  1.00  0.00     0.049 A 
HETATM   22 CL   UNL     1      25.368  50.234  47.457  1.00  0.00    -0.083 Cl
HETATM   23  C   UNL     1      26.649  48.758  49.283  1.00  0.00     0.027 A 
HETATM   24  C   UNL     1      26.743  47.863  50.351  1.00  0.00     0.031 A 
BRANCH  20  25
HETATM   25  C   UNL     1      22.872  48.964  48.806  1.00  0.00     0.419 C 
HETATM   26  F   UNL     1      22.599  50.297  48.905  1.00  0.00    -0.166 F 
HETATM   27  F   UNL     1      22.712  48.665  47.486  1.00  0.00    -0.166 F 
HETATM   28  F   UNL     1      21.857  48.341  49.467  1.00  0.00    -0.166 F 
ENDBRANCH  20  25
ENDBRANCH   2  18
TORSDOF 4
ENDMDL
MODEL 2
REMARK VINA RESULT:      -9.2      6.732      8.675
REMARK  4 active torsions:
REMARK  status: ('A' for Active; 'I' for Inactive)
REMARK    1  A    between atoms: C_9  and  C_10 
REMARK    2  A    between atoms: C_10  and  C_11 
REMARK       I    between atoms: C_11  and  N_12 
REMARK    3  A    between atoms: N_12  and  C_13 
REMARK    4  A    between atoms: C_15  and  C_16 
ROOT
HETATM    1  C   UNL     1      27.621  42.978  52.507  1.00  0.00     0.227 C 
HETATM    2  N   UNL     1      28.894  43.206  52.972  1.00  0.00    -0.327 N 
HETATM    3  O   UNL     1      26.588  43.329  53.077  1.00  0.00    -0.273 OA
HETATM    4  H   UNL     1      29.646  42.862  52.372  1.00  0.00     0.169 HD
ENDROOT
BRANCH   1   5
HETATM    5  C   UNL     1      27.494  42.251  51.180  1.00  0.00     0.165 C 
BRANCH   5   6
HETATM    6  C   UNL     1      28.194  40.929  50.920  1.00  0.00     0.074 A 
HETATM    7  C   UNL     1      28.150  40.375  49.538  1.00  0.00     0.006 A 
HETATM    8  C   UNL     1      27.512  41.019  48.471  1.00  0.00     0.014 A 
HETATM    9  C   UNL     1      28.786  39.154  49.316  1.00  0.00     0.046 A 
HETATM   10  C   UNL     1      27.508  40.435  47.201  1.00  0.00     0.001 A 
HETATM   11  C   UNL     1      28.141  39.211  46.987  1.00  0.00     0.001 A 
HETATM   12  C   UNL     1      28.783  38.568  48.045  1.00  0.00     0.018 A 
HETATM   13  C   UNL     1      29.471  38.490  50.433  1.00  0.00     0.272 A 
HETATM   14  O   UNL     1      30.043  37.416  50.291  1.00  0.00    -0.266 OA
HETATM   15  N   UNL     1      29.434  39.145  51.640  1.00  0.00    -0.243 N 
HETATM   16  N   UNL     1      28.817  40.330  51.893  1.00  0.00    -0.175 NA
HETATM   17  H   UNL     1      29.910  38.692  52.415  1.00  0.00     0.192 HD
ENDBRANCH   5   6
ENDBRANCH   1   5
BRANCH   2  18
HETATM   18  C   UNL     1      29.292  43.837  54.165  1.00  0.00     0.035 A 
HETATM   19  C   UNL     1      30.238  43.318  55.052  1.00  0.00     0.047 A 
HETATM   20  C   UNL     1      30.596  44.007  56.232  1.00  0.00     0.071 A 
HETATM   21  C   UNL     1      29.982  45.233  56.505  1.00  0.00     0.049 A 
HETATM   22 CL   UNL     1      30.350  46.153  57.918  1.00  0.00    -0.083 Cl
HETATM   23  C   UNL     1      29.034  45.759  55.624  1.00  0.00     0.027 A 
HETATM   24  C   UNL     1      28.693  45.065  54.461  1.00  0.00     0.031 A 
BRANCH  20  25
HETATM   25  C   UNL     1      31.622  43.419  57.162  1.00  0.00     0.419 C 
HETATM   26  F   UNL     1      31.976  44.255  58.180  1.00  0.00    -0.166 F 
HETATM   27  F   UNL     1      31.193  42.278  57.770  1.00  0.00    -0.166 F 
HETATM   28  F   UNL     1      32.790  43.105  56.535  1.00  0.00    -0.166 F 
ENDBRANCH  20  25
ENDBRANCH   2  18
TORSDOF 4
ENDMDL
MODEL 3
REMARK VINA RESULT:      -9.2      5.089      8.394
REMARK  4 active torsions:
REMARK  status: ('A' for Active; 'I' for Inactive)
REMARK    1  A    between atoms: C_9  and  C_10 
REMARK    2  A    between atoms: C_10  and  C_11 
REMARK       I    between atoms: C_11  and  N_12 
REMARK    3  A    between atoms: N_12  and  C_13 
REMARK    4  A    between atoms: C_15  and  C_16 
ROOT
HETATM    1  C   UNL     1      25.593  46.438  52.214  1.00  0.00     0.227 C 
HETATM    2  N   UNL     1      26.555  45.533  52.594  1.00  0.00    -0.327 N 
HETATM    3  O   UNL     1      25.309  47.467  52.828  1.00  0.00    -0.273 OA
HETATM    4  H   UNL     1      26.677  44.737  51.966  1.00  0.00     0.169 HD
ENDROOT
BRANCH   1   5
HETATM    5  C   UNL     1      24.841  46.142  50.929  1.00  0.00     0.165 C 
BRANCH   5   6
HETATM    6  C   UNL     1      24.445  47.242  49.960  1.00  0.00     0.074 A 
HETATM    7  C   UNL     1      25.507  48.172  49.485  1.00  0.00     0.006 A 
HETATM    8  C   UNL     1      26.848  48.071  49.875  1.00  0.00     0.014 A 
HETATM    9  C   UNL     1      25.127  49.185  48.605  1.00  0.00     0.046 A 
HETATM   10  C   UNL     1      27.789  48.985  49.392  1.00  0.00     0.001 A 
HETATM   11  C   UNL     1      27.401  49.999  48.517  1.00  0.00     0.001 A 
HETATM   12  C   UNL     1      26.068  50.100  48.120  1.00  0.00     0.018 A 
HETATM   13  C   UNL     1      23.722  49.276  48.183  1.00  0.00     0.272 A 
HETATM   14  O   UNL     1      23.337  50.148  47.414  1.00  0.00    -0.266 OA
HETATM   15  N   UNL     1      22.874  48.327  48.698  1.00  0.00    -0.243 N 
HETATM   16  N   UNL     1      23.209  47.334  49.564  1.00  0.00    -0.175 NA
HETATM   17  H   UNL     1      21.902  48.384  48.406  1.00  0.00     0.192 HD
ENDBRANCH   5   6
ENDBRANCH   1   5
BRANCH   2  18
HETATM   18  C   UNL     1      27.380  45.557  53.734  1.00  0.00     0.035 A 
HETATM   19  C   UNL     1      28.454  44.689  53.945  1.00  0.00     0.047 A 
HETATM   20  C   UNL     1      29.246  44.770  55.112  1.00  0.00     0.071 A 
HETATM   21  C   UNL     1      28.936  45.743  56.067  1.00  0.00     0.049 A 
HETATM   22 CL   UNL     1      29.842  45.924  57.525  1.00  0.00    -0.083 Cl
HETATM   23  C   UNL     1      27.863  46.613  55.864  1.00  0.00     0.027 A 
HETATM   24  C   UNL     1      27.091  46.521  54.704  1.00  0.00     0.031 A 
BRANCH  20  25
HETATM   25  C   UNL     1      30.397  43.821  55.304  1.00  0.00     0.419 C 
HETATM   26  F   UNL     1      30.208  42.935  56.324  1.00  0.00    -0.166 F 
HETATM   27  F   UNL     1      30.640  43.052  54.205  1.00  0.00    -0.166 F 
HETATM   28  F   UNL     1      31.567  44.456  55.594  1.00  0.00    -0.166 F 
ENDBRANCH  20  25
ENDBRANCH   2  18
TORSDOF 4
ENDMDL
MODEL 4
REMARK VINA RESULT:      -9.1      4.828      8.624
REMARK  4 active torsions:
REMARK  status: ('A' for Active; 'I' for Inactive)
REMARK    1  A    between atoms: C_9  and  C_10 
REMARK    2  A    between atoms: C_10  and  C_11 
REMARK       I    between atoms: C_11  and  N_12 
REMARK    3  A    between atoms: N_12  and  C_13 
REMARK    4  A    between atoms: C_15  and  C_16 
ROOT
HETATM    1  C   UNL     1      25.247  45.450  51.468  1.00  0.00     0.227 C 
HETATM    2  N   UNL     1      26.272  45.967  52.223  1.00  0.00    -0.327 N 
HETATM    3  O   UNL     1      24.972  44.253  51.376  1.00  0.00    -0.273 OA
HETATM    4  H   UNL     1      26.358  46.985  52.203  1.00  0.00     0.169 HD
ENDROOT
BRANCH   1   5
HETATM    5  C   UNL     1      24.386  46.442  50.707  1.00  0.00     0.165 C 
BRANCH   5   6
HETATM    6  C   UNL     1      24.991  47.585  49.912  1.00  0.00     0.074 A 
HETATM    7  C   UNL     1      24.066  48.511  49.201  1.00  0.00     0.006 A 
HETATM    8  C   UNL     1      22.672  48.387  49.246  1.00  0.00     0.014 A 
HETATM    9  C   UNL     1      24.636  49.548  48.465  1.00  0.00     0.046 A 
HETATM   10  C   UNL     1      21.866  49.292  48.549  1.00  0.00     0.001 A 
HETATM   11  C   UNL     1      22.442  50.324  47.808  1.00  0.00     0.001 A 
HETATM   12  C   UNL     1      23.830  50.455  47.767  1.00  0.00     0.018 A 
HETATM   13  C   UNL     1      26.098  49.686  48.436  1.00  0.00     0.272 A 
HETATM   14  O   UNL     1      26.649  50.579  47.803  1.00  0.00    -0.266 OA
HETATM   15  N   UNL     1      26.807  48.760  49.162  1.00  0.00    -0.243 N 
HETATM   16  N   UNL     1      26.284  47.732  49.883  1.00  0.00    -0.175 NA
HETATM   17  H   UNL     1      27.819  48.853  49.149  1.00  0.00     0.192 HD
ENDBRANCH   5   6
ENDBRANCH   1   5
BRANCH   2  18
HETATM   18  C   UNL     1      27.218  45.280  53.006  1.00  0.00     0.035 A 
HETATM   19  C   UNL     1      27.822  44.077  52.633  1.00  0.00     0.047 A 
HETATM   20  C   UNL     1      28.770  43.440  53.466  1.00  0.00     0.071 A 
HETATM   21  C   UNL     1      29.099  44.038  54.686  1.00  0.00     0.049 A 
HETATM   22 CL   UNL     1      30.244  43.342  55.774  1.00  0.00    -0.083 Cl
HETATM   23  C   UNL     1      28.498  45.240  55.067  1.00  0.00     0.027 A 
HETATM   24  C   UNL     1      27.565  45.857  54.231  1.00  0.00     0.031 A 
BRANCH  20  25
HETATM   25  C   UNL     1      29.403  42.148  53.030  1.00  0.00     0.419 C 
HETATM   26  F   UNL     1      29.060  41.083  53.811  1.00  0.00    -0.166 F 
HETATM   27  F   UNL     1      29.054  41.786  51.763  1.00  0.00    -0.166 F 
HETATM   28  F   UNL     1      30.764  42.186  53.056  1.00  0.00    -0.166 F 
ENDBRANCH  20  25
ENDBRANCH   2  18
TORSDOF 4
ENDMDL
MODEL 5
REMARK VINA RESULT:      -9.1      5.298      8.577
REMARK  4 active torsions:
REMARK  status: ('A' for Active; 'I' for Inactive)
REMARK    1  A    between atoms: C_9  and  C_10 
REMARK    2  A    between atoms: C_10  and  C_11 
REMARK       I    between atoms: C_11  and  N_12 
REMARK    3  A    between atoms: N_12  and  C_13 
REMARK    4  A    between atoms: C_15  and  C_16 
ROOT
HETATM    1  C   UNL     1      26.402  43.925  53.609  1.00  0.00     0.227 C 
HETATM    2  N   UNL     1      27.741  44.185  53.447  1.00  0.00    -0.327 N 
HETATM    3  O   UNL     1      25.860  43.649  54.679  1.00  0.00    -0.273 OA
HETATM    4  H   UNL     1      28.030  44.411  52.494  1.00  0.00     0.169 HD
ENDROOT
BRANCH   1   5
HETATM    5  C   UNL     1      25.533  44.001  52.366  1.00  0.00     0.165 C 
BRANCH   5   6
HETATM    6  C   UNL     1      25.361  45.291  51.586  1.00  0.00     0.074 A 
HETATM    7  C   UNL     1      24.298  45.343  50.544  1.00  0.00     0.006 A 
HETATM    8  C   UNL     1      23.444  44.269  50.263  1.00  0.00     0.014 A 
HETATM    9  C   UNL     1      24.159  46.530  49.826  1.00  0.00     0.046 A 
HETATM   10  C   UNL     1      22.472  44.389  49.266  1.00  0.00     0.001 A 
HETATM   11  C   UNL     1      22.343  45.577  48.547  1.00  0.00     0.001 A 
HETATM   12  C   UNL     1      23.185  46.651  48.828  1.00  0.00     0.018 A 
HETATM   13  C   UNL     1      25.043  47.662  50.137  1.00  0.00     0.272 A 
HETATM   14  O   UNL     1      24.964  48.726  49.534  1.00  0.00    -0.266 OA
HETATM   15  N   UNL     1      25.958  47.456  51.141  1.00  0.00    -0.243 N 
HETATM   16  N   UNL     1      26.126  46.310  51.853  1.00  0.00    -0.175 NA
HETATM   17  H   UNL     1      26.569  48.237  51.362  1.00  0.00     0.192 HD
ENDBRANCH   5   6
ENDBRANCH   1   5
BRANCH   2  18
HETATM   18  C   UNL     1      28.760  44.170  54.418  1.00  0.00     0.035 A 
HETATM   19  C   UNL     1      28.780  44.988  55.550  1.00  0.00     0.047 A 
HETATM   20  C   UNL     1      29.834  44.918  56.489  1.00  0.00     0.071 A 
HETATM   21  C   UNL     1      30.872  44.009  56.266  1.00  0.00     0.049 A 
HETATM   22 CL   UNL     1      32.203  43.846  57.353  1.00  0.00    -0.083 Cl
HETATM   23  C   UNL     1      30.860  43.189  55.136  1.00  0.00     0.027 A 
HETATM   24  C   UNL     1      29.810  43.269  54.219  1.00  0.00     0.031 A 
BRANCH  20  25
HETATM   25  C   UNL     1      29.820  45.812  57.699  1.00  0.00     0.419 C 
HETATM   26  F   UNL     1      28.717  46.611  57.773  1.00  0.00    -0.166 F 
HETATM   27  F   UNL     1      29.836  45.118  58.872  1.00  0.00    -0.166 F 
HETATM   28  F   UNL     1      30.882  46.663  57.744  1.00  0.00    -0.166 F 
ENDBRANCH  20  25
ENDBRANCH   2  18
TORSDOF 4
ENDMDL
MODEL 6
REMARK VINA RESULT:      -9.0      2.051      2.814
REMARK  4 active torsions:
REMARK  status: ('A' for Active; 'I' for Inactive)
REMARK    1  A    between atoms: C_9  and  C_10 
REMARK    2  A    between atoms: C_10  and  C_11 
REMARK       I    between atoms: C_11  and  N_12 
REMARK    3  A    between atoms: N_12  and  C_13 
REMARK    4  A    between atoms: C_15  and  C_16 
ROOT
HETATM    1  C   UNL     1      26.455  45.315  50.393  1.00  0.00     0.227 C 
HETATM    2  N   UNL     1      25.507  46.238  50.762  1.00  0.00    -0.327 N 
HETATM    3  O   UNL     1      26.956  45.226  49.271  1.00  0.00    -0.273 OA
HETATM    4  H   UNL     1      25.204  46.187  51.736  1.00  0.00     0.169 HD
ENDROOT
BRANCH   1   5
HETATM    5  C   UNL     1      26.925  44.347  51.464  1.00  0.00     0.165 C 
BRANCH   5   6
HETATM    6  C   UNL     1      27.319  44.816  52.853  1.00  0.00     0.074 A 
HETATM    7  C   UNL     1      28.523  44.207  53.482  1.00  0.00     0.006 A 
HETATM    8  C   UNL     1      29.313  43.238  52.851  1.00  0.00     0.014 A 
HETATM    9  C   UNL     1      28.866  44.638  54.763  1.00  0.00     0.046 A 
HETATM   10  C   UNL     1      30.427  42.706  53.507  1.00  0.00     0.001 A 
HETATM   11  C   UNL     1      30.761  43.138  54.790  1.00  0.00     0.001 A 
HETATM   12  C   UNL     1      29.981  44.107  55.420  1.00  0.00     0.018 A 
HETATM   13  C   UNL     1      28.045  45.668  55.415  1.00  0.00     0.272 A 
HETATM   14  O   UNL     1      28.303  46.080  56.540  1.00  0.00    -0.266 OA
HETATM   15  N   UNL     1      26.980  46.141  54.688  1.00  0.00    -0.243 N 
HETATM   16  N   UNL     1      26.613  45.737  53.444  1.00  0.00    -0.175 NA
HETATM   17  H   UNL     1      26.412  46.857  55.133  1.00  0.00     0.192 HD
ENDBRANCH   5   6
ENDBRANCH   1   5
BRANCH   2  18
HETATM   18  C   UNL     1      24.896  47.231  49.973  1.00  0.00     0.035 A 
HETATM   19  C   UNL     1      23.555  47.209  49.582  1.00  0.00     0.047 A 
HETATM   20  C   UNL     1      23.002  48.242  48.792  1.00  0.00     0.071 A 
HETATM   21  C   UNL     1      23.827  49.301  48.400  1.00  0.00     0.049 A 
HETATM   22 CL   UNL     1      23.249  50.611  47.437  1.00  0.00    -0.083 Cl
HETATM   23  C   UNL     1      25.169  49.329  48.786  1.00  0.00     0.027 A 
HETATM   24  C   UNL     1      25.699  48.301  49.568  1.00  0.00     0.031 A 
BRANCH  20  25
HETATM   25  C   UNL     1      21.553  48.187  48.393  1.00  0.00     0.419 C 
HETATM   26  F   UNL     1      20.890  47.106  48.897  1.00  0.00    -0.166 F 
HETATM   27  F   UNL     1      20.844  49.270  48.819  1.00  0.00    -0.166 F 
HETATM   28  F   UNL     1      21.375  48.119  47.044  1.00  0.00    -0.166 F 
ENDBRANCH  20  25
ENDBRANCH   2  18
TORSDOF 4
ENDMDL
MODEL 7
REMARK VINA RESULT:      -9.0      4.671      8.474
REMARK  4 active torsions:
REMARK  status: ('A' for Active; 'I' for Inactive)
REMARK    1  A    between atoms: C_9  and  C_10 
REMARK    2  A    between atoms: C_10  and  C_11 
REMARK       I    between atoms: C_11  and  N_12 
REMARK    3  A    between atoms: N_12  and  C_13 
REMARK    4  A    between atoms: C_15  and  C_16 
ROOT
HETATM    1  C   UNL     1      25.066  45.463  51.575  1.00  0.00     0.227 C 
HETATM    2  N   UNL     1      26.426  45.636  51.664  1.00  0.00    -0.327 N 
HETATM    3  O   UNL     1      24.384  44.809  52.365  1.00  0.00    -0.273 OA
HETATM    4  H   UNL     1      26.840  46.220  50.935  1.00  0.00     0.169 HD
ENDROOT
BRANCH   1   5
HETATM    5  C   UNL     1      24.360  46.147  50.418  1.00  0.00     0.165 C 
BRANCH   5   6
HETATM    6  C   UNL     1      24.952  47.359  49.721  1.00  0.00     0.074 A 
HETATM    7  C   UNL     1      24.015  48.349  49.122  1.00  0.00     0.006 A 
HETATM    8  C   UNL     1      22.621  48.224  49.185  1.00  0.00     0.014 A 
HETATM    9  C   UNL     1      24.572  49.451  48.474  1.00  0.00     0.046 A 
HETATM   10  C   UNL     1      21.803  49.192  48.595  1.00  0.00     0.001 A 
HETATM   11  C   UNL     1      22.368  50.288  47.943  1.00  0.00     0.001 A 
HETATM   12  C   UNL     1      23.754  50.420  47.883  1.00  0.00     0.018 A 
HETATM   13  C   UNL     1      26.034  49.588  48.427  1.00  0.00     0.272 A 
HETATM   14  O   UNL     1      26.574  50.536  47.869  1.00  0.00    -0.266 OA
HETATM   15  N   UNL     1      26.755  48.597  49.046  1.00  0.00    -0.243 N 
HETATM   16  N   UNL     1      26.245  47.506  49.677  1.00  0.00    -0.175 NA
HETATM   17  H   UNL     1      27.767  48.690  49.020  1.00  0.00     0.192 HD
ENDBRANCH   5   6
ENDBRANCH   1   5
BRANCH   2  18
HETATM   18  C   UNL     1      27.317  45.109  52.618  1.00  0.00     0.035 A 
HETATM   19  C   UNL     1      27.671  45.755  53.805  1.00  0.00     0.047 A 
HETATM   20  C   UNL     1      28.569  45.167  54.723  1.00  0.00     0.071 A 
HETATM   21  C   UNL     1      29.109  43.912  54.423  1.00  0.00     0.049 A 
HETATM   22 CL   UNL     1      30.213  43.108  55.477  1.00  0.00    -0.083 Cl
HETATM   23  C   UNL     1      28.761  43.260  53.237  1.00  0.00     0.027 A 
HETATM   24  C   UNL     1      27.870  43.855  52.342  1.00  0.00     0.031 A 
BRANCH  20  25
HETATM   25  C   UNL     1      28.924  45.890  55.993  1.00  0.00     0.419 C 
HETATM   26  F   UNL     1      30.261  46.128  56.128  1.00  0.00    -0.166 F 
HETATM   27  F   UNL     1      28.333  47.114  56.090  1.00  0.00    -0.166 F 
HETATM   28  F   UNL     1      28.569  45.202  57.114  1.00  0.00    -0.166 F 
ENDBRANCH  20  25
ENDBRANCH   2  18
TORSDOF 4
ENDMDL
MODEL 8
REMARK VINA RESULT:      -8.9      5.179      7.535
REMARK  4 active torsions:
REMARK  status: ('A' for Active; 'I' for Inactive)
REMARK    1  A    between atoms: C_9  and  C_10 
REMARK    2  A    between atoms: C_10  and  C_11 
REMARK       I    between atoms: C_11  and  N_12 
REMARK    3  A    between atoms: N_12  and  C_13 
REMARK    4  A    between atoms: C_15  and  C_16 
ROOT
HETATM    1  C   UNL     1      27.755  43.005  51.447  1.00  0.00     0.227 C 
HETATM    2  N   UNL     1      28.231  42.691  52.697  1.00  0.00    -0.327 N 
HETATM    3  O   UNL     1      27.652  44.146  50.996  1.00  0.00    -0.273 OA
HETATM    4  H   UNL     1      28.265  41.693  52.913  1.00  0.00     0.169 HD
ENDROOT
BRANCH   1   5
HETATM    5  C   UNL     1      27.343  41.845  50.557  1.00  0.00     0.165 C 
BRANCH   5   6
HETATM    6  C   UNL     1      28.135  40.551  50.508  1.00  0.00     0.074 A 
HETATM    7  C   UNL     1      28.184  39.809  49.218  1.00  0.00     0.006 A 
HETATM    8  C   UNL     1      27.551  40.254  48.051  1.00  0.00     0.014 A 
HETATM    9  C   UNL     1      28.904  38.616  49.190  1.00  0.00     0.046 A 
HETATM   10  C   UNL     1      27.636  39.500  46.876  1.00  0.00     0.001 A 
HETATM   11  C   UNL     1      28.353  38.304  46.858  1.00  0.00     0.001 A 
HETATM   12  C   UNL     1      28.991  37.860  48.015  1.00  0.00     0.018 A 
HETATM   13  C   UNL     1      29.583  38.161  50.411  1.00  0.00     0.272 A 
HETATM   14  O   UNL     1      30.228  37.120  50.441  1.00  0.00    -0.266 OA
HETATM   15  N   UNL     1      29.456  38.974  51.512  1.00  0.00    -0.243 N 
HETATM   16  N   UNL     1      28.755  40.137  51.575  1.00  0.00    -0.175 NA
HETATM   17  H   UNL     1      29.927  38.666  52.358  1.00  0.00     0.192 HD
ENDBRANCH   5   6
ENDBRANCH   1   5
BRANCH   2  18
HETATM   18  C   UNL     1      28.663  43.561  53.715  1.00  0.00     0.035 A 
HETATM   19  C   UNL     1      28.025  44.757  54.050  1.00  0.00     0.047 A 
HETATM   20  C   UNL     1      28.509  45.583  55.089  1.00  0.00     0.071 A 
HETATM   21  C   UNL     1      29.654  45.183  55.786  1.00  0.00     0.049 A 
HETATM   22 CL   UNL     1      30.325  46.121  57.070  1.00  0.00    -0.083 Cl
HETATM   23  C   UNL     1      30.299  43.989  55.456  1.00  0.00     0.027 A 
HETATM   24  C   UNL     1      29.805  43.183  54.428  1.00  0.00     0.031 A 
BRANCH  20  25
HETATM   25  C   UNL     1      27.794  46.863  55.425  1.00  0.00     0.419 C 
HETATM   26  F   UNL     1      26.505  46.900  54.979  1.00  0.00    -0.166 F 
HETATM   27  F   UNL     1      27.714  47.090  56.766  1.00  0.00    -0.166 F 
HETATM   28  F   UNL     1      28.390  47.963  54.885  1.00  0.00    -0.166 F 
ENDBRANCH  20  25
ENDBRANCH   2  18
TORSDOF 4
ENDMDL
MODEL 9
REMARK VINA RESULT:      -8.8      2.371      3.215
REMARK  4 active torsions:
REMARK  status: ('A' for Active; 'I' for Inactive)
REMARK    1  A    between atoms: C_9  and  C_10 
REMARK    2  A    between atoms: C_10  and  C_11 
REMARK       I    between atoms: C_11  and  N_12 
REMARK    3  A    between atoms: N_12  and  C_13 
REMARK    4  A    between atoms: C_15  and  C_16 
ROOT
HETATM    1  C   UNL     1      26.244  45.252  50.225  1.00  0.00     0.227 C 
HETATM    2  N   UNL     1      24.971  45.668  50.534  1.00  0.00    -0.327 N 
HETATM    3  O   UNL     1      26.868  45.580  49.215  1.00  0.00    -0.273 OA
HETATM    4  H   UNL     1      24.599  45.315  51.417  1.00  0.00     0.169 HD
ENDROOT
BRANCH   1   5
HETATM    5  C   UNL     1      26.926  44.330  51.220  1.00  0.00     0.165 C 
BRANCH   5   6
HETATM    6  C   UNL     1      27.283  44.788  52.623  1.00  0.00     0.074 A 
HETATM    7  C   UNL     1      28.467  44.170  53.281  1.00  0.00     0.006 A 
HETATM    8  C   UNL     1      29.273  43.204  52.663  1.00  0.00     0.014 A 
HETATM    9  C   UNL     1      28.776  44.590  54.573  1.00  0.00     0.046 A 
HETATM   10  C   UNL     1      30.367  42.665  53.345  1.00  0.00     0.001 A 
HETATM   11  C   UNL     1      30.666  43.085  54.641  1.00  0.00     0.001 A 
HETATM   12  C   UNL     1      29.872  44.051  55.257  1.00  0.00     0.018 A 
HETATM   13  C   UNL     1      27.941  45.617  55.211  1.00  0.00     0.272 A 
HETATM   14  O   UNL     1      28.168  46.020  56.345  1.00  0.00    -0.266 OA
HETATM   15  N   UNL     1      26.897  46.099  54.459  1.00  0.00    -0.243 N 
HETATM   16  N   UNL     1      26.563  45.705  53.201  1.00  0.00    -0.175 NA
HETATM   17  H   UNL     1      26.318  46.813  54.894  1.00  0.00     0.192 HD
ENDBRANCH   5   6
ENDBRANCH   1   5
BRANCH   2  18
HETATM   18  C   UNL     1      24.116  46.502  49.790  1.00  0.00     0.035 A 
HETATM   19  C   UNL     1      24.305  47.877  49.627  1.00  0.00     0.047 A 
HETATM   20  C   UNL     1      23.410  48.657  48.861  1.00  0.00     0.071 A 
HETATM   21  C   UNL     1      22.315  48.027  48.262  1.00  0.00     0.049 A 
HETATM   22 CL   UNL     1      21.165  48.889  47.307  1.00  0.00    -0.083 Cl
HETATM   23  C   UNL     1      22.118  46.653  48.421  1.00  0.00     0.027 A 
HETATM   24  C   UNL     1      23.014  45.897  49.180  1.00  0.00     0.031 A 
BRANCH  20  25
HETATM   25  C   UNL     1      23.647  50.134  48.704  1.00  0.00     0.419 C 
HETATM   26  F   UNL     1      22.870  50.900  49.523  1.00  0.00    -0.166 F 
HETATM   27  F   UNL     1      24.930  50.498  48.987  1.00  0.00    -0.166 F 
HETATM   28  F   UNL     1      23.390  50.583  47.444  1.00  0.00    -0.166 F 
ENDBRANCH  20  25
ENDBRANCH   2  18
TORSDOF 4
ENDMDL
MODEL 10
REMARK VINA RESULT:      -8.8      4.837      8.173
REMARK  4 active torsions:
REMARK  status: ('A' for Active; 'I' for Inactive)
REMARK    1  A    between atoms: C_9  and  C_10 
REMARK    2  A    between atoms: C_10  and  C_11 
REMARK       I    between atoms: C_11  and  N_12 
REMARK    3  A    between atoms: N_12  and  C_13 
REMARK    4  A    between atoms: C_15  and  C_16 
ROOT
HETATM    1  C   UNL     1      26.281  44.820  51.764  1.00  0.00     0.227 C 
HETATM    2  N   UNL     1      27.591  44.414  51.828  1.00  0.00    -0.327 N 
HETATM    3  O   UNL     1      25.581  45.106  52.736  1.00  0.00    -0.273 OA
HETATM    4  H   UNL     1      28.036  44.228  50.927  1.00  0.00     0.169 HD
ENDROOT
BRANCH   1   5
HETATM    5  C   UNL     1      25.665  44.936  50.381  1.00  0.00     0.165 C 
BRANCH   5   6
HETATM    6  C   UNL     1      24.900  46.173  49.944  1.00  0.00     0.074 A 
HETATM    7  C   UNL     1      25.682  47.370  49.530  1.00  0.00     0.006 A 
HETATM    8  C   UNL     1      27.082  47.404  49.509  1.00  0.00     0.014 A 
HETATM    9  C   UNL     1      24.967  48.503  49.144  1.00  0.00     0.046 A 
HETATM   10  C   UNL     1      27.749  48.567  49.112  1.00  0.00     0.001 A 
HETATM   11  C   UNL     1      27.027  49.698  48.733  1.00  0.00     0.001 A 
HETATM   12  C   UNL     1      25.633  49.667  48.746  1.00  0.00     0.018 A 
HETATM   13  C   UNL     1      23.498  48.457  49.149  1.00  0.00     0.272 A 
HETATM   14  O   UNL     1      22.823  49.426  48.820  1.00  0.00    -0.266 OA
HETATM   15  N   UNL     1      22.931  47.269  49.539  1.00  0.00    -0.243 N 
HETATM   16  N   UNL     1      23.598  46.150  49.930  1.00  0.00    -0.175 NA
HETATM   17  H   UNL     1      21.916  47.231  49.541  1.00  0.00     0.192 HD
ENDBRANCH   5   6
ENDBRANCH   1   5
BRANCH   2  18
HETATM   18  C   UNL     1      28.392  44.213  52.968  1.00  0.00     0.035 A 
HETATM   19  C   UNL     1      28.463  45.098  54.046  1.00  0.00     0.047 A 
HETATM   20  C   UNL     1      29.285  44.832  55.164  1.00  0.00     0.071 A 
HETATM   21  C   UNL     1      30.039  43.655  55.177  1.00  0.00     0.049 A 
HETATM   22 CL   UNL     1      31.073  43.238  56.494  1.00  0.00    -0.083 Cl
HETATM   23  C   UNL     1      29.975  42.765  54.102  1.00  0.00     0.027 A 
HETATM   24  C   UNL     1      29.156  43.042  53.006  1.00  0.00     0.031 A 
BRANCH  20  25
HETATM   25  C   UNL     1      29.333  45.806  56.308  1.00  0.00     0.419 C 
HETATM   26  F   UNL     1      28.884  45.286  57.487  1.00  0.00    -0.166 F 
HETATM   27  F   UNL     1      30.593  46.252  56.574  1.00  0.00    -0.166 F 
HETATM   28  F   UNL     1      28.572  46.916  56.095  1.00  0.00    -0.166 F 
ENDBRANCH  20  25
ENDBRANCH   2  18
TORSDOF 4
ENDMDL
