MODEL 1
REMARK VINA RESULT:     -10.6      0.000      0.000
REMARK  4 active torsions:
REMARK  status: ('A' for Active; 'I' for Inactive)
REMARK    1  A    between atoms: C_2  and  N_3 
REMARK       I    between atoms: N_3  and  C_4 
REMARK       I    between atoms: C_4  and  N_5 
REMARK    2  A    between atoms: N_5  and  C_6 
REMARK    3  A    between atoms: C_17  and  C_18 
REMARK    4  A    between atoms: C_19  and  O_20 
ROOT
HETATM    1  C   UNL     1      22.599  49.575  48.957  1.00  0.00     0.120 C 
HETATM    2  C   UNL     1      23.362  48.387  49.581  1.00  0.00     0.202 C 
HETATM    3  N   UNL     1      24.756  48.635  49.258  1.00  0.00    -0.332 N 
HETATM    4  C   UNL     1      25.827  48.009  49.835  1.00  0.00     0.257 C 
HETATM    5  O   UNL     1      26.988  48.326  49.594  1.00  0.00    -0.267 OA
HETATM    6  C   UNL     1      25.559  46.911  50.795  1.00  0.00     0.059 A 
HETATM    7  C   UNL     1      24.587  45.917  50.594  1.00  0.00     0.050 A 
HETATM    8  N   UNL     1      23.607  45.923  49.578  1.00  0.00    -0.324 N 
HETATM    9  C   UNL     1      22.995  47.018  49.008  1.00  0.00     0.247 C 
HETATM   10  O   UNL     1      22.110  46.844  48.171  1.00  0.00    -0.271 OA
HETATM   11  C   UNL     1      26.440  46.827  51.886  1.00  0.00     0.031 A 
HETATM   12  C   UNL     1      26.376  45.764  52.798  1.00  0.00    -0.022 A 
HETATM   13  C   UNL     1      25.444  44.748  52.550  1.00  0.00     0.014 A 
HETATM   14  C   UNL     1      24.573  44.815  51.457  1.00  0.00     0.031 A 
HETATM   15  C   UNL     1      24.891  49.577  48.170  1.00  0.00     0.129 C 
HETATM   16  C   UNL     1      23.666  50.460  48.287  1.00  0.00     0.048 C 
HETATM   17  H   UNL     1      23.147  45.051  49.346  1.00  0.00     0.169 HD
ENDROOT
BRANCH   1  18
HETATM   18  N   UNL     1      21.792  50.345  49.912  1.00  0.00    -0.336 N 
HETATM   19  C   UNL     1      20.507  50.785  49.859  1.00  0.00     0.316 C 
HETATM   20  N   UNL     1      19.793  50.438  48.753  1.00  0.00    -0.339 N 
HETATM   21  O   UNL     1      20.088  51.503  50.758  1.00  0.00    -0.247 OA
HETATM   22  H   UNL     1      20.053  49.577  48.299  1.00  0.00     0.164 HD
HETATM   23  H   UNL     1      22.256  50.664  50.755  1.00  0.00     0.164 HD
BRANCH  20  24
HETATM   24  C   UNL     1      18.449  50.920  48.457  1.00  0.00     0.078 C 
HETATM   25  C   UNL     1      17.706  50.014  47.476  1.00  0.00     0.032 C 
HETATM   26  C   UNL     1      18.443  52.374  47.998  1.00  0.00     0.032 C 
ENDBRANCH  20  24
ENDBRANCH   1  18
BRANCH  12  27
HETATM   27  C   UNL     1      27.271  45.731  53.972  1.00  0.00     0.009 A 
HETATM   28  C   UNL     1      27.167  46.672  55.025  1.00  0.00     0.079 A 
HETATM   29  C   UNL     1      28.066  46.621  56.098  1.00  0.00     0.039 A 
HETATM   30  C   UNL     1      29.067  45.646  56.139  1.00  0.00     0.026 A 
HETATM   31  C   UNL     1      29.171  44.718  55.110  1.00  0.00     0.035 A 
HETATM   32 CL   UNL     1      30.406  43.522  55.161  1.00  0.00    -0.084 Cl
HETATM   33  C   UNL     1      28.284  44.755  54.037  1.00  0.00     0.039 A 
BRANCH  28  34
HETATM   34  O   UNL     1      26.175  47.614  54.901  1.00  0.00    -0.355 OA
HETATM   35  C   UNL     1      26.195  48.722  55.791  1.00  0.00     0.210 C 
ENDBRANCH  28  34
ENDBRANCH  12  27
TORSDOF 4
ENDMDL
MODEL 2
REMARK VINA RESULT:     -10.2      1.241      1.399
REMARK  4 active torsions:
REMARK  status: ('A' for Active; 'I' for Inactive)
REMARK    1  A    between atoms: C_2  and  N_3 
REMARK       I    between atoms: N_3  and  C_4 
REMARK       I    between atoms: C_4  and  N_5 
REMARK    2  A    between atoms: N_5  and  C_6 
REMARK    3  A    between atoms: C_17  and  C_18 
REMARK    4  A    between atoms: C_19  and  O_20 
ROOT
HETATM    1  C   UNL     1      21.679  49.145  48.852  1.00  0.00     0.120 C 
HETATM    2  C   UNL     1      22.670  48.030  49.249  1.00  0.00     0.202 C 
HETATM    3  N   UNL     1      23.983  48.611  49.033  1.00  0.00    -0.332 N 
HETATM    4  C   UNL     1      25.161  48.104  49.510  1.00  0.00     0.257 C 
HETATM    5  O   UNL     1      26.233  48.689  49.380  1.00  0.00    -0.267 OA
HETATM    6  C   UNL     1      25.126  46.802  50.218  1.00  0.00     0.059 A 
HETATM    7  C   UNL     1      24.373  45.698  49.785  1.00  0.00     0.050 A 
HETATM    8  N   UNL     1      23.407  45.717  48.757  1.00  0.00    -0.324 N 
HETATM    9  C   UNL     1      22.583  46.762  48.399  1.00  0.00     0.247 C 
HETATM   10  O   UNL     1      21.746  46.592  47.513  1.00  0.00    -0.271 OA
HETATM   11  C   UNL     1      26.013  46.672  51.300  1.00  0.00     0.031 A 
HETATM   12  C   UNL     1      26.170  45.454  51.975  1.00  0.00    -0.022 A 
HETATM   13  C   UNL     1      25.460  44.346  51.494  1.00  0.00     0.014 A 
HETATM   14  C   UNL     1      24.587  44.462  50.406  1.00  0.00     0.031 A 
HETATM   15  C   UNL     1      23.919  49.763  48.164  1.00  0.00     0.129 C 
HETATM   16  C   UNL     1      22.541  50.342  48.414  1.00  0.00     0.048 C 
HETATM   17  H   UNL     1      23.131  44.838  48.337  1.00  0.00     0.169 HD
ENDROOT
BRANCH   1  18
HETATM   18  N   UNL     1      20.739  49.526  49.914  1.00  0.00    -0.336 N 
HETATM   19  C   UNL     1      19.389  49.402  50.011  1.00  0.00     0.316 C 
HETATM   20  N   UNL     1      18.761  48.785  48.973  1.00  0.00    -0.339 N 
HETATM   21  O   UNL     1      18.815  49.894  50.975  1.00  0.00    -0.247 OA
HETATM   22  H   UNL     1      19.297  48.101  48.463  1.00  0.00     0.164 HD
HETATM   23  H   UNL     1      21.123  50.014  50.715  1.00  0.00     0.164 HD
BRANCH  20  24
HETATM   24  C   UNL     1      17.313  48.674  48.836  1.00  0.00     0.078 C 
HETATM   25  C   UNL     1      16.837  47.221  48.831  1.00  0.00     0.032 C 
HETATM   26  C   UNL     1      16.784  49.445  47.632  1.00  0.00     0.032 C 
ENDBRANCH  20  24
ENDBRANCH   1  18
BRANCH  12  27
HETATM   27  C   UNL     1      27.059  45.358  53.149  1.00  0.00     0.009 A 
HETATM   28  C   UNL     1      27.019  46.303  54.204  1.00  0.00     0.079 A 
HETATM   29  C   UNL     1      27.912  46.189  55.277  1.00  0.00     0.039 A 
HETATM   30  C   UNL     1      28.844  45.149  55.317  1.00  0.00     0.026 A 
HETATM   31  C   UNL     1      28.886  44.217  54.287  1.00  0.00     0.035 A 
HETATM   32 CL   UNL     1      30.037  42.941  54.336  1.00  0.00    -0.084 Cl
HETATM   33  C   UNL     1      28.004  44.316  53.213  1.00  0.00     0.039 A 
BRANCH  28  34
HETATM   34  O   UNL     1      26.093  47.309  54.081  1.00  0.00    -0.355 OA
HETATM   35  C   UNL     1      26.010  48.268  55.127  1.00  0.00     0.210 C 
ENDBRANCH  28  34
ENDBRANCH  12  27
TORSDOF 4
ENDMDL
MODEL 3
REMARK VINA RESULT:      -9.7      1.735      2.333
REMARK  4 active torsions:
REMARK  status: ('A' for Active; 'I' for Inactive)
REMARK    1  A    between atoms: C_2  and  N_3 
REMARK       I    between atoms: N_3  and  C_4 
REMARK       I    between atoms: C_4  and  N_5 
REMARK    2  A    between atoms: N_5  and  C_6 
REMARK    3  A    between atoms: C_17  and  C_18 
REMARK    4  A    between atoms: C_19  and  O_20 
ROOT
HETATM    1  C   UNL     1      21.752  49.304  48.685  1.00  0.00     0.120 C 
HETATM    2  C   UNL     1      22.680  48.217  49.267  1.00  0.00     0.202 C 
HETATM    3  N   UNL     1      24.023  48.694  48.992  1.00  0.00    -0.332 N 
HETATM    4  C   UNL     1      25.169  48.211  49.564  1.00  0.00     0.257 C 
HETATM    5  O   UNL     1      26.270  48.717  49.369  1.00  0.00    -0.267 OA
HETATM    6  C   UNL     1      25.059  47.035  50.460  1.00  0.00     0.059 A 
HETATM    7  C   UNL     1      24.257  45.915  50.184  1.00  0.00     0.050 A 
HETATM    8  N   UNL     1      23.306  45.824  49.146  1.00  0.00    -0.324 N 
HETATM    9  C   UNL     1      22.541  46.840  48.617  1.00  0.00     0.247 C 
HETATM   10  O   UNL     1      21.707  46.577  47.750  1.00  0.00    -0.271 OA
HETATM   11  C   UNL     1      25.924  47.029  51.567  1.00  0.00     0.031 A 
HETATM   12  C   UNL     1      26.011  45.922  52.422  1.00  0.00    -0.022 A 
HETATM   13  C   UNL     1      25.253  44.789  52.100  1.00  0.00     0.014 A 
HETATM   14  C   UNL     1      24.400  44.779  50.990  1.00  0.00     0.031 A 
HETATM   15  C   UNL     1      24.028  49.703  47.957  1.00  0.00     0.129 C 
HETATM   16  C   UNL     1      22.679  50.379  48.089  1.00  0.00     0.048 C 
HETATM   17  H   UNL     1      22.992  44.905  48.858  1.00  0.00     0.169 HD
ENDROOT
BRANCH   1  18
HETATM   18  N   UNL     1      20.818  49.888  49.658  1.00  0.00    -0.336 N 
HETATM   19  C   UNL     1      19.481  49.723  49.835  1.00  0.00     0.316 C 
HETATM   20  N   UNL     1      18.864  48.838  49.005  1.00  0.00    -0.339 N 
HETATM   21  O   UNL     1      18.905  50.408  50.671  1.00  0.00    -0.247 OA
HETATM   22  H   UNL     1      19.426  48.078  48.658  1.00  0.00     0.164 HD
HETATM   23  H   UNL     1      21.194  50.577  50.300  1.00  0.00     0.164 HD
BRANCH  20  24
HETATM   24  C   UNL     1      17.422  48.624  48.957  1.00  0.00     0.078 C 
HETATM   25  C   UNL     1      17.058  47.179  48.615  1.00  0.00     0.032 C 
HETATM   26  C   UNL     1      16.719  49.616  48.038  1.00  0.00     0.032 C 
ENDBRANCH  20  24
ENDBRANCH   1  18
BRANCH  12  27
HETATM   27  C   UNL     1      26.880  45.964  53.615  1.00  0.00     0.009 A 
HETATM   28  C   UNL     1      27.931  45.036  53.815  1.00  0.00     0.079 A 
HETATM   29  C   UNL     1      28.701  45.095  54.983  1.00  0.00     0.039 A 
HETATM   30  C   UNL     1      28.442  46.065  55.956  1.00  0.00     0.026 A 
HETATM   31  C   UNL     1      27.414  46.981  55.763  1.00  0.00     0.035 A 
HETATM   32 CL   UNL     1      27.094  48.170  56.963  1.00  0.00    -0.084 Cl
HETATM   33  C   UNL     1      26.639  46.936  54.606  1.00  0.00     0.039 A 
BRANCH  28  34
HETATM   34  O   UNL     1      28.107  44.099  52.827  1.00  0.00    -0.355 OA
HETATM   35  C   UNL     1      29.323  43.363  52.818  1.00  0.00     0.210 C 
ENDBRANCH  28  34
ENDBRANCH  12  27
TORSDOF 4
ENDMDL
MODEL 4
REMARK VINA RESULT:      -8.6     11.588     14.053
REMARK  4 active torsions:
REMARK  status: ('A' for Active; 'I' for Inactive)
REMARK    1  A    between atoms: C_2  and  N_3 
REMARK       I    between atoms: N_3  and  C_4 
REMARK       I    between atoms: C_4  and  N_5 
REMARK    2  A    between atoms: N_5  and  C_6 
REMARK    3  A    between atoms: C_17  and  C_18 
REMARK    4  A    between atoms: C_19  and  O_20 
ROOT
HETATM    1  C   UNL     1      28.811  48.772  39.632  1.00  0.00     0.120 C 
HETATM    2  C   UNL     1      29.940  49.148  40.615  1.00  0.00     0.202 C 
HETATM    3  N   UNL     1      30.884  48.049  40.527  1.00  0.00    -0.332 N 
HETATM    4  C   UNL     1      32.169  48.068  40.999  1.00  0.00     0.257 C 
HETATM    5  O   UNL     1      32.957  47.146  40.811  1.00  0.00    -0.267 OA
HETATM    6  C   UNL     1      32.616  49.261  41.758  1.00  0.00     0.059 A 
HETATM    7  C   UNL     1      31.832  49.908  42.728  1.00  0.00     0.050 A 
HETATM    8  N   UNL     1      30.467  49.656  42.980  1.00  0.00    -0.324 N 
HETATM    9  C   UNL     1      29.505  49.263  42.076  1.00  0.00     0.247 C 
HETATM   10  O   UNL     1      28.339  49.146  42.451  1.00  0.00    -0.271 OA
HETATM   11  C   UNL     1      33.951  49.648  41.555  1.00  0.00     0.031 A 
HETATM   12  C   UNL     1      34.536  50.680  42.302  1.00  0.00    -0.022 A 
HETATM   13  C   UNL     1      33.763  51.274  43.308  1.00  0.00     0.014 A 
HETATM   14  C   UNL     1      32.437  50.885  43.529  1.00  0.00     0.031 A 
HETATM   15  C   UNL     1      30.279  46.871  39.949  1.00  0.00     0.129 C 
HETATM   16  C   UNL     1      29.212  47.417  39.023  1.00  0.00     0.048 C 
HETATM   17  H   UNL     1      30.075  49.960  43.864  1.00  0.00     0.169 HD
ENDROOT
BRANCH   1  18
HETATM   18  N   UNL     1      28.561  49.772  38.585  1.00  0.00    -0.336 N 
HETATM   19  C   UNL     1      29.014  51.043  38.426  1.00  0.00     0.316 C 
HETATM   20  N   UNL     1      29.889  51.497  39.365  1.00  0.00    -0.339 N 
HETATM   21  O   UNL     1      28.576  51.718  37.502  1.00  0.00    -0.247 OA
HETATM   22  H   UNL     1      30.467  50.806  39.814  1.00  0.00     0.164 HD
HETATM   23  H   UNL     1      27.901  49.522  37.858  1.00  0.00     0.164 HD
BRANCH  20  24
HETATM   24  C   UNL     1      30.382  52.868  39.435  1.00  0.00     0.078 C 
HETATM   25  C   UNL     1      31.681  52.981  40.233  1.00  0.00     0.032 C 
HETATM   26  C   UNL     1      29.321  53.840  39.941  1.00  0.00     0.032 C 
ENDBRANCH  20  24
ENDBRANCH   1  18
BRANCH  12  27
HETATM   27  C   UNL     1      35.920  51.111  42.026  1.00  0.00     0.009 A 
HETATM   28  C   UNL     1      36.217  52.163  41.126  1.00  0.00     0.079 A 
HETATM   29  C   UNL     1      37.550  52.507  40.870  1.00  0.00     0.039 A 
HETATM   30  C   UNL     1      38.594  51.821  41.497  1.00  0.00     0.026 A 
HETATM   31  C   UNL     1      38.308  50.789  42.384  1.00  0.00     0.035 A 
HETATM   32 CL   UNL     1      39.593  49.942  43.151  1.00  0.00    -0.084 Cl
HETATM   33  C   UNL     1      36.988  50.435  42.650  1.00  0.00     0.039 A 
BRANCH  28  34
HETATM   34  O   UNL     1      35.140  52.773  40.531  1.00  0.00    -0.355 OA
HETATM   35  C   UNL     1      35.384  53.592  39.394  1.00  0.00     0.210 C 
ENDBRANCH  28  34
ENDBRANCH  12  27
TORSDOF 4
ENDMDL
MODEL 5
REMARK VINA RESULT:      -8.3     11.484     13.910
REMARK  4 active torsions:
REMARK  status: ('A' for Active; 'I' for Inactive)
REMARK    1  A    between atoms: C_2  and  N_3 
REMARK       I    between atoms: N_3  and  C_4 
REMARK       I    between atoms: C_4  and  N_5 
REMARK    2  A    between atoms: N_5  and  C_6 
REMARK    3  A    between atoms: C_17  and  C_18 
REMARK    4  A    between atoms: C_19  and  O_20 
ROOT
HETATM    1  C   UNL     1      30.161  52.736  41.795  1.00  0.00     0.120 C 
HETATM    2  C   UNL     1      29.279  51.629  41.179  1.00  0.00     0.202 C 
HETATM    3  N   UNL     1      29.746  51.507  39.809  1.00  0.00    -0.332 N 
HETATM    4  C   UNL     1      29.460  50.470  38.964  1.00  0.00     0.257 C 
HETATM    5  O   UNL     1      29.961  50.368  37.848  1.00  0.00    -0.267 OA
HETATM    6  C   UNL     1      28.514  49.429  39.432  1.00  0.00     0.059 A 
HETATM    7  C   UNL     1      27.324  49.709  40.123  1.00  0.00     0.050 A 
HETATM    8  N   UNL     1      26.954  50.968  40.642  1.00  0.00    -0.324 N 
HETATM    9  C   UNL     1      27.786  51.953  41.128  1.00  0.00     0.247 C 
HETATM   10  O   UNL     1      27.294  52.975  41.604  1.00  0.00    -0.271 OA
HETATM   11  C   UNL     1      28.801  48.115  39.022  1.00  0.00     0.031 A 
HETATM   12  C   UNL     1      27.921  47.057  39.290  1.00  0.00    -0.022 A 
HETATM   13  C   UNL     1      26.710  47.361  39.924  1.00  0.00     0.014 A 
HETATM   14  C   UNL     1      26.408  48.668  40.322  1.00  0.00     0.031 A 
HETATM   15  C   UNL     1      30.493  52.673  39.395  1.00  0.00     0.129 C 
HETATM   16  C   UNL     1      31.115  53.191  40.676  1.00  0.00     0.048 C 
HETATM   17  H   UNL     1      25.980  51.131  40.867  1.00  0.00     0.169 HD
ENDROOT
BRANCH   1  18
HETATM   18  N   UNL     1      30.904  52.323  42.992  1.00  0.00    -0.336 N 
HETATM   19  C   UNL     1      31.881  51.395  43.172  1.00  0.00     0.316 C 
HETATM   20  N   UNL     1      32.300  50.732  42.059  1.00  0.00    -0.339 N 
HETATM   21  O   UNL     1      32.280  51.166  44.307  1.00  0.00    -0.247 OA
HETATM   22  H   UNL     1      32.226  51.227  41.185  1.00  0.00     0.164 HD
HETATM   23  H   UNL     1      30.637  52.752  43.870  1.00  0.00     0.164 HD
BRANCH  20  24
HETATM   24  C   UNL     1      33.241  49.618  42.071  1.00  0.00     0.078 C 
HETATM   25  C   UNL     1      34.627  50.019  41.568  1.00  0.00     0.032 C 
HETATM   26  C   UNL     1      32.702  48.398  41.331  1.00  0.00     0.032 C 
ENDBRANCH  20  24
ENDBRANCH   1  18
BRANCH  12  27
HETATM   27  C   UNL     1      28.274  45.676  38.905  1.00  0.00     0.009 A 
HETATM   28  C   UNL     1      28.099  44.581  39.786  1.00  0.00     0.079 A 
HETATM   29  C   UNL     1      28.487  43.296  39.387  1.00  0.00     0.039 A 
HETATM   30  C   UNL     1      29.046  43.083  38.124  1.00  0.00     0.026 A 
HETATM   31  C   UNL     1      29.217  44.154  37.254  1.00  0.00     0.035 A 
HETATM   32 CL   UNL     1      29.909  43.891  35.702  1.00  0.00    -0.084 Cl
HETATM   33  C   UNL     1      28.836  45.438  37.635  1.00  0.00     0.039 A 
BRANCH  28  34
HETATM   34  O   UNL     1      27.568  44.873  41.018  1.00  0.00    -0.355 OA
HETATM   35  C   UNL     1      26.702  43.916  41.613  1.00  0.00     0.210 C 
ENDBRANCH  28  34
ENDBRANCH  12  27
TORSDOF 4
ENDMDL
MODEL 6
REMARK VINA RESULT:      -8.1     18.623     21.003
REMARK  4 active torsions:
REMARK  status: ('A' for Active; 'I' for Inactive)
REMARK    1  A    between atoms: C_2  and  N_3 
REMARK       I    between atoms: N_3  and  C_4 
REMARK       I    between atoms: C_4  and  N_5 
REMARK    2  A    between atoms: N_5  and  C_6 
REMARK    3  A    between atoms: C_17  and  C_18 
REMARK    4  A    between atoms: C_19  and  O_20 
ROOT
HETATM    1  C   UNL     1      39.007  48.378  66.957  1.00  0.00     0.120 C 
HETATM    2  C   UNL     1      38.696  47.259  65.940  1.00  0.00     0.202 C 
HETATM    3  N   UNL     1      39.922  47.104  65.179  1.00  0.00    -0.332 N 
HETATM    4  C   UNL     1      40.218  46.047  64.361  1.00  0.00     0.257 C 
HETATM    5  O   UNL     1      41.311  45.918  63.816  1.00  0.00    -0.267 OA
HETATM    6  C   UNL     1      39.172  45.020  64.140  1.00  0.00     0.059 A 
HETATM    7  C   UNL     1      37.818  45.320  63.917  1.00  0.00     0.050 A 
HETATM    8  N   UNL     1      37.225  46.592  64.063  1.00  0.00    -0.324 N 
HETATM    9  C   UNL     1      37.578  47.586  64.949  1.00  0.00     0.247 C 
HETATM   10  O   UNL     1      36.914  48.621  64.989  1.00  0.00    -0.271 OA
HETATM   11  C   UNL     1      39.631  43.697  64.027  1.00  0.00     0.031 A 
HETATM   12  C   UNL     1      38.763  42.648  63.694  1.00  0.00    -0.022 A 
HETATM   13  C   UNL     1      37.429  42.970  63.412  1.00  0.00     0.014 A 
HETATM   14  C   UNL     1      36.966  44.287  63.507  1.00  0.00     0.031 A 
HETATM   15  C   UNL     1      40.782  48.258  65.312  1.00  0.00     0.129 C 
HETATM   16  C   UNL     1      40.462  48.803  66.688  1.00  0.00     0.048 C 
HETATM   17  H   UNL     1      36.332  46.763  63.617  1.00  0.00     0.169 HD
ENDROOT
BRANCH   1  18
HETATM   18  N   UNL     1      38.817  47.991  68.361  1.00  0.00    -0.336 N 
HETATM   19  C   UNL     1      37.735  48.069  69.180  1.00  0.00     0.316 C 
HETATM   20  N   UNL     1      36.590  48.554  68.626  1.00  0.00    -0.339 N 
HETATM   21  O   UNL     1      37.860  47.763  70.359  1.00  0.00    -0.247 OA
HETATM   22  H   UNL     1      36.467  48.404  67.638  1.00  0.00     0.164 HD
HETATM   23  H   UNL     1      39.629  47.640  68.856  1.00  0.00     0.164 HD
BRANCH  20  24
HETATM   24  C   UNL     1      35.368  48.832  69.373  1.00  0.00     0.078 C 
HETATM   25  C   UNL     1      34.109  48.455  68.594  1.00  0.00     0.032 C 
HETATM   26  C   UNL     1      35.312  50.270  69.878  1.00  0.00     0.032 C 
ENDBRANCH  20  24
ENDBRANCH   1  18
BRANCH  12  27
HETATM   27  C   UNL     1      39.255  41.257  63.644  1.00  0.00     0.009 A 
HETATM   28  C   UNL     1      39.846  40.626  64.765  1.00  0.00     0.079 A 
HETATM   29  C   UNL     1      40.333  39.317  64.653  1.00  0.00     0.039 A 
HETATM   30  C   UNL     1      40.241  38.627  63.442  1.00  0.00     0.026 A 
HETATM   31  C   UNL     1      39.658  39.240  62.339  1.00  0.00     0.035 A 
HETATM   32 CL   UNL     1      39.549  38.391  60.848  1.00  0.00    -0.084 Cl
HETATM   33  C   UNL     1      39.168  40.541  62.434  1.00  0.00     0.039 A 
BRANCH  28  34
HETATM   34  O   UNL     1      39.924  41.376  65.912  1.00  0.00    -0.355 OA
HETATM   35  C   UNL     1      41.162  41.397  66.611  1.00  0.00     0.210 C 
ENDBRANCH  28  34
ENDBRANCH  12  27
TORSDOF 4
ENDMDL
MODEL 7
REMARK VINA RESULT:      -8.1      5.304     11.845
REMARK  4 active torsions:
REMARK  status: ('A' for Active; 'I' for Inactive)
REMARK    1  A    between atoms: C_2  and  N_3 
REMARK       I    between atoms: N_3  and  C_4 
REMARK       I    between atoms: C_4  and  N_5 
REMARK    2  A    between atoms: N_5  and  C_6 
REMARK    3  A    between atoms: C_17  and  C_18 
REMARK    4  A    between atoms: C_19  and  O_20 
ROOT
HETATM    1  C   UNL     1      22.376  49.918  48.894  1.00  0.00     0.120 C 
HETATM    2  C   UNL     1      21.024  49.942  48.150  1.00  0.00     0.202 C 
HETATM    3  N   UNL     1      20.219  50.903  48.882  1.00  0.00    -0.332 N 
HETATM    4  C   UNL     1      19.054  51.465  48.434  1.00  0.00     0.257 C 
HETATM    5  O   UNL     1      18.464  52.347  49.052  1.00  0.00    -0.267 OA
HETATM    6  C   UNL     1      18.498  50.986  47.146  1.00  0.00     0.059 A 
HETATM    7  C   UNL     1      18.450  49.633  46.770  1.00  0.00     0.050 A 
HETATM    8  N   UNL     1      19.084  48.571  47.449  1.00  0.00    -0.324 N 
HETATM    9  C   UNL     1      20.267  48.613  48.154  1.00  0.00     0.247 C 
HETATM   10  O   UNL     1      20.716  47.575  48.638  1.00  0.00    -0.271 OA
HETATM   11  C   UNL     1      17.879  51.963  46.348  1.00  0.00     0.031 A 
HETATM   12  C   UNL     1      17.205  51.624  45.167  1.00  0.00    -0.022 A 
HETATM   13  C   UNL     1      17.110  50.266  44.837  1.00  0.00     0.014 A 
HETATM   14  C   UNL     1      17.710  49.283  45.634  1.00  0.00     0.031 A 
HETATM   15  C   UNL     1      20.748  51.145  50.205  1.00  0.00     0.129 C 
HETATM   16  C   UNL     1      22.239  50.918  50.056  1.00  0.00     0.048 C 
HETATM   17  H   UNL     1      18.766  47.626  47.272  1.00  0.00     0.169 HD
ENDROOT
BRANCH   1  18
HETATM   18  N   UNL     1      23.536  50.238  48.052  1.00  0.00    -0.336 N 
HETATM   19  C   UNL     1      24.818  49.787  48.073  1.00  0.00     0.316 C 
HETATM   20  N   UNL     1      25.112  48.839  49.006  1.00  0.00    -0.339 N 
HETATM   21  O   UNL     1      25.636  50.288  47.312  1.00  0.00    -0.247 OA
HETATM   22  H   UNL     1      24.357  48.235  49.288  1.00  0.00     0.164 HD
HETATM   23  H   UNL     1      23.409  50.953  47.345  1.00  0.00     0.164 HD
BRANCH  20  24
HETATM   24  C   UNL     1      26.453  48.330  49.267  1.00  0.00     0.078 C 
HETATM   25  C   UNL     1      26.543  47.575  50.592  1.00  0.00     0.032 C 
HETATM   26  C   UNL     1      27.516  49.419  49.164  1.00  0.00     0.032 C 
ENDBRANCH  20  24
ENDBRANCH   1  18
BRANCH  12  27
HETATM   27  C   UNL     1      16.618  52.675  44.312  1.00  0.00     0.009 A 
HETATM   28  C   UNL     1      17.068  52.910  42.991  1.00  0.00     0.079 A 
HETATM   29  C   UNL     1      16.504  53.947  42.235  1.00  0.00     0.039 A 
HETATM   30  C   UNL     1      15.497  54.751  42.775  1.00  0.00     0.026 A 
HETATM   31  C   UNL     1      15.048  54.522  44.071  1.00  0.00     0.035 A 
HETATM   32 CL   UNL     1      13.813  55.516  44.735  1.00  0.00    -0.084 Cl
HETATM   33  C   UNL     1      15.599  53.495  44.835  1.00  0.00     0.039 A 
BRANCH  28  34
HETATM   34  O   UNL     1      18.077  52.095  42.540  1.00  0.00    -0.355 OA
HETATM   35  C   UNL     1      18.562  52.304  41.220  1.00  0.00     0.210 C 
ENDBRANCH  28  34
ENDBRANCH  12  27
TORSDOF 4
ENDMDL
MODEL 8
REMARK VINA RESULT:      -8.0     13.145     15.925
REMARK  4 active torsions:
REMARK  status: ('A' for Active; 'I' for Inactive)
REMARK    1  A    between atoms: C_2  and  N_3 
REMARK       I    between atoms: N_3  and  C_4 
REMARK       I    between atoms: C_4  and  N_5 
REMARK    2  A    between atoms: N_5  and  C_6 
REMARK    3  A    between atoms: C_17  and  C_18 
REMARK    4  A    between atoms: C_19  and  O_20 
ROOT
HETATM    1  C   UNL     1      30.696  51.261  42.777  1.00  0.00     0.120 C 
HETATM    2  C   UNL     1      32.233  51.355  42.680  1.00  0.00     0.202 C 
HETATM    3  N   UNL     1      32.650  50.058  42.181  1.00  0.00    -0.332 N 
HETATM    4  C   UNL     1      33.885  49.764  41.670  1.00  0.00     0.257 C 
HETATM    5  O   UNL     1      34.154  48.675  41.172  1.00  0.00    -0.267 OA
HETATM    6  C   UNL     1      34.929  50.816  41.719  1.00  0.00     0.059 A 
HETATM    7  C   UNL     1      35.152  51.644  42.832  1.00  0.00     0.050 A 
HETATM    8  N   UNL     1      34.316  51.738  43.964  1.00  0.00    -0.324 N 
HETATM    9  C   UNL     1      32.947  51.586  44.012  1.00  0.00     0.247 C 
HETATM   10  O   UNL     1      32.358  51.763  45.078  1.00  0.00    -0.271 OA
HETATM   11  C   UNL     1      35.802  50.861  40.619  1.00  0.00     0.031 A 
HETATM   12  C   UNL     1      36.906  51.723  40.596  1.00  0.00    -0.022 A 
HETATM   13  C   UNL     1      37.153  52.497  41.737  1.00  0.00     0.014 A 
HETATM   14  C   UNL     1      36.298  52.448  42.845  1.00  0.00     0.031 A 
HETATM   15  C   UNL     1      31.621  49.060  42.367  1.00  0.00     0.129 C 
HETATM   16  C   UNL     1      30.326  49.844  42.304  1.00  0.00     0.048 C 
HETATM   17  H   UNL     1      34.696  52.136  44.815  1.00  0.00     0.169 HD
ENDROOT
BRANCH   1  18
HETATM   18  N   UNL     1      29.976  52.284  42.006  1.00  0.00    -0.336 N 
HETATM   19  C   UNL     1      29.953  52.561  40.676  1.00  0.00     0.316 C 
HETATM   20  N   UNL     1      30.688  51.743  39.873  1.00  0.00    -0.339 N 
HETATM   21  O   UNL     1      29.336  53.544  40.285  1.00  0.00    -0.247 OA
HETATM   22  H   UNL     1      30.817  50.796  40.192  1.00  0.00     0.164 HD
HETATM   23  H   UNL     1      29.421  52.950  42.531  1.00  0.00     0.164 HD
BRANCH  20  24
HETATM   24  C   UNL     1      30.891  51.957  38.445  1.00  0.00     0.078 C 
HETATM   25  C   UNL     1      29.638  51.649  37.625  1.00  0.00     0.032 C 
HETATM   26  C   UNL     1      32.110  51.210  37.915  1.00  0.00     0.032 C 
ENDBRANCH  20  24
ENDBRANCH   1  18
BRANCH  12  27
HETATM   27  C   UNL     1      37.772  51.798  39.402  1.00  0.00     0.009 A 
HETATM   28  C   UNL     1      37.439  52.594  38.279  1.00  0.00     0.079 A 
HETATM   29  C   UNL     1      38.276  52.600  37.156  1.00  0.00     0.039 A 
HETATM   30  C   UNL     1      39.439  51.826  37.133  1.00  0.00     0.026 A 
HETATM   31  C   UNL     1      39.772  51.046  38.234  1.00  0.00     0.035 A 
HETATM   32 CL   UNL     1      41.202  50.090  38.203  1.00  0.00    -0.084 Cl
HETATM   33  C   UNL     1      38.952  51.030  39.360  1.00  0.00     0.039 A 
BRANCH  28  34
HETATM   34  O   UNL     1      36.269  53.307  38.366  1.00  0.00    -0.355 OA
HETATM   35  C   UNL     1      36.357  54.707  38.592  1.00  0.00     0.210 C 
ENDBRANCH  28  34
ENDBRANCH  12  27
TORSDOF 4
ENDMDL
MODEL 9
REMARK VINA RESULT:      -7.9     18.638     21.733
REMARK  4 active torsions:
REMARK  status: ('A' for Active; 'I' for Inactive)
REMARK    1  A    between atoms: C_2  and  N_3 
REMARK       I    between atoms: N_3  and  C_4 
REMARK       I    between atoms: C_4  and  N_5 
REMARK    2  A    between atoms: N_5  and  C_6 
REMARK    3  A    between atoms: C_17  and  C_18 
REMARK    4  A    between atoms: C_19  and  O_20 
ROOT
HETATM    1  C   UNL     1      36.258  46.391  65.979  1.00  0.00     0.120 C 
HETATM    2  C   UNL     1      37.667  46.183  65.383  1.00  0.00     0.202 C 
HETATM    3  N   UNL     1      38.231  47.518  65.300  1.00  0.00    -0.332 N 
HETATM    4  C   UNL     1      39.554  47.808  65.100  1.00  0.00     0.257 C 
HETATM    5  O   UNL     1      39.992  48.954  65.136  1.00  0.00    -0.267 OA
HETATM    6  C   UNL     1      40.484  46.683  64.840  1.00  0.00     0.059 A 
HETATM    7  C   UNL     1      40.187  45.605  63.990  1.00  0.00     0.050 A 
HETATM    8  N   UNL     1      38.923  45.329  63.427  1.00  0.00    -0.324 N 
HETATM    9  C   UNL     1      37.685  45.588  63.975  1.00  0.00     0.247 C 
HETATM   10  O   UNL     1      36.674  45.225  63.375  1.00  0.00    -0.271 OA
HETATM   11  C   UNL     1      41.769  46.814  65.393  1.00  0.00     0.031 A 
HETATM   12  C   UNL     1      42.781  45.884  65.120  1.00  0.00    -0.022 A 
HETATM   13  C   UNL     1      42.490  44.849  64.221  1.00  0.00     0.014 A 
HETATM   14  C   UNL     1      41.218  44.719  63.653  1.00  0.00     0.031 A 
HETATM   15  C   UNL     1      37.206  48.535  65.366  1.00  0.00     0.129 C 
HETATM   16  C   UNL     1      36.112  47.906  66.204  1.00  0.00     0.048 C 
HETATM   17  H   UNL     1      38.875  44.713  62.624  1.00  0.00     0.169 HD
ENDROOT
BRANCH   1  18
HETATM   18  N   UNL     1      36.009  45.642  67.219  1.00  0.00    -0.336 N 
HETATM   19  C   UNL     1      35.351  44.476  67.451  1.00  0.00     0.316 C 
HETATM   20  N   UNL     1      34.850  43.835  66.360  1.00  0.00    -0.339 N 
HETATM   21  O   UNL     1      35.195  44.103  68.607  1.00  0.00    -0.247 OA
HETATM   22  H   UNL     1      35.337  43.977  65.490  1.00  0.00     0.164 HD
HETATM   23  H   UNL     1      36.330  46.064  68.083  1.00  0.00     0.164 HD
BRANCH  20  24
HETATM   24  C   UNL     1      34.009  42.645  66.419  1.00  0.00     0.078 C 
HETATM   25  C   UNL     1      34.535  41.513  65.537  1.00  0.00     0.032 C 
HETATM   26  C   UNL     1      32.545  42.956  66.127  1.00  0.00     0.032 C 
ENDBRANCH  20  24
ENDBRANCH   1  18
BRANCH  12  27
HETATM   27  C   UNL     1      44.104  46.007  65.763  1.00  0.00     0.009 A 
HETATM   28  C   UNL     1      44.409  45.366  66.988  1.00  0.00     0.079 A 
HETATM   29  C   UNL     1      45.667  45.548  67.576  1.00  0.00     0.039 A 
HETATM   30  C   UNL     1      46.627  46.358  66.963  1.00  0.00     0.026 A 
HETATM   31  C   UNL     1      46.335  46.986  65.759  1.00  0.00     0.035 A 
HETATM   32 CL   UNL     1      47.515  47.986  65.008  1.00  0.00    -0.084 Cl
HETATM   33  C   UNL     1      45.088  46.816  65.160  1.00  0.00     0.039 A 
BRANCH  28  34
HETATM   34  O   UNL     1      43.407  44.608  67.541  1.00  0.00    -0.355 OA
HETATM   35  C   UNL     1      43.200  44.701  68.944  1.00  0.00     0.210 C 
ENDBRANCH  28  34
ENDBRANCH  12  27
TORSDOF 4
ENDMDL
MODEL 10
REMARK VINA RESULT:      -7.9     12.730     14.623
REMARK  4 active torsions:
REMARK  status: ('A' for Active; 'I' for Inactive)
REMARK    1  A    between atoms: C_2  and  N_3 
REMARK       I    between atoms: N_3  and  C_4 
REMARK       I    between atoms: C_4  and  N_5 
REMARK    2  A    between atoms: N_5  and  C_6 
REMARK    3  A    between atoms: C_17  and  C_18 
REMARK    4  A    between atoms: C_19  and  O_20 
ROOT
HETATM    1  C   UNL     1      30.017  49.233  39.725  1.00  0.00     0.120 C 
HETATM    2  C   UNL     1      31.341  50.022  39.797  1.00  0.00     0.202 C 
HETATM    3  N   UNL     1      31.150  50.961  40.887  1.00  0.00    -0.332 N 
HETATM    4  C   UNL     1      32.144  51.672  41.504  1.00  0.00     0.257 C 
HETATM    5  O   UNL     1      31.940  52.379  42.486  1.00  0.00    -0.267 OA
HETATM    6  C   UNL     1      33.519  51.567  40.959  1.00  0.00     0.059 A 
HETATM    7  C   UNL     1      33.819  51.585  39.587  1.00  0.00     0.050 A 
HETATM    8  N   UNL     1      32.875  51.506  38.541  1.00  0.00    -0.324 N 
HETATM    9  C   UNL     1      31.672  50.835  38.544  1.00  0.00     0.247 C 
HETATM   10  O   UNL     1      30.991  50.815  37.520  1.00  0.00    -0.271 OA
HETATM   11  C   UNL     1      34.554  51.584  41.909  1.00  0.00     0.031 A 
HETATM   12  C   UNL     1      35.901  51.617  41.522  1.00  0.00    -0.022 A 
HETATM   13  C   UNL     1      36.184  51.699  40.153  1.00  0.00     0.014 A 
HETATM   14  C   UNL     1      35.160  51.698  39.200  1.00  0.00     0.031 A 
HETATM   15  C   UNL     1      29.751  51.135  41.202  1.00  0.00     0.129 C 
HETATM   16  C   UNL     1      29.119  49.808  40.835  1.00  0.00     0.048 C 
HETATM   17  H   UNL     1      33.154  51.806  37.614  1.00  0.00     0.169 HD
ENDROOT
BRANCH   1  18
HETATM   18  N   UNL     1      30.170  47.779  39.864  1.00  0.00    -0.336 N 
HETATM   19  C   UNL     1      29.434  46.744  39.379  1.00  0.00     0.316 C 
HETATM   20  N   UNL     1      28.377  47.070  38.586  1.00  0.00    -0.339 N 
HETATM   21  O   UNL     1      29.718  45.602  39.722  1.00  0.00    -0.247 OA
HETATM   22  H   UNL     1      28.455  47.926  38.061  1.00  0.00     0.164 HD
HETATM   23  H   UNL     1      30.921  47.450  40.459  1.00  0.00     0.164 HD
BRANCH  20  24
HETATM   24  C   UNL     1      27.401  46.112  38.081  1.00  0.00     0.078 C 
HETATM   25  C   UNL     1      27.353  46.077  36.554  1.00  0.00     0.032 C 
HETATM   26  C   UNL     1      26.017  46.322  38.685  1.00  0.00     0.032 C 
ENDBRANCH  20  24
ENDBRANCH   1  18
BRANCH  12  27
HETATM   27  C   UNL     1      36.972  51.570  42.537  1.00  0.00     0.009 A 
HETATM   28  C   UNL     1      37.466  52.739  43.165  1.00  0.00     0.079 A 
HETATM   29  C   UNL     1      38.512  52.643  44.093  1.00  0.00     0.039 A 
HETATM   30  C   UNL     1      39.071  51.402  44.407  1.00  0.00     0.026 A 
HETATM   31  C   UNL     1      38.587  50.251  43.797  1.00  0.00     0.035 A 
HETATM   32 CL   UNL     1      39.280  48.725  44.180  1.00  0.00    -0.084 Cl
HETATM   33  C   UNL     1      37.548  50.329  42.872  1.00  0.00     0.039 A 
BRANCH  28  34
HETATM   34  O   UNL     1      36.884  53.923  42.787  1.00  0.00    -0.355 OA
HETATM   35  C   UNL     1      37.723  54.934  42.245  1.00  0.00     0.210 C 
ENDBRANCH  28  34
ENDBRANCH  12  27
TORSDOF 4
ENDMDL
