MODEL 1
REMARK VINA RESULT:      -8.6      0.000      0.000
REMARK  6 active torsions:
REMARK  status: ('A' for Active; 'I' for Inactive)
REMARK    1  A    between atoms: C_3  and  C_4 
REMARK    2  A    between atoms: C_4  and  N_5 
REMARK    3  A    between atoms: C_4  and  C_19 
REMARK    4  A    between atoms: N_9  and  C_10 
REMARK    5  A    between atoms: C_25  and  N_26 
REMARK       I    between atoms: N_26  and  C_27 
REMARK    6  A    between atoms: C_27  and  C_28 
ROOT
HETATM    1  C   UNL     1      24.942  45.893  50.251  1.00  0.00     0.259 C 
ENDROOT
BRANCH   1   2
HETATM    2  C   UNL     1      25.000  47.292  49.641  1.00  0.00     0.018 A 
HETATM    3  C   UNL     1      26.283  47.922  49.279  1.00  0.00    -0.038 A 
HETATM    4  C   UNL     1      27.628  47.247  49.309  1.00  0.00     0.050 C 
HETATM    5  C   UNL     1      26.126  49.248  48.910  1.00  0.00    -0.013 A 
HETATM    6  S   UNL     1      24.505  49.735  48.959  1.00  0.00    -0.076 SA
HETATM    7  C   UNL     1      27.172  50.241  48.501  1.00  0.00     0.057 C 
HETATM    8  C   UNL     1      23.958  48.190  49.401  1.00  0.00     0.086 A 
BRANCH   8   9
HETATM    9  N   UNL     1      22.586  47.988  49.376  1.00  0.00    -0.315 N 
HETATM   10  C   UNL     1      21.841  47.623  48.258  1.00  0.00     0.280 C 
HETATM   11  O   UNL     1      22.247  47.667  47.104  1.00  0.00    -0.265 OA
HETATM   12  H   UNL     1      22.031  48.114  50.210  1.00  0.00     0.170 HD
BRANCH  10  13
HETATM   13  C   UNL     1      20.454  47.368  48.593  1.00  0.00     0.142 A 
HETATM   14  O   UNL     1      19.764  48.313  49.313  1.00  0.00    -0.317 OA
HETATM   15  C   UNL     1      18.512  47.824  49.510  1.00  0.00     0.143 A 
HETATM   16  C   UNL     1      18.365  46.607  48.885  1.00  0.00     0.027 A 
HETATM   17  C   UNL     1      19.614  46.317  48.285  1.00  0.00     0.045 A 
ENDBRANCH  10  13
ENDBRANCH   8   9
ENDBRANCH   1   2
BRANCH   1  18
HETATM   18  N   UNL     1      25.022  45.804  51.806  1.00  0.00    -0.056 N 
HETATM   19  H   UNL     1      24.048  45.984  52.086  1.00  0.00     0.281 HD
HETATM   20  C   UNL     1      25.369  44.454  52.398  1.00  0.00     0.256 C 
HETATM   21  C   UNL     1      25.397  44.460  53.949  1.00  0.00     0.152 C 
HETATM   22  N   UNL     1      26.217  45.558  54.490  1.00  0.00    -0.364 N 
HETATM   23  C   UNL     1      25.842  46.888  53.963  1.00  0.00     0.152 C 
HETATM   24  C   UNL     1      25.874  46.919  52.417  1.00  0.00     0.256 C 
BRANCH  22  25
HETATM   25  C   UNL     1      27.495  45.290  54.940  1.00  0.00     0.102 A 
HETATM   26  N   UNL     1      28.046  46.128  55.840  1.00  0.00    -0.352 N 
HETATM   27  H   UNL     1      27.519  46.957  56.098  1.00  0.00     0.166 HD
HETATM   28  C   UNL     1      29.280  45.982  56.349  1.00  0.00     0.089 A 
HETATM   29  C   UNL     1      30.076  44.924  55.946  1.00  0.00     0.017 A 
HETATM   30  C   UNL     1      29.580  44.043  54.997  1.00  0.00     0.005 A 
HETATM   31  C   UNL     1      28.294  44.229  54.486  1.00  0.00     0.048 A 
ENDBRANCH  22  25
ENDBRANCH   1  18
BRANCH   1  32
HETATM   32  C   UNL     1      23.935  45.011  49.535  1.00  0.00    -0.005 A 
HETATM   33  C   UNL     1      22.799  44.449  50.103  1.00  0.00     0.125 A 
HETATM   34  N   UNL     1      21.968  43.584  49.479  1.00  0.00    -0.273 NA
HETATM   35  C   UNL     1      22.197  43.315  48.181  1.00  0.00     0.116 A 
HETATM   36  C   UNL     1      23.244  43.872  47.481  1.00  0.00     0.020 A 
HETATM   37  C   UNL     1      24.112  44.724  48.164  1.00  0.00     0.012 A 
ENDBRANCH   1  32
TORSDOF 6
ENDMDL
MODEL 2
REMARK VINA RESULT:      -8.1      3.202      8.776
REMARK  6 active torsions:
REMARK  status: ('A' for Active; 'I' for Inactive)
REMARK    1  A    between atoms: C_3  and  C_4 
REMARK    2  A    between atoms: C_4  and  N_5 
REMARK    3  A    between atoms: C_4  and  C_19 
REMARK    4  A    between atoms: N_9  and  C_10 
REMARK    5  A    between atoms: C_25  and  N_26 
REMARK       I    between atoms: N_26  and  C_27 
REMARK    6  A    between atoms: C_27  and  C_28 
ROOT
HETATM    1  C   UNL     1      22.432  48.084  48.498  1.00  0.00     0.259 C 
ENDROOT
BRANCH   1   2
HETATM    2  C   UNL     1      22.541  46.561  48.426  1.00  0.00     0.018 A 
HETATM    3  C   UNL     1      22.030  45.807  47.267  1.00  0.00    -0.038 A 
HETATM    4  C   UNL     1      21.505  46.411  45.993  1.00  0.00     0.050 C 
HETATM    5  C   UNL     1      22.067  44.438  47.480  1.00  0.00    -0.013 A 
HETATM    6  S   UNL     1      22.715  44.047  48.995  1.00  0.00    -0.076 SA
HETATM    7  C   UNL     1      21.620  43.332  46.572  1.00  0.00     0.057 C 
HETATM    8  C   UNL     1      23.030  45.669  49.383  1.00  0.00     0.086 A 
BRANCH   8   9
HETATM    9  N   UNL     1      23.793  45.899  50.518  1.00  0.00    -0.315 N 
HETATM   10  C   UNL     1      25.039  45.339  50.783  1.00  0.00     0.280 C 
HETATM   11  O   UNL     1      25.522  44.391  50.176  1.00  0.00    -0.265 OA
HETATM   12  H   UNL     1      23.456  46.505  51.252  1.00  0.00     0.170 HD
BRANCH  10  13
HETATM   13  C   UNL     1      25.628  45.878  51.992  1.00  0.00     0.142 A 
HETATM   14  O   UNL     1      26.512  45.100  52.700  1.00  0.00    -0.317 OA
HETATM   15  C   UNL     1      26.892  45.821  53.787  1.00  0.00     0.143 A 
HETATM   16  C   UNL     1      26.312  47.068  53.765  1.00  0.00     0.027 A 
HETATM   17  C   UNL     1      25.504  47.109  52.603  1.00  0.00     0.045 A 
ENDBRANCH  10  13
ENDBRANCH   8   9
ENDBRANCH   1   2
BRANCH   1  18
HETATM   18  N   UNL     1      21.375  48.663  49.487  1.00  0.00    -0.056 N 
HETATM   19  H   UNL     1      21.733  48.349  50.400  1.00  0.00     0.281 HD
HETATM   20  C   UNL     1      21.286  50.172  49.587  1.00  0.00     0.256 C 
HETATM   21  C   UNL     1      20.226  50.650  50.615  1.00  0.00     0.152 C 
HETATM   22  N   UNL     1      18.918  50.004  50.413  1.00  0.00    -0.364 N 
HETATM   23  C   UNL     1      18.990  48.527  50.377  1.00  0.00     0.152 C 
HETATM   24  C   UNL     1      19.992  48.030  49.309  1.00  0.00     0.256 C 
BRANCH  22  25
HETATM   25  C   UNL     1      17.913  50.697  49.767  1.00  0.00     0.102 A 
HETATM   26  N   UNL     1      17.104  50.020  48.929  1.00  0.00    -0.352 N 
HETATM   27  H   UNL     1      17.312  49.040  48.761  1.00  0.00     0.166 HD
HETATM   28  C   UNL     1      16.097  50.578  48.238  1.00  0.00     0.089 A 
HETATM   29  C   UNL     1      15.843  51.934  48.354  1.00  0.00     0.017 A 
HETATM   30  C   UNL     1      16.661  52.694  49.177  1.00  0.00     0.005 A 
HETATM   31  C   UNL     1      17.701  52.081  49.876  1.00  0.00     0.048 A 
ENDBRANCH  22  25
ENDBRANCH   1  18
BRANCH   1  32
HETATM   32  C   UNL     1      23.797  48.746  48.441  1.00  0.00    -0.005 A 
HETATM   33  C   UNL     1      24.141  49.828  47.640  1.00  0.00     0.125 A 
HETATM   34  N   UNL     1      25.386  50.341  47.525  1.00  0.00    -0.273 NA
HETATM   35  C   UNL     1      26.352  49.834  48.313  1.00  0.00     0.116 A 
HETATM   36  C   UNL     1      26.121  48.814  49.209  1.00  0.00     0.020 A 
HETATM   37  C   UNL     1      24.836  48.273  49.271  1.00  0.00     0.012 A 
ENDBRANCH   1  32
TORSDOF 6
ENDMDL
MODEL 3
REMARK VINA RESULT:      -7.8     11.449     13.943
REMARK  6 active torsions:
REMARK  status: ('A' for Active; 'I' for Inactive)
REMARK    1  A    between atoms: C_3  and  C_4 
REMARK    2  A    between atoms: C_4  and  N_5 
REMARK    3  A    between atoms: C_4  and  C_19 
REMARK    4  A    between atoms: N_9  and  C_10 
REMARK    5  A    between atoms: C_25  and  N_26 
REMARK       I    between atoms: N_26  and  C_27 
REMARK    6  A    between atoms: C_27  and  C_28 
ROOT
HETATM    1  C   UNL     1      25.828  49.301  39.426  1.00  0.00     0.259 C 
ENDROOT
BRANCH   1   2
HETATM    2  C   UNL     1      26.430  48.160  38.608  1.00  0.00     0.018 A 
HETATM    3  C   UNL     1      25.777  47.663  37.383  1.00  0.00    -0.038 A 
HETATM    4  C   UNL     1      24.577  48.284  36.718  1.00  0.00     0.050 C 
HETATM    5  C   UNL     1      26.386  46.518  36.896  1.00  0.00    -0.013 A 
HETATM    6  S   UNL     1      27.714  46.054  37.838  1.00  0.00    -0.076 SA
HETATM    7  C   UNL     1      26.019  45.692  35.699  1.00  0.00     0.057 C 
HETATM    8  C   UNL     1      27.564  47.391  38.874  1.00  0.00     0.086 A 
BRANCH   8   9
HETATM    9  N   UNL     1      28.603  47.602  39.767  1.00  0.00    -0.315 N 
HETATM   10  C   UNL     1      29.750  48.350  39.514  1.00  0.00     0.280 C 
HETATM   11  O   UNL     1      30.113  48.717  38.404  1.00  0.00    -0.265 OA
HETATM   12  H   UNL     1      28.582  47.192  40.690  1.00  0.00     0.170 HD
BRANCH  10  13
HETATM   13  C   UNL     1      30.581  48.482  40.693  1.00  0.00     0.142 A 
HETATM   14  O   UNL     1      31.941  48.338  40.564  1.00  0.00    -0.317 OA
HETATM   15  C   UNL     1      32.475  48.483  41.804  1.00  0.00     0.143 A 
HETATM   16  C   UNL     1      31.492  48.771  42.722  1.00  0.00     0.027 A 
HETATM   17  C   UNL     1      30.271  48.780  42.005  1.00  0.00     0.045 A 
ENDBRANCH  10  13
ENDBRANCH   8   9
ENDBRANCH   1   2
BRANCH   1  18
HETATM   18  N   UNL     1      26.654  50.623  39.495  1.00  0.00    -0.056 N 
HETATM   19  H   UNL     1      25.917  51.342  39.494  1.00  0.00     0.281 HD
HETATM   20  C   UNL     1      27.451  50.865  40.759  1.00  0.00     0.256 C 
HETATM   21  C   UNL     1      28.216  52.216  40.744  1.00  0.00     0.152 C 
HETATM   22  N   UNL     1      29.007  52.398  39.515  1.00  0.00    -0.364 N 
HETATM   23  C   UNL     1      28.218  52.223  38.277  1.00  0.00     0.152 C 
HETATM   24  C   UNL     1      27.504  50.853  38.243  1.00  0.00     0.256 C 
BRANCH  22  25
HETATM   25  C   UNL     1      30.369  52.170  39.547  1.00  0.00     0.102 A 
HETATM   26  N   UNL     1      30.969  51.721  38.427  1.00  0.00    -0.352 N 
HETATM   27  H   UNL     1      30.379  51.509  37.628  1.00  0.00     0.166 HD
HETATM   28  C   UNL     1      32.282  51.455  38.331  1.00  0.00     0.089 A 
HETATM   29  C   UNL     1      33.108  51.629  39.427  1.00  0.00     0.017 A 
HETATM   30  C   UNL     1      32.545  52.059  40.620  1.00  0.00     0.005 A 
HETATM   31  C   UNL     1      31.177  52.321  40.685  1.00  0.00     0.048 A 
ENDBRANCH  22  25
ENDBRANCH   1  18
BRANCH   1  32
HETATM   32  C   UNL     1      24.327  49.405  39.224  1.00  0.00    -0.005 A 
HETATM   33  C   UNL     1      23.671  50.405  38.518  1.00  0.00     0.125 A 
HETATM   34  N   UNL     1      22.328  50.539  38.433  1.00  0.00    -0.273 NA
HETATM   35  C   UNL     1      21.562  49.583  38.990  1.00  0.00     0.116 A 
HETATM   36  C   UNL     1      22.094  48.496  39.648  1.00  0.00     0.020 A 
HETATM   37  C   UNL     1      23.481  48.410  39.760  1.00  0.00     0.012 A 
ENDBRANCH   1  32
TORSDOF 6
ENDMDL
MODEL 4
REMARK VINA RESULT:      -7.5     19.181     22.268
REMARK  6 active torsions:
REMARK  status: ('A' for Active; 'I' for Inactive)
REMARK    1  A    between atoms: C_3  and  C_4 
REMARK    2  A    between atoms: C_4  and  N_5 
REMARK    3  A    between atoms: C_4  and  C_19 
REMARK    4  A    between atoms: N_9  and  C_10 
REMARK    5  A    between atoms: C_25  and  N_26 
REMARK       I    between atoms: N_26  and  C_27 
REMARK    6  A    between atoms: C_27  and  C_28 
ROOT
HETATM    1  C   UNL     1      38.085  46.377  66.320  1.00  0.00     0.259 C 
ENDROOT
BRANCH   1   2
HETATM    2  C   UNL     1      38.467  47.856  66.298  1.00  0.00     0.018 A 
HETATM    3  C   UNL     1      37.579  48.889  66.859  1.00  0.00    -0.038 A 
HETATM    4  C   UNL     1      36.314  48.629  67.633  1.00  0.00     0.050 C 
HETATM    5  C   UNL     1      38.028  50.170  66.580  1.00  0.00    -0.013 A 
HETATM    6  S   UNL     1      39.478  50.159  65.705  1.00  0.00    -0.076 SA
HETATM    7  C   UNL     1      37.408  51.486  66.943  1.00  0.00     0.057 C 
HETATM    8  C   UNL     1      39.589  48.465  65.731  1.00  0.00     0.086 A 
BRANCH   8   9
HETATM    9  N   UNL     1      40.782  47.915  65.288  1.00  0.00    -0.315 N 
HETATM   10  C   UNL     1      41.911  47.693  66.070  1.00  0.00     0.280 C 
HETATM   11  O   UNL     1      42.095  48.168  67.183  1.00  0.00    -0.265 OA
HETATM   12  H   UNL     1      40.898  47.646  64.321  1.00  0.00     0.170 HD
BRANCH  10  13
HETATM   13  C   UNL     1      42.946  46.989  65.339  1.00  0.00     0.142 A 
HETATM   14  O   UNL     1      42.633  46.433  64.122  1.00  0.00    -0.317 OA
HETATM   15  C   UNL     1      43.756  45.820  63.665  1.00  0.00     0.143 A 
HETATM   16  C   UNL     1      44.801  46.016  64.538  1.00  0.00     0.027 A 
HETATM   17  C   UNL     1      44.282  46.777  65.613  1.00  0.00     0.045 A 
ENDBRANCH  10  13
ENDBRANCH   8   9
ENDBRANCH   1   2
BRANCH   1  18
HETATM   18  N   UNL     1      38.313  45.576  65.002  1.00  0.00    -0.056 N 
HETATM   19  H   UNL     1      38.263  46.314  64.286  1.00  0.00     0.281 HD
HETATM   20  C   UNL     1      39.669  44.928  64.820  1.00  0.00     0.256 C 
HETATM   21  C   UNL     1      39.807  44.179  63.469  1.00  0.00     0.152 C 
HETATM   22  N   UNL     1      38.687  43.255  63.223  1.00  0.00    -0.364 N 
HETATM   23  C   UNL     1      37.359  43.897  63.337  1.00  0.00     0.152 C 
HETATM   24  C   UNL     1      37.177  44.592  64.707  1.00  0.00     0.256 C 
BRANCH  22  25
HETATM   25  C   UNL     1      38.861  41.904  63.448  1.00  0.00     0.102 A 
HETATM   26  N   UNL     1      39.351  41.145  62.446  1.00  0.00    -0.352 N 
HETATM   27  H   UNL     1      39.508  41.594  61.548  1.00  0.00     0.166 HD
HETATM   28  C   UNL     1      39.560  39.822  62.536  1.00  0.00     0.089 A 
HETATM   29  C   UNL     1      39.259  39.150  63.707  1.00  0.00     0.017 A 
HETATM   30  C   UNL     1      38.722  39.867  64.765  1.00  0.00     0.005 A 
HETATM   31  C   UNL     1      38.514  41.241  64.635  1.00  0.00     0.048 A 
ENDBRANCH  22  25
ENDBRANCH   1  18
BRANCH   1  32
HETATM   32  C   UNL     1      38.470  45.718  67.633  1.00  0.00    -0.005 A 
HETATM   33  C   UNL     1      39.726  45.760  68.224  1.00  0.00     0.125 A 
HETATM   34  N   UNL     1      40.079  45.084  69.341  1.00  0.00    -0.273 NA
HETATM   35  C   UNL     1      39.123  44.394  69.989  1.00  0.00     0.116 A 
HETATM   36  C   UNL     1      37.819  44.341  69.550  1.00  0.00     0.020 A 
HETATM   37  C   UNL     1      37.495  45.009  68.369  1.00  0.00     0.012 A 
ENDBRANCH   1  32
TORSDOF 6
ENDMDL
MODEL 5
REMARK VINA RESULT:      -7.4      6.430     11.327
REMARK  6 active torsions:
REMARK  status: ('A' for Active; 'I' for Inactive)
REMARK    1  A    between atoms: C_3  and  C_4 
REMARK    2  A    between atoms: C_4  and  N_5 
REMARK    3  A    between atoms: C_4  and  C_19 
REMARK    4  A    between atoms: N_9  and  C_10 
REMARK    5  A    between atoms: C_25  and  N_26 
REMARK       I    between atoms: N_26  and  C_27 
REMARK    6  A    between atoms: C_27  and  C_28 
ROOT
HETATM    1  C   UNL     1      19.148  50.702  47.871  1.00  0.00     0.259 C 
ENDROOT
BRANCH   1   2
HETATM    2  C   UNL     1      18.860  49.425  47.083  1.00  0.00     0.018 A 
HETATM    3  C   UNL     1      18.778  48.112  47.749  1.00  0.00    -0.038 A 
HETATM    4  C   UNL     1      18.806  47.882  49.236  1.00  0.00     0.050 C 
HETATM    5  C   UNL     1      18.686  47.072  46.839  1.00  0.00    -0.013 A 
HETATM    6  S   UNL     1      18.667  47.626  45.238  1.00  0.00    -0.076 SA
HETATM    7  C   UNL     1      18.611  45.597  47.099  1.00  0.00     0.057 C 
HETATM    8  C   UNL     1      18.708  49.258  45.706  1.00  0.00     0.086 A 
BRANCH   8   9
HETATM    9  N   UNL     1      18.496  50.194  44.705  1.00  0.00    -0.315 N 
HETATM   10  C   UNL     1      17.284  50.817  44.423  1.00  0.00     0.280 C 
HETATM   11  O   UNL     1      16.195  50.454  44.849  1.00  0.00    -0.265 OA
HETATM   12  H   UNL     1      19.249  50.474  44.092  1.00  0.00     0.170 HD
BRANCH  10  13
HETATM   13  C   UNL     1      17.425  51.836  43.402  1.00  0.00     0.142 A 
HETATM   14  O   UNL     1      16.922  53.092  43.648  1.00  0.00    -0.317 OA
HETATM   15  C   UNL     1      17.160  53.838  42.538  1.00  0.00     0.143 A 
HETATM   16  C   UNL     1      17.854  53.105  41.603  1.00  0.00     0.027 A 
HETATM   17  C   UNL     1      18.033  51.817  42.163  1.00  0.00     0.045 A 
ENDBRANCH  10  13
ENDBRANCH   8   9
ENDBRANCH   1   2
BRANCH   1  18
HETATM   18  N   UNL     1      17.995  51.243  48.771  1.00  0.00    -0.056 N 
HETATM   19  H   UNL     1      18.193  50.792  49.675  1.00  0.00     0.281 HD
HETATM   20  C   UNL     1      17.990  52.730  49.056  1.00  0.00     0.256 C 
HETATM   21  C   UNL     1      16.822  53.166  49.981  1.00  0.00     0.152 C 
HETATM   22  N   UNL     1      15.519  52.661  49.515  1.00  0.00    -0.364 N 
HETATM   23  C   UNL     1      15.501  51.198  49.294  1.00  0.00     0.152 C 
HETATM   24  C   UNL     1      16.616  50.754  48.320  1.00  0.00     0.256 C 
BRANCH  22  25
HETATM   25  C   UNL     1      14.669  53.509  48.834  1.00  0.00     0.102 A 
HETATM   26  N   UNL     1      14.876  53.700  47.515  1.00  0.00    -0.352 N 
HETATM   27  H   UNL     1      15.690  53.260  47.097  1.00  0.00     0.166 HD
HETATM   28  C   UNL     1      14.125  54.502  46.743  1.00  0.00     0.089 A 
HETATM   29  C   UNL     1      13.069  55.205  47.294  1.00  0.00     0.017 A 
HETATM   30  C   UNL     1      12.822  55.077  48.653  1.00  0.00     0.005 A 
HETATM   31  C   UNL     1      13.626  54.238  49.425  1.00  0.00     0.048 A 
ENDBRANCH  22  25
ENDBRANCH   1  18
BRANCH   1  32
HETATM   32  C   UNL     1      20.558  50.708  48.433  1.00  0.00    -0.005 A 
HETATM   33  C   UNL     1      20.897  50.846  49.773  1.00  0.00     0.125 A 
HETATM   34  N   UNL     1      22.159  50.951  50.246  1.00  0.00    -0.273 NA
HETATM   35  C   UNL     1      23.173  50.817  49.371  1.00  0.00     0.116 A 
HETATM   36  C   UNL     1      22.970  50.595  48.027  1.00  0.00     0.020 A 
HETATM   37  C   UNL     1      21.656  50.539  47.562  1.00  0.00     0.012 A 
ENDBRANCH   1  32
TORSDOF 6
ENDMDL
MODEL 6
REMARK VINA RESULT:      -7.4     13.065     17.144
REMARK  6 active torsions:
REMARK  status: ('A' for Active; 'I' for Inactive)
REMARK    1  A    between atoms: C_3  and  C_4 
REMARK    2  A    between atoms: C_4  and  N_5 
REMARK    3  A    between atoms: C_4  and  C_19 
REMARK    4  A    between atoms: N_9  and  C_10 
REMARK    5  A    between atoms: C_25  and  N_26 
REMARK       I    between atoms: N_26  and  C_27 
REMARK    6  A    between atoms: C_27  and  C_28 
ROOT
HETATM    1  C   UNL     1      36.654  52.988  42.872  1.00  0.00     0.259 C 
ENDROOT
BRANCH   1   2
HETATM    2  C   UNL     1      37.669  52.872  41.736  1.00  0.00     0.018 A 
HETATM    3  C   UNL     1      38.600  51.732  41.649  1.00  0.00    -0.038 A 
HETATM    4  C   UNL     1      38.573  50.511  42.529  1.00  0.00     0.050 C 
HETATM    5  C   UNL     1      39.548  51.909  40.653  1.00  0.00    -0.013 A 
HETATM    6  S   UNL     1      39.330  53.366  39.819  1.00  0.00    -0.076 SA
HETATM    7  C   UNL     1      40.679  51.007  40.259  1.00  0.00     0.057 C 
HETATM    8  C   UNL     1      37.938  53.771  40.702  1.00  0.00     0.086 A 
BRANCH   8   9
HETATM    9  N   UNL     1      37.207  54.857  40.244  1.00  0.00    -0.315 N 
HETATM   10  C   UNL     1      36.126  54.795  39.371  1.00  0.00     0.280 C 
HETATM   11  O   UNL     1      35.823  53.816  38.702  1.00  0.00    -0.265 OA
HETATM   12  H   UNL     1      37.447  55.797  40.528  1.00  0.00     0.170 HD
BRANCH  10  13
HETATM   13  C   UNL     1      35.503  56.091  39.189  1.00  0.00     0.142 A 
HETATM   14  O   UNL     1      34.421  56.420  39.970  1.00  0.00    -0.317 OA
HETATM   15  C   UNL     1      34.018  57.660  39.588  1.00  0.00     0.143 A 
HETATM   16  C   UNL     1      34.851  58.158  38.612  1.00  0.00     0.027 A 
HETATM   17  C   UNL     1      35.814  57.151  38.361  1.00  0.00     0.045 A 
ENDBRANCH  10  13
ENDBRANCH   8   9
ENDBRANCH   1   2
BRANCH   1  18
HETATM   18  N   UNL     1      35.467  51.977  42.854  1.00  0.00    -0.056 N 
HETATM   19  H   UNL     1      35.906  51.117  43.211  1.00  0.00     0.281 HD
HETATM   20  C   UNL     1      34.312  52.260  43.792  1.00  0.00     0.256 C 
HETATM   21  C   UNL     1      33.195  51.186  43.721  1.00  0.00     0.152 C 
HETATM   22  N   UNL     1      32.765  50.915  42.338  1.00  0.00    -0.364 N 
HETATM   23  C   UNL     1      33.883  50.576  41.430  1.00  0.00     0.152 C 
HETATM   24  C   UNL     1      34.975  51.670  41.437  1.00  0.00     0.256 C 
BRANCH  22  25
HETATM   25  C   UNL     1      31.596  51.480  41.870  1.00  0.00     0.102 A 
HETATM   26  N   UNL     1      31.616  52.773  41.490  1.00  0.00    -0.352 N 
HETATM   27  H   UNL     1      32.480  53.291  41.627  1.00  0.00     0.166 HD
HETATM   28  C   UNL     1      30.548  53.439  41.024  1.00  0.00     0.089 A 
HETATM   29  C   UNL     1      29.324  52.802  40.921  1.00  0.00     0.017 A 
HETATM   30  C   UNL     1      29.228  51.479  41.326  1.00  0.00     0.005 A 
HETATM   31  C   UNL     1      30.359  50.820  41.809  1.00  0.00     0.048 A 
ENDBRANCH  22  25
ENDBRANCH   1  18
BRANCH   1  32
HETATM   32  C   UNL     1      37.330  53.274  44.200  1.00  0.00    -0.005 A 
HETATM   33  C   UNL     1      37.577  52.345  45.203  1.00  0.00     0.125 A 
HETATM   34  N   UNL     1      38.087  52.636  46.420  1.00  0.00    -0.273 NA
HETATM   35  C   UNL     1      38.477  53.902  46.654  1.00  0.00     0.116 A 
HETATM   36  C   UNL     1      38.362  54.901  45.712  1.00  0.00     0.020 A 
HETATM   37  C   UNL     1      37.788  54.580  44.482  1.00  0.00     0.012 A 
ENDBRANCH   1  32
TORSDOF 6
ENDMDL
MODEL 7
REMARK VINA RESULT:      -7.3      6.647     10.337
REMARK  6 active torsions:
REMARK  status: ('A' for Active; 'I' for Inactive)
REMARK    1  A    between atoms: C_3  and  C_4 
REMARK    2  A    between atoms: C_4  and  N_5 
REMARK    3  A    between atoms: C_4  and  C_19 
REMARK    4  A    between atoms: N_9  and  C_10 
REMARK    5  A    between atoms: C_25  and  N_26 
REMARK       I    between atoms: N_26  and  C_27 
REMARK    6  A    between atoms: C_27  and  C_28 
ROOT
HETATM    1  C   UNL     1      16.758  51.114  46.977  1.00  0.00     0.259 C 
ENDROOT
BRANCH   1   2
HETATM    2  C   UNL     1      15.836  52.329  47.062  1.00  0.00     0.018 A 
HETATM    3  C   UNL     1      15.236  52.751  48.341  1.00  0.00    -0.038 A 
HETATM    4  C   UNL     1      15.557  52.171  49.692  1.00  0.00     0.050 C 
HETATM    5  C   UNL     1      14.300  53.759  48.169  1.00  0.00    -0.013 A 
HETATM    6  S   UNL     1      14.153  54.221  46.547  1.00  0.00    -0.076 SA
HETATM    7  C   UNL     1      13.452  54.442  49.200  1.00  0.00     0.057 C 
HETATM    8  C   UNL     1      15.370  53.152  46.036  1.00  0.00     0.086 A 
BRANCH   8   9
HETATM    9  N   UNL     1      15.804  53.289  44.726  1.00  0.00    -0.315 N 
HETATM   10  C   UNL     1      15.238  52.670  43.616  1.00  0.00     0.280 C 
HETATM   11  O   UNL     1      14.442  51.740  43.665  1.00  0.00    -0.265 OA
HETATM   12  H   UNL     1      16.604  53.866  44.505  1.00  0.00     0.170 HD
BRANCH  10  13
HETATM   13  C   UNL     1      15.844  53.118  42.379  1.00  0.00     0.142 A 
HETATM   14  O   UNL     1      15.088  53.857  41.502  1.00  0.00    -0.317 OA
HETATM   15  C   UNL     1      15.875  54.125  40.427  1.00  0.00     0.143 A 
HETATM   16  C   UNL     1      17.140  53.618  40.618  1.00  0.00     0.027 A 
HETATM   17  C   UNL     1      17.123  52.976  41.880  1.00  0.00     0.045 A 
ENDBRANCH  10  13
ENDBRANCH   8   9
ENDBRANCH   1   2
BRANCH   1  18
HETATM   18  N   UNL     1      17.718  50.878  48.183  1.00  0.00    -0.056 N 
HETATM   19  H   UNL     1      17.099  51.037  48.990  1.00  0.00     0.281 HD
HETATM   20  C   UNL     1      18.259  49.475  48.362  1.00  0.00     0.256 C 
HETATM   21  C   UNL     1      19.180  49.334  49.603  1.00  0.00     0.152 C 
HETATM   22  N   UNL     1      20.228  50.369  49.643  1.00  0.00    -0.364 N 
HETATM   23  C   UNL     1      19.699  51.746  49.531  1.00  0.00     0.152 C 
HETATM   24  C   UNL     1      18.833  51.923  48.263  1.00  0.00     0.256 C 
BRANCH  22  25
HETATM   25  C   UNL     1      21.511  50.050  49.245  1.00  0.00     0.102 A 
HETATM   26  N   UNL     1      22.014  48.852  49.605  1.00  0.00    -0.352 N 
HETATM   27  H   UNL     1      21.447  48.264  50.209  1.00  0.00     0.166 HD
HETATM   28  C   UNL     1      23.247  48.426  49.286  1.00  0.00     0.089 A 
HETATM   29  C   UNL     1      24.094  49.238  48.553  1.00  0.00     0.017 A 
HETATM   30  C   UNL     1      23.648  50.497  48.179  1.00  0.00     0.005 A 
HETATM   31  C   UNL     1      22.362  50.908  48.531  1.00  0.00     0.048 A 
ENDBRANCH  22  25
ENDBRANCH   1  18
BRANCH   1  32
HETATM   32  C   UNL     1      16.047  49.912  46.382  1.00  0.00    -0.005 A 
HETATM   33  C   UNL     1      14.948  49.265  46.933  1.00  0.00     0.125 A 
HETATM   34  N   UNL     1      14.390  48.135  46.444  1.00  0.00    -0.273 NA
HETATM   35  C   UNL     1      14.866  47.647  45.284  1.00  0.00     0.116 A 
HETATM   36  C   UNL     1      15.899  48.244  44.596  1.00  0.00     0.020 A 
HETATM   37  C   UNL     1      16.487  49.382  45.150  1.00  0.00     0.012 A 
ENDBRANCH   1  32
TORSDOF 6
ENDMDL
MODEL 8
REMARK VINA RESULT:      -7.3     12.983     17.389
REMARK  6 active torsions:
REMARK  status: ('A' for Active; 'I' for Inactive)
REMARK    1  A    between atoms: C_3  and  C_4 
REMARK    2  A    between atoms: C_4  and  N_5 
REMARK    3  A    between atoms: C_4  and  C_19 
REMARK    4  A    between atoms: N_9  and  C_10 
REMARK    5  A    between atoms: C_25  and  N_26 
REMARK       I    between atoms: N_26  and  C_27 
REMARK    6  A    between atoms: C_27  and  C_28 
ROOT
HETATM    1  C   UNL     1      36.593  52.781  42.391  1.00  0.00     0.259 C 
ENDROOT
BRANCH   1   2
HETATM    2  C   UNL     1      37.663  52.601  41.315  1.00  0.00     0.018 A 
HETATM    3  C   UNL     1      37.843  53.589  40.236  1.00  0.00    -0.038 A 
HETATM    4  C   UNL     1      37.143  54.919  40.141  1.00  0.00     0.050 C 
HETATM    5  C   UNL     1      38.738  53.152  39.273  1.00  0.00    -0.013 A 
HETATM    6  S   UNL     1      39.377  51.628  39.644  1.00  0.00    -0.076 SA
HETATM    7  C   UNL     1      39.176  53.837  38.013  1.00  0.00     0.057 C 
HETATM    8  C   UNL     1      38.542  51.534  41.119  1.00  0.00     0.086 A 
BRANCH   8   9
HETATM    9  N   UNL     1      38.894  50.494  41.966  1.00  0.00    -0.315 N 
HETATM   10  C   UNL     1      39.976  50.493  42.842  1.00  0.00     0.280 C 
HETATM   11  O   UNL     1      40.898  51.298  42.813  1.00  0.00    -0.265 OA
HETATM   12  H   UNL     1      38.361  49.636  41.979  1.00  0.00     0.170 HD
BRANCH  10  13
HETATM   13  C   UNL     1      39.995  49.309  43.676  1.00  0.00     0.142 A 
HETATM   14  O   UNL     1      38.816  48.871  44.230  1.00  0.00    -0.317 OA
HETATM   15  C   UNL     1      39.111  47.775  44.975  1.00  0.00     0.143 A 
HETATM   16  C   UNL     1      40.448  47.466  44.871  1.00  0.00     0.027 A 
HETATM   17  C   UNL     1      41.017  48.450  44.026  1.00  0.00     0.045 A 
ENDBRANCH  10  13
ENDBRANCH   8   9
ENDBRANCH   1   2
BRANCH   1  18
HETATM   18  N   UNL     1      35.371  51.814  42.330  1.00  0.00    -0.056 N 
HETATM   19  H   UNL     1      35.800  50.904  42.550  1.00  0.00     0.281 HD
HETATM   20  C   UNL     1      34.290  52.011  43.372  1.00  0.00     0.256 C 
HETATM   21  C   UNL     1      33.132  50.986  43.247  1.00  0.00     0.152 C 
HETATM   22  N   UNL     1      32.605  50.901  41.874  1.00  0.00    -0.364 N 
HETATM   23  C   UNL     1      33.649  50.647  40.858  1.00  0.00     0.152 C 
HETATM   24  C   UNL     1      34.779  51.700  40.923  1.00  0.00     0.256 C 
BRANCH  22  25
HETATM   25  C   UNL     1      31.429  51.553  41.559  1.00  0.00     0.102 A 
HETATM   26  N   UNL     1      30.262  50.948  41.855  1.00  0.00    -0.352 N 
HETATM   27  H   UNL     1      30.301  50.008  42.239  1.00  0.00     0.166 HD
HETATM   28  C   UNL     1      29.053  51.473  41.595  1.00  0.00     0.089 A 
HETATM   29  C   UNL     1      28.951  52.706  40.975  1.00  0.00     0.017 A 
HETATM   30  C   UNL     1      30.116  53.366  40.615  1.00  0.00     0.005 A 
HETATM   31  C   UNL     1      31.354  52.789  40.897  1.00  0.00     0.048 A 
ENDBRANCH  22  25
ENDBRANCH   1  18
BRANCH   1  32
HETATM   32  C   UNL     1      37.207  53.074  43.748  1.00  0.00    -0.005 A 
HETATM   33  C   UNL     1      37.452  52.140  44.746  1.00  0.00     0.125 A 
HETATM   34  N   UNL     1      37.905  52.433  45.986  1.00  0.00    -0.273 NA
HETATM   35  C   UNL     1      38.237  53.710  46.251  1.00  0.00     0.116 A 
HETATM   36  C   UNL     1      38.118  54.716  45.318  1.00  0.00     0.020 A 
HETATM   37  C   UNL     1      37.603  54.392  44.063  1.00  0.00     0.012 A 
ENDBRANCH   1  32
TORSDOF 6
ENDMDL
MODEL 9
REMARK VINA RESULT:      -7.2     10.145     12.716
REMARK  6 active torsions:
REMARK  status: ('A' for Active; 'I' for Inactive)
REMARK    1  A    between atoms: C_3  and  C_4 
REMARK    2  A    between atoms: C_4  and  N_5 
REMARK    3  A    between atoms: C_4  and  C_19 
REMARK    4  A    between atoms: N_9  and  C_10 
REMARK    5  A    between atoms: C_25  and  N_26 
REMARK       I    between atoms: N_26  and  C_27 
REMARK    6  A    between atoms: C_27  and  C_28 
ROOT
HETATM    1  C   UNL     1      28.203  46.565  39.073  1.00  0.00     0.259 C 
ENDROOT
BRANCH   1   2
HETATM    2  C   UNL     1      26.793  46.624  39.660  1.00  0.00     0.018 A 
HETATM    3  C   UNL     1      25.787  47.574  39.152  1.00  0.00    -0.038 A 
HETATM    4  C   UNL     1      25.949  48.458  37.945  1.00  0.00     0.050 C 
HETATM    5  C   UNL     1      24.642  47.587  39.933  1.00  0.00    -0.013 A 
HETATM    6  S   UNL     1      24.735  46.486  41.216  1.00  0.00    -0.076 SA
HETATM    7  C   UNL     1      23.406  48.421  39.778  1.00  0.00     0.057 C 
HETATM    8  C   UNL     1      26.259  45.912  40.735  1.00  0.00     0.086 A 
BRANCH   8   9
HETATM    9  N   UNL     1      26.729  44.782  41.387  1.00  0.00    -0.315 N 
HETATM   10  C   UNL     1      26.680  43.482  40.892  1.00  0.00     0.280 C 
HETATM   11  O   UNL     1      26.006  43.125  39.935  1.00  0.00    -0.265 OA
HETATM   12  H   UNL     1      27.141  44.851  42.307  1.00  0.00     0.170 HD
BRANCH  10  13
HETATM   13  C   UNL     1      27.369  42.547  41.759  1.00  0.00     0.142 A 
HETATM   14  O   UNL     1      28.577  42.036  41.352  1.00  0.00    -0.317 OA
HETATM   15  C   UNL     1      28.991  41.178  42.321  1.00  0.00     0.143 A 
HETATM   16  C   UNL     1      28.100  41.168  43.369  1.00  0.00     0.027 A 
HETATM   17  C   UNL     1      27.058  42.057  43.011  1.00  0.00     0.045 A 
ENDBRANCH  10  13
ENDBRANCH   8   9
ENDBRANCH   1   2
BRANCH   1  18
HETATM   18  N   UNL     1      29.345  47.187  39.933  1.00  0.00    -0.056 N 
HETATM   19  H   UNL     1      29.779  46.355  40.356  1.00  0.00     0.281 HD
HETATM   20  C   UNL     1      30.461  47.887  39.186  1.00  0.00     0.256 C 
HETATM   21  C   UNL     1      31.561  48.448  40.125  1.00  0.00     0.152 C 
HETATM   22  N   UNL     1      31.003  49.256  41.223  1.00  0.00    -0.364 N 
HETATM   23  C   UNL     1      29.956  48.554  41.996  1.00  0.00     0.152 C 
HETATM   24  C   UNL     1      28.815  48.047  41.084  1.00  0.00     0.256 C 
BRANCH  22  25
HETATM   25  C   UNL     1      31.040  50.633  41.136  1.00  0.00     0.102 A 
HETATM   26  N   UNL     1      30.202  51.347  41.914  1.00  0.00    -0.352 N 
HETATM   27  H   UNL     1      29.534  50.835  42.483  1.00  0.00     0.166 HD
HETATM   28  C   UNL     1      30.136  52.689  41.919  1.00  0.00     0.089 A 
HETATM   29  C   UNL     1      30.954  53.426  41.082  1.00  0.00     0.017 A 
HETATM   30  C   UNL     1      31.817  52.750  40.232  1.00  0.00     0.005 A 
HETATM   31  C   UNL     1      31.855  51.356  40.251  1.00  0.00     0.048 A 
ENDBRANCH  22  25
ENDBRANCH   1  18
BRANCH   1  32
HETATM   32  C   UNL     1      28.467  45.239  38.383  1.00  0.00    -0.005 A 
HETATM   33  C   UNL     1      29.443  44.317  38.743  1.00  0.00     0.125 A 
HETATM   34  N   UNL     1      29.732  43.189  38.057  1.00  0.00    -0.273 NA
HETATM   35  C   UNL     1      28.959  42.877  37.000  1.00  0.00     0.116 A 
HETATM   36  C   UNL     1      27.907  43.667  36.592  1.00  0.00     0.020 A 
HETATM   37  C   UNL     1      27.663  44.849  37.290  1.00  0.00     0.012 A 
ENDBRANCH   1  32
TORSDOF 6
ENDMDL
MODEL 10
REMARK VINA RESULT:      -7.2      8.451     12.027
REMARK  6 active torsions:
REMARK  status: ('A' for Active; 'I' for Inactive)
REMARK    1  A    between atoms: C_3  and  C_4 
REMARK    2  A    between atoms: C_4  and  N_5 
REMARK    3  A    between atoms: C_4  and  C_19 
REMARK    4  A    between atoms: N_9  and  C_10 
REMARK    5  A    between atoms: C_25  and  N_26 
REMARK       I    between atoms: N_26  and  C_27 
REMARK    6  A    between atoms: C_27  and  C_28 
ROOT
HETATM    1  C   UNL     1      15.874  51.178  47.863  1.00  0.00     0.259 C 
ENDROOT
BRANCH   1   2
HETATM    2  C   UNL     1      15.215  52.556  47.802  1.00  0.00     0.018 A 
HETATM    3  C   UNL     1      14.589  53.162  48.990  1.00  0.00    -0.038 A 
HETATM    4  C   UNL     1      14.648  52.610  50.389  1.00  0.00     0.050 C 
HETATM    5  C   UNL     1      13.900  54.324  48.680  1.00  0.00    -0.013 A 
HETATM    6  S   UNL     1      14.013  54.711  47.035  1.00  0.00    -0.076 SA
HETATM    7  C   UNL     1      13.111  55.222  49.586  1.00  0.00     0.057 C 
HETATM    8  C   UNL     1      15.031  53.394  46.701  1.00  0.00     0.086 A 
BRANCH   8   9
HETATM    9  N   UNL     1      15.613  53.364  45.442  1.00  0.00    -0.315 N 
HETATM   10  C   UNL     1      15.100  52.707  44.328  1.00  0.00     0.280 C 
HETATM   11  O   UNL     1      14.204  51.873  44.360  1.00  0.00    -0.265 OA
HETATM   12  H   UNL     1      16.491  53.833  45.269  1.00  0.00     0.170 HD
BRANCH  10  13
HETATM   13  C   UNL     1      15.879  52.975  43.136  1.00  0.00     0.142 A 
HETATM   14  O   UNL     1      15.306  52.751  41.907  1.00  0.00    -0.317 OA
HETATM   15  C   UNL     1      16.243  53.053  40.971  1.00  0.00     0.143 A 
HETATM   16  C   UNL     1      17.390  53.518  41.571  1.00  0.00     0.027 A 
HETATM   17  C   UNL     1      17.153  53.476  42.966  1.00  0.00     0.045 A 
ENDBRANCH  10  13
ENDBRANCH   8   9
ENDBRANCH   1   2
BRANCH   1  18
HETATM   18  N   UNL     1      15.655  50.244  46.634  1.00  0.00    -0.056 N 
HETATM   19  H   UNL     1      15.056  50.819  46.025  1.00  0.00     0.281 HD
HETATM   20  C   UNL     1      16.875  49.911  45.801  1.00  0.00     0.256 C 
HETATM   21  C   UNL     1      16.551  48.999  44.588  1.00  0.00     0.152 C 
HETATM   22  N   UNL     1      15.770  47.811  44.972  1.00  0.00    -0.364 N 
HETATM   23  C   UNL     1      14.543  48.134  45.733  1.00  0.00     0.152 C 
HETATM   24  C   UNL     1      14.855  48.986  46.985  1.00  0.00     0.256 C 
BRANCH  22  25
HETATM   25  C   UNL     1      16.411  46.596  45.111  1.00  0.00     0.102 A 
HETATM   26  N   UNL     1      16.904  46.265  46.321  1.00  0.00    -0.352 N 
HETATM   27  H   UNL     1      16.837  46.957  47.063  1.00  0.00     0.166 HD
HETATM   28  C   UNL     1      17.551  45.119  46.585  1.00  0.00     0.089 A 
HETATM   29  C   UNL     1      17.758  44.192  45.578  1.00  0.00     0.017 A 
HETATM   30  C   UNL     1      17.304  44.486  44.301  1.00  0.00     0.005 A 
HETATM   31  C   UNL     1      16.639  45.690  44.063  1.00  0.00     0.048 A 
ENDBRANCH  22  25
ENDBRANCH   1  18
BRANCH   1  32
HETATM   32  C   UNL     1      17.263  51.248  48.470  1.00  0.00    -0.005 A 
HETATM   33  C   UNL     1      17.749  50.428  49.481  1.00  0.00     0.125 A 
HETATM   34  N   UNL     1      18.953  50.569  50.081  1.00  0.00    -0.273 NA
HETATM   35  C   UNL     1      19.788  51.511  49.606  1.00  0.00     0.116 A 
HETATM   36  C   UNL     1      19.456  52.335  48.553  1.00  0.00     0.020 A 
HETATM   37  C   UNL     1      18.189  52.197  47.985  1.00  0.00     0.012 A 
ENDBRANCH   1  32
TORSDOF 6
ENDMDL
