MODEL 1
REMARK VINA RESULT:      -9.6      0.000      0.000
REMARK  3 active torsions:
REMARK  status: ('A' for Active; 'I' for Inactive)
REMARK    1  A    between atoms: O_2  and  C_3 
REMARK    2  A    between atoms: C_4  and  N_5 
REMARK       I    between atoms: N_5  and  C_6 
REMARK       I    between atoms: C_6  and  N_7 
REMARK    3  A    between atoms: C_10  and  C_11 
ROOT
HETATM    1  N   UNL     1      27.349  40.087  50.257  1.00  0.00    -0.306 N 
HETATM    2  C   UNL     1      27.513  41.446  50.115  1.00  0.00     0.323 C 
HETATM    3  N   UNL     1      27.687  42.127  51.328  1.00  0.00    -0.330 N 
HETATM    4  C   UNL     1      27.707  43.573  51.182  1.00  0.00     0.155 C 
HETATM    5  C   UNL     1      27.988  44.295  52.460  1.00  0.00     0.001 C 
HETATM    6  C   UNL     1      28.369  43.731  53.623  1.00  0.00    -0.046 C 
HETATM    7  C   UNL     1      28.483  42.231  53.700  1.00  0.00     0.059 C 
HETATM    8  C   UNL     1      28.601  41.567  52.324  1.00  0.00     0.132 C 
HETATM    9  O   UNL     1      27.472  42.025  49.033  1.00  0.00    -0.247 OA
HETATM   10  H   UNL     1      26.723  39.820  51.008  1.00  0.00     0.171 HD
ENDROOT
BRANCH   1  11
HETATM   11  C   UNL     1      27.428  39.180  49.178  1.00  0.00     0.071 A 
HETATM   12  C   UNL     1      28.630  38.498  48.946  1.00  0.00     0.095 A 
HETATM   13  C   UNL     1      28.767  37.653  47.842  1.00  0.00     0.041 A 
HETATM   14  C   UNL     1      27.689  37.469  46.976  1.00  0.00     0.026 A 
HETATM   15  C   UNL     1      26.485  38.132  47.216  1.00  0.00     0.036 A 
HETATM   16  C   UNL     1      26.349  38.984  48.312  1.00  0.00     0.056 A 
HETATM   17 CL   UNL     1      25.166  37.917  46.131  1.00  0.00    -0.084 Cl
BRANCH  12  18
HETATM   18  O   UNL     1      29.669  38.674  49.828  1.00  0.00    -0.354 OA
HETATM   19  C   UNL     1      29.813  37.520  50.661  1.00  0.00     0.210 C 
ENDBRANCH  12  18
ENDBRANCH   1  11
BRANCH   6  20
HETATM   20  C   UNL     1      28.758  44.487  54.790  1.00  0.00    -0.002 A 
HETATM   21  C   UNL     1      29.806  44.261  55.753  1.00  0.00     0.003 A 
HETATM   22  C   UNL     1      29.784  45.337  56.649  1.00  0.00     0.043 A 
HETATM   23  C   UNL     1      30.785  43.263  55.971  1.00  0.00     0.014 A 
HETATM   24  C   UNL     1      30.684  45.475  57.713  1.00  0.00     0.030 A 
HETATM   25  N   UNL     1      28.756  46.164  56.270  1.00  0.00    -0.364 N 
HETATM   26  C   UNL     1      31.649  44.482  57.883  1.00  0.00     0.002 A 
HETATM   27  C   UNL     1      31.699  43.388  57.027  1.00  0.00     0.001 A 
HETATM   28  H   UNL     1      28.506  47.021  56.743  1.00  0.00     0.165 HD
HETATM   29  C   UNL     1      28.141  45.671  55.155  1.00  0.00     0.101 A 
ENDBRANCH   6  20
TORSDOF 3
ENDMDL
MODEL 2
REMARK VINA RESULT:      -9.3      5.169      6.731
REMARK  3 active torsions:
REMARK  status: ('A' for Active; 'I' for Inactive)
REMARK    1  A    between atoms: O_2  and  C_3 
REMARK    2  A    between atoms: C_4  and  N_5 
REMARK       I    between atoms: N_5  and  C_6 
REMARK       I    between atoms: C_6  and  N_7 
REMARK    3  A    between atoms: C_10  and  C_11 
ROOT
HETATM    1  N   UNL     1      24.606  46.455  50.252  1.00  0.00    -0.306 N 
HETATM    2  C   UNL     1      24.599  45.397  51.134  1.00  0.00     0.323 C 
HETATM    3  N   UNL     1      25.604  45.464  52.109  1.00  0.00    -0.330 N 
HETATM    4  C   UNL     1      25.685  44.272  52.938  1.00  0.00     0.155 C 
HETATM    5  C   UNL     1      26.691  44.382  54.038  1.00  0.00     0.001 C 
HETATM    6  C   UNL     1      27.359  45.496  54.394  1.00  0.00    -0.046 C 
HETATM    7  C   UNL     1      27.141  46.759  53.602  1.00  0.00     0.059 C 
HETATM    8  C   UNL     1      25.844  46.738  52.785  1.00  0.00     0.132 C 
HETATM    9  O   UNL     1      23.814  44.456  51.058  1.00  0.00    -0.247 OA
HETATM   10  H   UNL     1      25.529  46.712  49.921  1.00  0.00     0.171 HD
ENDROOT
BRANCH   1  11
HETATM   11  C   UNL     1      23.541  46.735  49.370  1.00  0.00     0.071 A 
HETATM   12  C   UNL     1      23.191  48.070  49.125  1.00  0.00     0.095 A 
HETATM   13  C   UNL     1      22.094  48.383  48.319  1.00  0.00     0.041 A 
HETATM   14  C   UNL     1      21.353  47.355  47.735  1.00  0.00     0.026 A 
HETATM   15  C   UNL     1      21.710  46.026  47.963  1.00  0.00     0.036 A 
HETATM   16  C   UNL     1      22.800  45.711  48.775  1.00  0.00     0.056 A 
HETATM   17 CL   UNL     1      20.778  44.762  47.256  1.00  0.00    -0.084 Cl
BRANCH  12  18
HETATM   18  O   UNL     1      23.953  49.065  49.688  1.00  0.00    -0.354 OA
HETATM   19  C   UNL     1      24.603  49.830  48.669  1.00  0.00     0.210 C 
ENDBRANCH  12  18
ENDBRANCH   1  11
BRANCH   6  20
HETATM   20  C   UNL     1      28.220  45.578  55.550  1.00  0.00    -0.002 A 
HETATM   21  C   UNL     1      29.380  44.806  55.919  1.00  0.00     0.003 A 
HETATM   22  C   UNL     1      29.875  45.346  57.112  1.00  0.00     0.043 A 
HETATM   23  C   UNL     1      30.080  43.705  55.373  1.00  0.00     0.014 A 
HETATM   24  C   UNL     1      31.020  44.867  57.761  1.00  0.00     0.030 A 
HETATM   25  N   UNL     1      29.042  46.377  57.471  1.00  0.00    -0.364 N 
HETATM   26  C   UNL     1      31.696  43.794  57.181  1.00  0.00     0.002 A 
HETATM   27  C   UNL     1      31.233  43.216  56.005  1.00  0.00     0.001 A 
HETATM   28  H   UNL     1      29.159  46.946  58.297  1.00  0.00     0.165 HD
HETATM   29  C   UNL     1      28.055  46.530  56.540  1.00  0.00     0.101 A 
ENDBRANCH   6  20
TORSDOF 3
ENDMDL
MODEL 3
REMARK VINA RESULT:      -9.3      1.582      2.621
REMARK  3 active torsions:
REMARK  status: ('A' for Active; 'I' for Inactive)
REMARK    1  A    between atoms: O_2  and  C_3 
REMARK    2  A    between atoms: C_4  and  N_5 
REMARK       I    between atoms: N_5  and  C_6 
REMARK       I    between atoms: C_6  and  N_7 
REMARK    3  A    between atoms: C_10  and  C_11 
ROOT
HETATM    1  N   UNL     1      27.677  41.351  49.169  1.00  0.00    -0.306 N 
HETATM    2  C   UNL     1      28.094  40.797  50.358  1.00  0.00     0.323 C 
HETATM    3  N   UNL     1      28.420  41.741  51.342  1.00  0.00    -0.330 N 
HETATM    4  C   UNL     1      29.002  41.153  52.538  1.00  0.00     0.155 C 
HETATM    5  C   UNL     1      29.260  42.148  53.622  1.00  0.00     0.001 C 
HETATM    6  C   UNL     1      28.861  43.434  53.631  1.00  0.00    -0.046 C 
HETATM    7  C   UNL     1      28.127  43.976  52.432  1.00  0.00     0.059 C 
HETATM    8  C   UNL     1      27.522  42.877  51.552  1.00  0.00     0.132 C 
HETATM    9  O   UNL     1      28.210  39.588  50.540  1.00  0.00    -0.247 OA
HETATM   10  H   UNL     1      28.236  42.138  48.860  1.00  0.00     0.171 HD
ENDROOT
BRANCH   1  11
HETATM   11  C   UNL     1      27.050  40.609  48.146  1.00  0.00     0.071 A 
HETATM   12  C   UNL     1      25.658  40.448  48.175  1.00  0.00     0.095 A 
HETATM   13  C   UNL     1      25.012  39.656  47.223  1.00  0.00     0.041 A 
HETATM   14  C   UNL     1      25.759  39.037  46.220  1.00  0.00     0.026 A 
HETATM   15  C   UNL     1      27.143  39.211  46.178  1.00  0.00     0.036 A 
HETATM   16  C   UNL     1      27.791  39.994  47.133  1.00  0.00     0.056 A 
HETATM   17 CL   UNL     1      28.061  38.427  44.950  1.00  0.00    -0.084 Cl
BRANCH  12  18
HETATM   18  O   UNL     1      24.940  41.089  49.155  1.00  0.00    -0.354 OA
HETATM   19  C   UNL     1      24.004  42.000  48.571  1.00  0.00     0.210 C 
ENDBRANCH  12  18
ENDBRANCH   1  11
BRANCH   6  20
HETATM   20  C   UNL     1      29.022  44.315  54.764  1.00  0.00    -0.002 A 
HETATM   21  C   UNL     1      29.960  44.282  55.859  1.00  0.00     0.003 A 
HETATM   22  C   UNL     1      29.716  45.413  56.647  1.00  0.00     0.043 A 
HETATM   23  C   UNL     1      31.001  43.420  56.275  1.00  0.00     0.014 A 
HETATM   24  C   UNL     1      30.457  45.731  57.792  1.00  0.00     0.030 A 
HETATM   25  N   UNL     1      28.663  46.088  56.080  1.00  0.00    -0.364 N 
HETATM   26  C   UNL     1      31.491  44.869  58.159  1.00  0.00     0.002 A 
HETATM   27  C   UNL     1      31.759  43.726  57.415  1.00  0.00     0.001 A 
HETATM   28  H   UNL     1      28.270  46.944  56.444  1.00  0.00     0.165 HD
HETATM   29  C   UNL     1      28.247  45.446  54.950  1.00  0.00     0.101 A 
ENDBRANCH   6  20
TORSDOF 3
ENDMDL
MODEL 4
REMARK VINA RESULT:      -9.3      2.022      2.610
REMARK  3 active torsions:
REMARK  status: ('A' for Active; 'I' for Inactive)
REMARK    1  A    between atoms: O_2  and  C_3 
REMARK    2  A    between atoms: C_4  and  N_5 
REMARK       I    between atoms: N_5  and  C_6 
REMARK       I    between atoms: C_6  and  N_7 
REMARK    3  A    between atoms: C_10  and  C_11 
ROOT
HETATM    1  N   UNL     1      26.904  41.971  49.109  1.00  0.00    -0.306 N 
HETATM    2  C   UNL     1      27.452  41.320  50.191  1.00  0.00     0.323 C 
HETATM    3  N   UNL     1      27.909  42.180  51.200  1.00  0.00    -0.330 N 
HETATM    4  C   UNL     1      28.622  41.494  52.265  1.00  0.00     0.155 C 
HETATM    5  C   UNL     1      29.024  42.396  53.386  1.00  0.00     0.001 C 
HETATM    6  C   UNL     1      28.648  43.679  53.546  1.00  0.00    -0.046 C 
HETATM    7  C   UNL     1      27.784  44.321  52.492  1.00  0.00     0.059 C 
HETATM    8  C   UNL     1      27.061  43.299  51.607  1.00  0.00     0.132 C 
HETATM    9  O   UNL     1      27.571  40.100  50.259  1.00  0.00    -0.247 OA
HETATM   10  H   UNL     1      27.434  42.777  48.797  1.00  0.00     0.171 HD
ENDROOT
BRANCH   1  11
HETATM   11  C   UNL     1      26.147  41.317  48.113  1.00  0.00     0.071 A 
HETATM   12  C   UNL     1      26.766  40.962  46.907  1.00  0.00     0.095 A 
HETATM   13  C   UNL     1      26.029  40.384  45.871  1.00  0.00     0.041 A 
HETATM   14  C   UNL     1      24.667  40.138  46.048  1.00  0.00     0.026 A 
HETATM   15  C   UNL     1      24.052  40.474  47.255  1.00  0.00     0.036 A 
HETATM   16  C   UNL     1      24.784  41.059  48.287  1.00  0.00     0.056 A 
HETATM   17 CL   UNL     1      22.367  40.186  47.458  1.00  0.00    -0.084 Cl
BRANCH  12  18
HETATM   18  O   UNL     1      28.114  41.189  46.767  1.00  0.00    -0.354 OA
HETATM   19  C   UNL     1      28.516  40.969  45.411  1.00  0.00     0.210 C 
ENDBRANCH  12  18
ENDBRANCH   1  11
BRANCH   6  20
HETATM   20  C   UNL     1      28.958  44.465  54.718  1.00  0.00    -0.002 A 
HETATM   21  C   UNL     1      29.936  44.262  55.757  1.00  0.00     0.003 A 
HETATM   22  C   UNL     1      29.856  45.360  56.621  1.00  0.00     0.043 A 
HETATM   23  C   UNL     1      30.895  43.269  56.067  1.00  0.00     0.014 A 
HETATM   24  C   UNL     1      30.680  45.524  57.741  1.00  0.00     0.030 A 
HETATM   25  N   UNL     1      28.858  46.178  56.152  1.00  0.00    -0.364 N 
HETATM   26  C   UNL     1      31.628  44.535  58.003  1.00  0.00     0.002 A 
HETATM   27  C   UNL     1      31.734  43.420  57.180  1.00  0.00     0.001 A 
HETATM   28  H   UNL     1      28.578  47.047  56.584  1.00  0.00     0.165 HD
HETATM   29  C   UNL     1      28.321  45.657  55.009  1.00  0.00     0.101 A 
ENDBRANCH   6  20
TORSDOF 3
ENDMDL
MODEL 5
REMARK VINA RESULT:      -9.2      6.925      9.069
REMARK  3 active torsions:
REMARK  status: ('A' for Active; 'I' for Inactive)
REMARK    1  A    between atoms: O_2  and  C_3 
REMARK    2  A    between atoms: C_4  and  N_5 
REMARK       I    between atoms: N_5  and  C_6 
REMARK       I    between atoms: C_6  and  N_7 
REMARK    3  A    between atoms: C_10  and  C_11 
ROOT
HETATM    1  N   UNL     1      22.153  48.063  49.569  1.00  0.00    -0.306 N 
HETATM    2  C   UNL     1      23.504  48.221  49.364  1.00  0.00     0.323 C 
HETATM    3  N   UNL     1      24.294  47.267  50.020  1.00  0.00    -0.330 N 
HETATM    4  C   UNL     1      25.721  47.531  49.923  1.00  0.00     0.155 C 
HETATM    5  C   UNL     1      26.564  46.463  50.540  1.00  0.00     0.001 C 
HETATM    6  C   UNL     1      26.131  45.272  50.995  1.00  0.00    -0.046 C 
HETATM    7  C   UNL     1      24.656  44.968  50.945  1.00  0.00     0.059 C 
HETATM    8  C   UNL     1      23.893  45.862  49.961  1.00  0.00     0.132 C 
HETATM    9  O   UNL     1      23.988  49.135  48.701  1.00  0.00    -0.247 OA
HETATM   10  H   UNL     1      21.899  47.863  50.529  1.00  0.00     0.171 HD
ENDROOT
BRANCH   1  11
HETATM   11  C   UNL     1      21.170  48.728  48.804  1.00  0.00     0.071 A 
HETATM   12  C   UNL     1      20.520  48.033  47.775  1.00  0.00     0.095 A 
HETATM   13  C   UNL     1      19.599  48.681  46.949  1.00  0.00     0.041 A 
HETATM   14  C   UNL     1      19.307  50.028  47.165  1.00  0.00     0.026 A 
HETATM   15  C   UNL     1      19.939  50.717  48.201  1.00  0.00     0.036 A 
HETATM   16  C   UNL     1      20.866  50.075  49.021  1.00  0.00     0.056 A 
HETATM   17 CL   UNL     1      19.591  52.385  48.449  1.00  0.00    -0.084 Cl
BRANCH  12  18
HETATM   18  O   UNL     1      20.803  46.700  47.599  1.00  0.00    -0.354 OA
HETATM   19  C   UNL     1      19.703  45.897  48.037  1.00  0.00     0.210 C 
ENDBRANCH  12  18
ENDBRANCH   1  11
BRANCH   6  20
HETATM   20  C   UNL     1      27.009  44.224  51.459  1.00  0.00    -0.002 A 
HETATM   21  C   UNL     1      27.795  44.116  52.662  1.00  0.00     0.003 A 
HETATM   22  C   UNL     1      28.414  42.860  52.641  1.00  0.00     0.043 A 
HETATM   23  C   UNL     1      28.052  44.940  53.783  1.00  0.00     0.014 A 
HETATM   24  C   UNL     1      29.241  42.389  53.668  1.00  0.00     0.030 A 
HETATM   25  N   UNL     1      28.049  42.244  51.469  1.00  0.00    -0.364 N 
HETATM   26  C   UNL     1      29.455  43.221  54.766  1.00  0.00     0.002 A 
HETATM   27  C   UNL     1      28.872  44.482  54.824  1.00  0.00     0.001 A 
HETATM   28  H   UNL     1      28.354  41.323  51.187  1.00  0.00     0.165 HD
HETATM   29  C   UNL     1      27.202  43.046  50.759  1.00  0.00     0.101 A 
ENDBRANCH   6  20
TORSDOF 3
ENDMDL
MODEL 6
REMARK VINA RESULT:      -9.1      4.453      5.485
REMARK  3 active torsions:
REMARK  status: ('A' for Active; 'I' for Inactive)
REMARK    1  A    between atoms: O_2  and  C_3 
REMARK    2  A    between atoms: C_4  and  N_5 
REMARK       I    between atoms: N_5  and  C_6 
REMARK       I    between atoms: C_6  and  N_7 
REMARK    3  A    between atoms: C_10  and  C_11 
ROOT
HETATM    1  N   UNL     1      23.044  44.640  50.027  1.00  0.00    -0.306 N 
HETATM    2  C   UNL     1      23.912  45.705  50.116  1.00  0.00     0.323 C 
HETATM    3  N   UNL     1      24.683  45.713  51.286  1.00  0.00    -0.330 N 
HETATM    4  C   UNL     1      25.484  46.917  51.443  1.00  0.00     0.155 C 
HETATM    5  C   UNL     1      26.377  46.883  52.640  1.00  0.00     0.001 C 
HETATM    6  C   UNL     1      26.602  45.818  53.433  1.00  0.00    -0.046 C 
HETATM    7  C   UNL     1      25.864  44.534  53.154  1.00  0.00     0.059 C 
HETATM    8  C   UNL     1      25.303  44.464  51.729  1.00  0.00     0.132 C 
HETATM    9  O   UNL     1      23.984  46.593  49.271  1.00  0.00    -0.247 OA
HETATM   10  H   UNL     1      22.547  44.437  50.886  1.00  0.00     0.171 HD
ENDROOT
BRANCH   1  11
HETATM   11  C   UNL     1      22.376  44.282  48.836  1.00  0.00     0.071 A 
HETATM   12  C   UNL     1      22.994  43.392  47.947  1.00  0.00     0.095 A 
HETATM   13  C   UNL     1      22.396  43.077  46.725  1.00  0.00     0.041 A 
HETATM   14  C   UNL     1      21.161  43.637  46.396  1.00  0.00     0.026 A 
HETATM   15  C   UNL     1      20.535  44.508  47.288  1.00  0.00     0.036 A 
HETATM   16  C   UNL     1      21.134  44.832  48.505  1.00  0.00     0.056 A 
HETATM   17 CL   UNL     1      19.021  45.212  46.867  1.00  0.00    -0.084 Cl
BRANCH  12  18
HETATM   18  O   UNL     1      24.196  42.832  48.305  1.00  0.00    -0.354 OA
HETATM   19  C   UNL     1      24.023  41.449  48.629  1.00  0.00     0.210 C 
ENDBRANCH  12  18
ENDBRANCH   1  11
BRANCH   6  20
HETATM   20  C   UNL     1      27.578  45.803  54.498  1.00  0.00    -0.002 A 
HETATM   21  C   UNL     1      28.679  44.909  54.754  1.00  0.00     0.003 A 
HETATM   22  C   UNL     1      29.346  45.389  55.888  1.00  0.00     0.043 A 
HETATM   23  C   UNL     1      29.199  43.741  54.149  1.00  0.00     0.014 A 
HETATM   24  C   UNL     1      30.492  44.787  56.422  1.00  0.00     0.030 A 
HETATM   25  N   UNL     1      28.669  46.503  56.320  1.00  0.00    -0.364 N 
HETATM   26  C   UNL     1      30.988  43.649  55.786  1.00  0.00     0.002 A 
HETATM   27  C   UNL     1      30.350  43.129  54.666  1.00  0.00     0.001 A 
HETATM   28  H   UNL     1      28.929  47.054  57.126  1.00  0.00     0.165 HD
HETATM   29  C   UNL     1      27.616  46.765  55.491  1.00  0.00     0.101 A 
ENDBRANCH   6  20
TORSDOF 3
ENDMDL
MODEL 7
REMARK VINA RESULT:      -9.1      5.512      7.464
REMARK  3 active torsions:
REMARK  status: ('A' for Active; 'I' for Inactive)
REMARK    1  A    between atoms: O_2  and  C_3 
REMARK    2  A    between atoms: C_4  and  N_5 
REMARK       I    between atoms: N_5  and  C_6 
REMARK       I    between atoms: C_6  and  N_7 
REMARK    3  A    between atoms: C_10  and  C_11 
ROOT
HETATM    1  N   UNL     1      23.760  47.045  49.270  1.00  0.00    -0.306 N 
HETATM    2  C   UNL     1      23.906  45.863  49.958  1.00  0.00     0.323 C 
HETATM    3  N   UNL     1      24.930  45.885  50.916  1.00  0.00    -0.330 N 
HETATM    4  C   UNL     1      25.177  44.590  51.529  1.00  0.00     0.155 C 
HETATM    5  C   UNL     1      26.200  44.634  52.616  1.00  0.00     0.001 C 
HETATM    6  C   UNL     1      26.747  45.745  53.147  1.00  0.00    -0.046 C 
HETATM    7  C   UNL     1      26.357  47.087  52.585  1.00  0.00     0.059 C 
HETATM    8  C   UNL     1      25.044  47.048  51.796  1.00  0.00     0.132 C 
HETATM    9  O   UNL     1      23.233  44.860  49.735  1.00  0.00    -0.247 OA
HETATM   10  H   UNL     1      24.634  47.464  48.973  1.00  0.00     0.171 HD
ENDROOT
BRANCH   1  11
HETATM   11  C   UNL     1      22.639  47.340  48.464  1.00  0.00     0.071 A 
HETATM   12  C   UNL     1      21.938  48.534  48.680  1.00  0.00     0.095 A 
HETATM   13  C   UNL     1      20.779  48.821  47.954  1.00  0.00     0.041 A 
HETATM   14  C   UNL     1      20.330  47.919  46.989  1.00  0.00     0.026 A 
HETATM   15  C   UNL     1      21.037  46.739  46.759  1.00  0.00     0.036 A 
HETATM   16  C   UNL     1      22.188  46.446  47.489  1.00  0.00     0.056 A 
HETATM   17 CL   UNL     1      20.465  45.621  45.581  1.00  0.00    -0.084 Cl
BRANCH  12  18
HETATM   18  O   UNL     1      22.415  49.418  49.616  1.00  0.00    -0.354 OA
HETATM   19  C   UNL     1      22.707  50.679  49.005  1.00  0.00     0.210 C 
ENDBRANCH  12  18
ENDBRANCH   1  11
BRANCH   6  20
HETATM   20  C   UNL     1      27.632  45.735  54.288  1.00  0.00    -0.002 A 
HETATM   21  C   UNL     1      28.726  44.859  54.625  1.00  0.00     0.003 A 
HETATM   22  C   UNL     1      29.288  45.337  55.815  1.00  0.00     0.043 A 
HETATM   23  C   UNL     1      29.316  43.708  54.053  1.00  0.00     0.014 A 
HETATM   24  C   UNL     1      30.397  44.750  56.436  1.00  0.00     0.030 A 
HETATM   25  N   UNL     1      28.556  46.432  56.202  1.00  0.00    -0.364 N 
HETATM   26  C   UNL     1      30.965  43.629  55.831  1.00  0.00     0.002 A 
HETATM   27  C   UNL     1      30.432  43.110  54.657  1.00  0.00     0.001 A 
HETATM   28  H   UNL     1      28.737  46.978  57.033  1.00  0.00     0.165 HD
HETATM   29  C   UNL     1      27.570  46.685  55.292  1.00  0.00     0.101 A 
ENDBRANCH   6  20
TORSDOF 3
ENDMDL
MODEL 8
REMARK VINA RESULT:      -8.9      5.385      9.007
REMARK  3 active torsions:
REMARK  status: ('A' for Active; 'I' for Inactive)
REMARK    1  A    between atoms: O_2  and  C_3 
REMARK    2  A    between atoms: C_4  and  N_5 
REMARK       I    between atoms: N_5  and  C_6 
REMARK       I    between atoms: C_6  and  N_7 
REMARK    3  A    between atoms: C_10  and  C_11 
ROOT
HETATM    1  N   UNL     1      24.394  46.980  49.588  1.00  0.00    -0.306 N 
HETATM    2  C   UNL     1      25.052  46.684  50.760  1.00  0.00     0.323 C 
HETATM    3  N   UNL     1      25.561  45.379  50.812  1.00  0.00    -0.330 N 
HETATM    4  C   UNL     1      26.119  45.026  52.107  1.00  0.00     0.155 C 
HETATM    5  C   UNL     1      26.747  43.671  52.133  1.00  0.00     0.001 C 
HETATM    6  C   UNL     1      26.969  42.878  51.068  1.00  0.00    -0.046 C 
HETATM    7  C   UNL     1      26.509  43.340  49.709  1.00  0.00     0.059 C 
HETATM    8  C   UNL     1      26.263  44.851  49.642  1.00  0.00     0.132 C 
HETATM    9  O   UNL     1      25.155  47.470  51.697  1.00  0.00    -0.247 OA
HETATM   10  H   UNL     1      23.771  46.248  49.265  1.00  0.00     0.171 HD
ENDROOT
BRANCH   1  11
HETATM   11  C   UNL     1      24.042  48.293  49.207  1.00  0.00     0.071 A 
HETATM   12  C   UNL     1      25.027  49.138  48.680  1.00  0.00     0.095 A 
HETATM   13  C   UNL     1      24.732  50.467  48.366  1.00  0.00     0.041 A 
HETATM   14  C   UNL     1      23.437  50.949  48.557  1.00  0.00     0.026 A 
HETATM   15  C   UNL     1      22.449  50.104  49.064  1.00  0.00     0.036 A 
HETATM   16  C   UNL     1      22.744  48.780  49.388  1.00  0.00     0.056 A 
HETATM   17 CL   UNL     1      20.859  50.712  49.318  1.00  0.00    -0.084 Cl
BRANCH  12  18
HETATM   18  O   UNL     1      26.288  48.633  48.475  1.00  0.00    -0.354 OA
HETATM   19  C   UNL     1      27.277  49.606  48.827  1.00  0.00     0.210 C 
ENDBRANCH  12  18
ENDBRANCH   1  11
BRANCH   6  20
HETATM   20  C   UNL     1      27.702  41.635  51.133  1.00  0.00    -0.002 A 
HETATM   21  C   UNL     1      27.937  40.626  50.130  1.00  0.00     0.003 A 
HETATM   22  C   UNL     1      28.766  39.656  50.706  1.00  0.00     0.043 A 
HETATM   23  C   UNL     1      27.546  40.422  48.786  1.00  0.00     0.014 A 
HETATM   24  C   UNL     1      29.232  38.529  50.017  1.00  0.00     0.030 A 
HETATM   25  N   UNL     1      29.001  40.037  52.004  1.00  0.00    -0.364 N 
HETATM   26  C   UNL     1      28.842  38.373  48.686  1.00  0.00     0.002 A 
HETATM   27  C   UNL     1      28.008  39.303  48.078  1.00  0.00     0.001 A 
HETATM   28  H   UNL     1      29.569  39.518  52.659  1.00  0.00     0.165 HD
HETATM   29  C   UNL     1      28.377  41.223  52.267  1.00  0.00     0.101 A 
ENDBRANCH   6  20
TORSDOF 3
ENDMDL
MODEL 9
REMARK VINA RESULT:      -8.9      5.195      6.554
REMARK  3 active torsions:
REMARK  status: ('A' for Active; 'I' for Inactive)
REMARK    1  A    between atoms: O_2  and  C_3 
REMARK    2  A    between atoms: C_4  and  N_5 
REMARK       I    between atoms: N_5  and  C_6 
REMARK       I    between atoms: C_6  and  N_7 
REMARK    3  A    between atoms: C_10  and  C_11 
ROOT
HETATM    1  N   UNL     1      23.635  45.786  49.005  1.00  0.00    -0.306 N 
HETATM    2  C   UNL     1      23.628  44.883  50.044  1.00  0.00     0.323 C 
HETATM    3  N   UNL     1      24.681  45.055  50.954  1.00  0.00    -0.330 N 
HETATM    4  C   UNL     1      24.754  44.007  51.959  1.00  0.00     0.155 C 
HETATM    5  C   UNL     1      25.815  44.242  52.984  1.00  0.00     0.001 C 
HETATM    6  C   UNL     1      26.545  45.365  53.129  1.00  0.00    -0.046 C 
HETATM    7  C   UNL     1      26.339  46.496  52.155  1.00  0.00     0.059 C 
HETATM    8  C   UNL     1      25.005  46.408  51.407  1.00  0.00     0.132 C 
HETATM    9  O   UNL     1      22.803  43.980  50.153  1.00  0.00    -0.247 OA
HETATM   10  H   UNL     1      24.550  45.944  48.598  1.00  0.00     0.171 HD
ENDROOT
BRANCH   1  11
HETATM   11  C   UNL     1      22.540  45.974  48.134  1.00  0.00     0.071 A 
HETATM   12  C   UNL     1      22.460  45.208  46.963  1.00  0.00     0.095 A 
HETATM   13  C   UNL     1      21.433  45.422  46.041  1.00  0.00     0.041 A 
HETATM   14  C   UNL     1      20.464  46.393  46.301  1.00  0.00     0.026 A 
HETATM   15  C   UNL     1      20.531  47.143  47.476  1.00  0.00     0.036 A 
HETATM   16  C   UNL     1      21.562  46.938  48.393  1.00  0.00     0.056 A 
HETATM   17 CL   UNL     1      19.345  48.353  47.780  1.00  0.00    -0.084 Cl
BRANCH  12  18
HETATM   18  O   UNL     1      23.410  44.240  46.742  1.00  0.00    -0.354 OA
HETATM   19  C   UNL     1      22.813  42.940  46.787  1.00  0.00     0.210 C 
ENDBRANCH  12  18
ENDBRANCH   1  11
BRANCH   6  20
HETATM   20  C   UNL     1      27.463  45.588  54.221  1.00  0.00    -0.002 A 
HETATM   21  C   UNL     1      28.628  44.849  54.638  1.00  0.00     0.003 A 
HETATM   22  C   UNL     1      29.190  45.539  55.720  1.00  0.00     0.043 A 
HETATM   23  C   UNL     1      29.284  43.668  54.218  1.00  0.00     0.014 A 
HETATM   24  C   UNL     1      30.359  45.130  56.374  1.00  0.00     0.030 A 
HETATM   25  N   UNL     1      28.391  46.627  55.970  1.00  0.00    -0.364 N 
HETATM   26  C   UNL     1      30.989  43.972  55.918  1.00  0.00     0.002 A 
HETATM   27  C   UNL     1      30.459  43.247  54.857  1.00  0.00     0.001 A 
HETATM   28  H   UNL     1      28.558  47.303  56.702  1.00  0.00     0.165 HD
HETATM   29  C   UNL     1      27.362  46.672  55.075  1.00  0.00     0.101 A 
ENDBRANCH   6  20
TORSDOF 3
ENDMDL
MODEL 10
REMARK VINA RESULT:      -8.7      5.912      7.556
REMARK  3 active torsions:
REMARK  status: ('A' for Active; 'I' for Inactive)
REMARK    1  A    between atoms: O_2  and  C_3 
REMARK    2  A    between atoms: C_4  and  N_5 
REMARK       I    between atoms: N_5  and  C_6 
REMARK       I    between atoms: C_6  and  N_7 
REMARK    3  A    between atoms: C_10  and  C_11 
ROOT
HETATM    1  N   UNL     1      22.398  46.259  49.032  1.00  0.00    -0.306 N 
HETATM    2  C   UNL     1      23.500  47.045  49.285  1.00  0.00     0.323 C 
HETATM    3  N   UNL     1      24.235  46.646  50.411  1.00  0.00    -0.330 N 
HETATM    4  C   UNL     1      25.304  47.567  50.759  1.00  0.00     0.155 C 
HETATM    5  C   UNL     1      26.146  47.094  51.899  1.00  0.00     0.001 C 
HETATM    6  C   UNL     1      26.093  45.877  52.474  1.00  0.00    -0.046 C 
HETATM    7  C   UNL     1      25.065  44.888  51.988  1.00  0.00     0.059 C 
HETATM    8  C   UNL     1      24.522  45.224  50.595  1.00  0.00     0.132 C 
HETATM    9  O   UNL     1      23.799  48.030  48.617  1.00  0.00    -0.247 OA
HETATM   10  H   UNL     1      21.855  46.027  49.855  1.00  0.00     0.171 HD
ENDROOT
BRANCH   1  11
HETATM   11  C   UNL     1      21.677  46.305  47.819  1.00  0.00     0.071 A 
HETATM   12  C   UNL     1      20.463  47.003  47.772  1.00  0.00     0.095 A 
HETATM   13  C   UNL     1      19.686  47.003  46.611  1.00  0.00     0.041 A 
HETATM   14  C   UNL     1      20.135  46.320  45.481  1.00  0.00     0.026 A 
HETATM   15  C   UNL     1      21.353  45.640  45.519  1.00  0.00     0.036 A 
HETATM   16  C   UNL     1      22.126  45.630  46.680  1.00  0.00     0.056 A 
HETATM   17 CL   UNL     1      21.891  44.782  44.127  1.00  0.00    -0.084 Cl
BRANCH  12  18
HETATM   18  O   UNL     1      20.055  47.691  48.889  1.00  0.00    -0.354 OA
HETATM   19  C   UNL     1      20.183  49.100  48.678  1.00  0.00     0.210 C 
ENDBRANCH  12  18
ENDBRANCH   1  11
BRANCH   6  20
HETATM   20  C   UNL     1      27.022  45.426  53.484  1.00  0.00    -0.002 A 
HETATM   21  C   UNL     1      28.107  44.481  53.411  1.00  0.00     0.003 A 
HETATM   22  C   UNL     1      28.726  44.464  54.667  1.00  0.00     0.043 A 
HETATM   23  C   UNL     1      28.648  43.632  52.417  1.00  0.00     0.014 A 
HETATM   24  C   UNL     1      29.846  43.677  54.966  1.00  0.00     0.030 A 
HETATM   25  N   UNL     1      28.036  45.333  55.475  1.00  0.00    -0.364 N 
HETATM   26  C   UNL     1      30.364  42.869  53.953  1.00  0.00     0.002 A 
HETATM   27  C   UNL     1      29.772  42.842  52.696  1.00  0.00     0.001 A 
HETATM   28  H   UNL     1      28.263  45.519  56.442  1.00  0.00     0.165 HD
HETATM   29  C   UNL     1      27.021  45.921  54.776  1.00  0.00     0.101 A 
ENDBRANCH   6  20
TORSDOF 3
ENDMDL
