MODEL 1
REMARK VINA RESULT:     -10.8      0.000      0.000
REMARK  7 active torsions:
REMARK  status: ('A' for Active; 'I' for Inactive)
REMARK    1  A    between atoms: C_4  and  C_5 
REMARK    2  A    between atoms: C_5  and  C_6 
REMARK    3  A    between atoms: C_6  and  C_7 
REMARK    4  A    between atoms: C_7  and  N_8 
REMARK    5  A    between atoms: C_12  and  O_13 
REMARK    6  A    between atoms: C_12  and  C_14 
REMARK    7  A    between atoms: C_19  and  C_20 
REMARK       I    between atoms: C_20  and  N_21 
ROOT
HETATM    1  C   UNL     1      25.304  45.311  49.667  1.00  0.00    -0.023 A 
HETATM    2  C   UNL     1      24.070  45.788  49.163  1.00  0.00     0.024 A 
HETATM    3  C   UNL     1      23.819  47.172  49.090  1.00  0.00     0.001 A 
HETATM    4  C   UNL     1      24.825  48.051  49.459  1.00  0.00     0.086 A 
HETATM    5  O   UNL     1      24.391  49.338  49.366  1.00  0.00    -0.304 OA
HETATM    6  C   UNL     1      23.087  49.298  48.940  1.00  0.00     0.144 A 
HETATM    7  C   UNL     1      22.723  47.983  48.707  1.00  0.00     0.057 A 
HETATM    8  C   UNL     1      26.090  47.645  49.859  1.00  0.00     0.039 A 
HETATM    9  C   UNL     1      26.311  46.260  49.943  1.00  0.00     0.013 A 
ENDROOT
BRANCH   1  10
HETATM   10  C   UNL     1      25.536  43.805  49.876  1.00  0.00     0.088 C 
HETATM   11  C   UNL     1      24.746  43.197  51.050  1.00  0.00     0.071 C 
HETATM   12  C   UNL     1      25.183  43.773  52.385  1.00  0.00     0.238 C 
HETATM   13  N   UNL     1      26.664  43.576  52.617  1.00  0.00    -0.071 N 
HETATM   14  H   UNL     1      26.822  42.570  52.784  1.00  0.00     0.279 HD
HETATM   15  C   UNL     1      27.530  43.968  51.433  1.00  0.00     0.238 C 
HETATM   16  C   UNL     1      26.999  43.398  50.130  1.00  0.00     0.071 C 
BRANCH  13  17
HETATM   17  C   UNL     1      27.169  44.316  53.855  1.00  0.00     0.235 C 
BRANCH  17  18
HETATM   18  C   UNL     1      28.676  44.558  53.815  1.00  0.00     0.038 C 
BRANCH  18  19
HETATM   19  C   UNL     1      29.460  43.354  54.380  1.00  0.00     0.040 C 
HETATM   20  C   UNL     1      30.408  42.789  53.322  1.00  0.00     0.017 C 
BRANCH  19  21
HETATM   21  C   UNL     1      30.214  43.688  55.625  1.00  0.00     0.057 A 
HETATM   22  O   UNL     1      29.842  44.819  56.288  1.00  0.00    -0.319 OA
HETATM   23  C   UNL     1      30.668  44.941  57.366  1.00  0.00     0.049 A 
HETATM   24  C   UNL     1      30.480  46.133  58.219  1.00  0.00     0.076 C 
HETATM   25  C   UNL     1      31.547  43.882  57.410  1.00  0.00     0.035 A 
HETATM   26  C   UNL     1      31.254  43.072  56.287  1.00  0.00     0.035 A 
ENDBRANCH  19  21
ENDBRANCH  18  19
ENDBRANCH  17  18
ENDBRANCH  13  17
BRANCH  10  27
HETATM   27  O   UNL     1      25.118  43.120  48.696  1.00  0.00    -0.385 OA
HETATM   28  H   UNL     1      25.886  42.929  48.128  1.00  0.00     0.211 HD
ENDBRANCH  10  27
ENDBRANCH   1  10
BRANCH   6  29
HETATM   29  C   UNL     1      22.326  50.515  48.720  1.00  0.00     0.277 C 
HETATM   30  N   UNL     1      20.924  50.463  48.578  1.00  0.00    -0.345 N 
HETATM   31  C   UNL     1      20.203  51.735  48.464  1.00  0.00     0.154 C 
HETATM   32  C   UNL     1      20.133  49.235  48.507  1.00  0.00     0.128 C 
HETATM   33  C   UNL     1      19.160  51.956  49.573  1.00  0.00     0.254 C 
HETATM   34  N   UNL     1      17.973  51.015  49.393  1.00  0.00    -0.073 N 
HETATM   35  H   UNL     1      17.856  50.861  48.383  1.00  0.00     0.279 HD
HETATM   36  C   UNL     1      16.684  51.678  49.828  1.00  0.00     0.269 C 
HETATM   37  C   UNL     1      18.113  49.662  50.047  1.00  0.00     0.236 C 
HETATM   38  C   UNL     1      19.455  48.965  49.840  1.00  0.00     0.048 C 
HETATM   39  O   UNL     1      22.903  51.599  48.632  1.00  0.00    -0.265 OA
ENDBRANCH   6  29
TORSDOF 7
ENDMDL
MODEL 2
REMARK VINA RESULT:     -10.2      2.819      9.871
REMARK  7 active torsions:
REMARK  status: ('A' for Active; 'I' for Inactive)
REMARK    1  A    between atoms: C_4  and  C_5 
REMARK    2  A    between atoms: C_5  and  C_6 
REMARK    3  A    between atoms: C_6  and  C_7 
REMARK    4  A    between atoms: C_7  and  N_8 
REMARK    5  A    between atoms: C_12  and  O_13 
REMARK    6  A    between atoms: C_12  and  C_14 
REMARK    7  A    between atoms: C_19  and  C_20 
REMARK       I    between atoms: C_20  and  N_21 
ROOT
HETATM    1  C   UNL     1      19.315  45.974  47.425  1.00  0.00    -0.023 A 
HETATM    2  C   UNL     1      19.951  45.314  48.503  1.00  0.00     0.024 A 
HETATM    3  C   UNL     1      21.305  44.939  48.408  1.00  0.00     0.001 A 
HETATM    4  C   UNL     1      22.014  45.286  47.268  1.00  0.00     0.086 A 
HETATM    5  O   UNL     1      23.286  44.806  47.333  1.00  0.00    -0.304 OA
HETATM    6  C   UNL     1      23.406  44.133  48.523  1.00  0.00     0.144 A 
HETATM    7  C   UNL     1      22.223  44.244  49.232  1.00  0.00     0.057 A 
HETATM    8  C   UNL     1      21.474  46.026  46.225  1.00  0.00     0.039 A 
HETATM    9  C   UNL     1      20.116  46.371  46.333  1.00  0.00     0.013 A 
ENDROOT
BRANCH   1  10
HETATM   10  C   UNL     1      17.805  46.268  47.465  1.00  0.00     0.088 C 
HETATM   11  C   UNL     1      17.296  47.136  46.299  1.00  0.00     0.071 C 
HETATM   12  C   UNL     1      17.891  48.533  46.330  1.00  0.00     0.238 C 
HETATM   13  N   UNL     1      17.604  49.229  47.641  1.00  0.00    -0.071 N 
HETATM   14  H   UNL     1      16.597  49.452  47.662  1.00  0.00     0.279 HD
HETATM   15  C   UNL     1      17.893  48.379  48.865  1.00  0.00     0.238 C 
HETATM   16  C   UNL     1      17.311  46.983  48.735  1.00  0.00     0.071 C 
BRANCH  13  17
HETATM   17  C   UNL     1      18.354  50.553  47.780  1.00  0.00     0.235 C 
BRANCH  17  18
HETATM   18  C   UNL     1      19.780  50.475  47.235  1.00  0.00     0.038 C 
BRANCH  18  19
HETATM   19  C   UNL     1      20.808  50.998  48.261  1.00  0.00     0.040 C 
HETATM   20  C   UNL     1      20.121  51.336  49.584  1.00  0.00     0.017 C 
BRANCH  19  21
HETATM   21  C   UNL     1      21.932  50.042  48.491  1.00  0.00     0.057 A 
HETATM   22  O   UNL     1      23.195  50.517  48.306  1.00  0.00    -0.319 OA
HETATM   23  C   UNL     1      24.051  49.483  48.544  1.00  0.00     0.049 A 
HETATM   24  C   UNL     1      25.492  49.752  48.359  1.00  0.00     0.076 C 
HETATM   25  C   UNL     1      23.343  48.358  48.905  1.00  0.00     0.035 A 
HETATM   26  C   UNL     1      21.975  48.717  48.872  1.00  0.00     0.035 A 
ENDBRANCH  19  21
ENDBRANCH  18  19
ENDBRANCH  17  18
ENDBRANCH  13  17
BRANCH  10  27
HETATM   27  O   UNL     1      17.107  45.026  47.393  1.00  0.00    -0.385 OA
HETATM   28  H   UNL     1      16.940  44.682  48.289  1.00  0.00     0.211 HD
ENDBRANCH  10  27
ENDBRANCH   1  10
BRANCH   6  29
HETATM   29  C   UNL     1      24.657  43.507  48.914  1.00  0.00     0.277 C 
HETATM   30  N   UNL     1      25.554  44.181  49.769  1.00  0.00    -0.345 N 
HETATM   31  C   UNL     1      26.748  43.455  50.212  1.00  0.00     0.154 C 
HETATM   32  C   UNL     1      25.400  45.561  50.228  1.00  0.00     0.128 C 
HETATM   33  C   UNL     1      26.849  43.302  51.739  1.00  0.00     0.254 C 
HETATM   34  N   UNL     1      27.154  44.645  52.396  1.00  0.00    -0.073 N 
HETATM   35  H   UNL     1      27.729  45.184  51.736  1.00  0.00     0.279 HD
HETATM   36  C   UNL     1      28.037  44.465  53.612  1.00  0.00     0.269 C 
HETATM   37  C   UNL     1      25.948  45.485  52.743  1.00  0.00     0.236 C 
HETATM   38  C   UNL     1      24.882  45.588  51.657  1.00  0.00     0.048 C 
HETATM   39  O   UNL     1      24.954  42.393  48.482  1.00  0.00    -0.265 OA
ENDBRANCH   6  29
TORSDOF 7
ENDMDL
MODEL 3
REMARK VINA RESULT:     -10.2      3.906     10.071
REMARK  7 active torsions:
REMARK  status: ('A' for Active; 'I' for Inactive)
REMARK    1  A    between atoms: C_4  and  C_5 
REMARK    2  A    between atoms: C_5  and  C_6 
REMARK    3  A    between atoms: C_6  and  C_7 
REMARK    4  A    between atoms: C_7  and  N_8 
REMARK    5  A    between atoms: C_12  and  O_13 
REMARK    6  A    between atoms: C_12  and  C_14 
REMARK    7  A    between atoms: C_19  and  C_20 
REMARK       I    between atoms: C_20  and  N_21 
ROOT
HETATM    1  C   UNL     1      19.497  51.086  48.077  1.00  0.00    -0.023 A 
HETATM    2  C   UNL     1      20.509  50.346  47.421  1.00  0.00     0.024 A 
HETATM    3  C   UNL     1      21.748  50.122  48.052  1.00  0.00     0.001 A 
HETATM    4  C   UNL     1      21.929  50.583  49.346  1.00  0.00     0.086 A 
HETATM    5  O   UNL     1      23.193  50.316  49.775  1.00  0.00    -0.304 OA
HETATM    6  C   UNL     1      23.846  49.682  48.748  1.00  0.00     0.144 A 
HETATM    7  C   UNL     1      22.968  49.497  47.694  1.00  0.00     0.057 A 
HETATM    8  C   UNL     1      20.938  51.220  50.079  1.00  0.00     0.039 A 
HETATM    9  C   UNL     1      19.717  51.451  49.422  1.00  0.00     0.013 A 
ENDROOT
BRANCH   1  10
HETATM   10  C   UNL     1      18.193  51.450  47.347  1.00  0.00     0.088 C 
HETATM   11  C   UNL     1      16.921  51.293  48.201  1.00  0.00     0.071 C 
HETATM   12  C   UNL     1      16.673  49.846  48.588  1.00  0.00     0.238 C 
HETATM   13  N   UNL     1      16.577  48.955  47.370  1.00  0.00    -0.071 N 
HETATM   14  H   UNL     1      15.690  49.177  46.890  1.00  0.00     0.279 HD
HETATM   15  C   UNL     1      17.690  49.169  46.361  1.00  0.00     0.238 C 
HETATM   16  C   UNL     1      17.911  50.642  46.067  1.00  0.00     0.071 C 
BRANCH  13  17
HETATM   17  C   UNL     1      16.526  47.470  47.731  1.00  0.00     0.235 C 
BRANCH  17  18
HETATM   18  C   UNL     1      17.800  46.996  48.428  1.00  0.00     0.038 C 
BRANCH  18  19
HETATM   19  C   UNL     1      18.282  45.640  47.869  1.00  0.00     0.040 C 
HETATM   20  C   UNL     1      17.519  45.286  46.593  1.00  0.00     0.017 C 
BRANCH  19  21
HETATM   21  C   UNL     1      19.753  45.608  47.618  1.00  0.00     0.057 A 
HETATM   22  O   UNL     1      20.407  44.452  47.921  1.00  0.00    -0.319 OA
HETATM   23  C   UNL     1      21.725  44.652  47.639  1.00  0.00     0.049 A 
HETATM   24  C   UNL     1      22.648  43.536  47.934  1.00  0.00     0.076 C 
HETATM   25  C   UNL     1      21.914  45.919  47.134  1.00  0.00     0.035 A 
HETATM   26  C   UNL     1      20.641  46.537  47.119  1.00  0.00     0.035 A 
ENDBRANCH  19  21
ENDBRANCH  18  19
ENDBRANCH  17  18
ENDBRANCH  13  17
BRANCH  10  27
HETATM   27  O   UNL     1      18.265  52.821  46.960  1.00  0.00    -0.385 OA
HETATM   28  H   UNL     1      17.530  53.322  47.358  1.00  0.00     0.211 HD
ENDBRANCH  10  27
ENDBRANCH   1  10
BRANCH   6  29
HETATM   29  C   UNL     1      25.223  49.240  48.885  1.00  0.00     0.277 C 
HETATM   30  N   UNL     1      25.549  48.186  49.762  1.00  0.00    -0.345 N 
HETATM   31  C   UNL     1      26.939  47.717  49.776  1.00  0.00     0.154 C 
HETATM   32  C   UNL     1      24.614  47.539  50.682  1.00  0.00     0.128 C 
HETATM   33  C   UNL     1      27.095  46.233  49.406  1.00  0.00     0.254 C 
HETATM   34  N   UNL     1      26.552  45.340  50.517  1.00  0.00    -0.073 N 
HETATM   35  H   UNL     1      26.710  45.830  51.407  1.00  0.00     0.279 HD
HETATM   36  C   UNL     1      27.362  44.066  50.635  1.00  0.00     0.269 C 
HETATM   37  C   UNL     1      25.080  45.018  50.430  1.00  0.00     0.236 C 
HETATM   38  C   UNL     1      24.164  46.199  50.122  1.00  0.00     0.048 C 
HETATM   39  O   UNL     1      26.118  49.802  48.253  1.00  0.00    -0.265 OA
ENDBRANCH   6  29
TORSDOF 7
ENDMDL
MODEL 4
REMARK VINA RESULT:     -10.2      1.959      3.073
REMARK  7 active torsions:
REMARK  status: ('A' for Active; 'I' for Inactive)
REMARK    1  A    between atoms: C_4  and  C_5 
REMARK    2  A    between atoms: C_5  and  C_6 
REMARK    3  A    between atoms: C_6  and  C_7 
REMARK    4  A    between atoms: C_7  and  N_8 
REMARK    5  A    between atoms: C_12  and  O_13 
REMARK    6  A    between atoms: C_12  and  C_14 
REMARK    7  A    between atoms: C_19  and  C_20 
REMARK       I    between atoms: C_20  and  N_21 
ROOT
HETATM    1  C   UNL     1      24.706  46.801  49.438  1.00  0.00    -0.023 A 
HETATM    2  C   UNL     1      23.902  47.939  49.191  1.00  0.00     0.024 A 
HETATM    3  C   UNL     1      22.588  47.789  48.706  1.00  0.00     0.001 A 
HETATM    4  C   UNL     1      22.082  46.510  48.538  1.00  0.00     0.086 A 
HETATM    5  O   UNL     1      20.823  46.559  48.023  1.00  0.00    -0.304 OA
HETATM    6  C   UNL     1      20.507  47.882  47.846  1.00  0.00     0.144 A 
HETATM    7  C   UNL     1      21.550  48.667  48.309  1.00  0.00     0.057 A 
HETATM    8  C   UNL     1      22.785  45.358  48.863  1.00  0.00     0.039 A 
HETATM    9  C   UNL     1      24.100  45.532  49.326  1.00  0.00     0.013 A 
ENDROOT
BRANCH   1  10
HETATM   10  C   UNL     1      26.183  46.956  49.839  1.00  0.00     0.088 C 
HETATM   11  C   UNL     1      26.967  45.632  49.902  1.00  0.00     0.071 C 
HETATM   12  C   UNL     1      26.439  44.712  50.989  1.00  0.00     0.238 C 
HETATM   13  N   UNL     1      26.467  45.382  52.344  1.00  0.00    -0.071 N 
HETATM   14  H   UNL     1      27.456  45.464  52.631  1.00  0.00     0.279 HD
HETATM   15  C   UNL     1      25.887  46.784  52.351  1.00  0.00     0.238 C 
HETATM   16  C   UNL     1      26.424  47.623  51.205  1.00  0.00     0.071 C 
BRANCH  13  17
HETATM   17  C   UNL     1      25.762  44.558  53.421  1.00  0.00     0.235 C 
BRANCH  17  18
HETATM   18  C   UNL     1      26.503  44.587  54.756  1.00  0.00     0.038 C 
BRANCH  18  19
HETATM   19  C   UNL     1      27.861  45.312  54.636  1.00  0.00     0.040 C 
HETATM   20  C   UNL     1      27.958  46.439  55.664  1.00  0.00     0.017 C 
BRANCH  19  21
HETATM   21  C   UNL     1      29.024  44.386  54.772  1.00  0.00     0.057 A 
HETATM   22  O   UNL     1      29.772  44.495  55.907  1.00  0.00    -0.319 OA
HETATM   23  C   UNL     1      30.781  43.584  55.811  1.00  0.00     0.049 A 
HETATM   24  C   UNL     1      31.758  43.550  56.919  1.00  0.00     0.076 C 
HETATM   25  C   UNL     1      30.668  42.876  54.635  1.00  0.00     0.035 A 
HETATM   26  C   UNL     1      29.534  43.392  53.964  1.00  0.00     0.035 A 
ENDBRANCH  19  21
ENDBRANCH  18  19
ENDBRANCH  17  18
ENDBRANCH  13  17
BRANCH  10  27
HETATM   27  O   UNL     1      26.828  47.773  48.863  1.00  0.00    -0.385 OA
HETATM   28  H   UNL     1      27.554  47.280  48.438  1.00  0.00     0.211 HD
ENDBRANCH  10  27
ENDBRANCH   1  10
BRANCH   6  29
HETATM   29  C   UNL     1      19.214  48.288  47.323  1.00  0.00     0.277 C 
HETATM   30  N   UNL     1      18.294  48.969  48.146  1.00  0.00    -0.345 N 
HETATM   31  C   UNL     1      17.051  49.444  47.531  1.00  0.00     0.154 C 
HETATM   32  C   UNL     1      18.471  49.215  49.578  1.00  0.00     0.128 C 
HETATM   33  C   UNL     1      16.857  50.967  47.624  1.00  0.00     0.254 C 
HETATM   34  N   UNL     1      16.563  51.386  49.061  1.00  0.00    -0.073 N 
HETATM   35  H   UNL     1      16.047  50.615  49.504  1.00  0.00     0.279 HD
HETATM   36  C   UNL     1      15.606  52.558  49.100  1.00  0.00     0.269 C 
HETATM   37  C   UNL     1      17.776  51.672  49.914  1.00  0.00     0.236 C 
HETATM   38  C   UNL     1      18.906  50.651  49.817  1.00  0.00     0.048 C 
HETATM   39  O   UNL     1      18.904  48.018  46.162  1.00  0.00    -0.265 OA
ENDBRANCH   6  29
TORSDOF 7
ENDMDL
MODEL 5
REMARK VINA RESULT:     -10.0     12.218     15.901
REMARK  7 active torsions:
REMARK  status: ('A' for Active; 'I' for Inactive)
REMARK    1  A    between atoms: C_4  and  C_5 
REMARK    2  A    between atoms: C_5  and  C_6 
REMARK    3  A    between atoms: C_6  and  C_7 
REMARK    4  A    between atoms: C_7  and  N_8 
REMARK    5  A    between atoms: C_12  and  O_13 
REMARK    6  A    between atoms: C_12  and  C_14 
REMARK    7  A    between atoms: C_19  and  C_20 
REMARK       I    between atoms: C_20  and  N_21 
ROOT
HETATM    1  C   UNL     1      30.453  52.729  40.803  1.00  0.00    -0.023 A 
HETATM    2  C   UNL     1      31.581  52.441  39.999  1.00  0.00     0.024 A 
HETATM    3  C   UNL     1      32.797  52.051  40.593  1.00  0.00     0.001 A 
HETATM    4  C   UNL     1      32.844  51.893  41.970  1.00  0.00     0.086 A 
HETATM    5  O   UNL     1      34.102  51.557  42.368  1.00  0.00    -0.304 OA
HETATM    6  C   UNL     1      34.884  51.502  41.242  1.00  0.00     0.144 A 
HETATM    7  C   UNL     1      34.099  51.746  40.128  1.00  0.00     0.057 A 
HETATM    8  C   UNL     1      31.744  52.057  42.799  1.00  0.00     0.039 A 
HETATM    9  C   UNL     1      30.548  52.467  42.186  1.00  0.00     0.013 A 
ENDROOT
BRANCH   1  10
HETATM   10  C   UNL     1      29.163  53.285  40.175  1.00  0.00     0.088 C 
HETATM   11  C   UNL     1      27.898  53.072  41.028  1.00  0.00     0.071 C 
HETATM   12  C   UNL     1      27.564  51.599  41.189  1.00  0.00     0.238 C 
HETATM   13  N   UNL     1      27.390  50.921  39.848  1.00  0.00    -0.071 N 
HETATM   14  H   UNL     1      26.511  51.271  39.434  1.00  0.00     0.279 HD
HETATM   15  C   UNL     1      28.497  51.225  38.856  1.00  0.00     0.238 C 
HETATM   16  C   UNL     1      28.808  52.710  38.792  1.00  0.00     0.071 C 
BRANCH  13  17
HETATM   17  C   UNL     1      27.249  49.404  39.971  1.00  0.00     0.235 C 
BRANCH  17  18
HETATM   18  C   UNL     1      28.206  48.653  39.047  1.00  0.00     0.038 C 
BRANCH  18  19
HETATM   19  C   UNL     1      28.907  47.490  39.780  1.00  0.00     0.040 C 
HETATM   20  C   UNL     1      29.588  46.558  38.777  1.00  0.00     0.017 C 
BRANCH  19  21
HETATM   21  C   UNL     1      29.890  47.959  40.801  1.00  0.00     0.057 A 
HETATM   22  O   UNL     1      31.211  47.829  40.491  1.00  0.00    -0.319 OA
HETATM   23  C   UNL     1      31.919  48.291  41.560  1.00  0.00     0.049 A 
HETATM   24  C   UNL     1      33.392  48.207  41.472  1.00  0.00     0.076 C 
HETATM   25  C   UNL     1      31.060  48.739  42.539  1.00  0.00     0.035 A 
HETATM   26  C   UNL     1      29.750  48.526  42.050  1.00  0.00     0.035 A 
ENDBRANCH  19  21
ENDBRANCH  18  19
ENDBRANCH  17  18
ENDBRANCH  13  17
BRANCH  10  27
HETATM   27  O   UNL     1      29.318  54.693  40.008  1.00  0.00    -0.385 OA
HETATM   28  H   UNL     1      28.970  55.164  40.788  1.00  0.00     0.211 HD
ENDBRANCH  10  27
ENDBRANCH   1  10
BRANCH   6  29
HETATM   29  C   UNL     1      36.292  51.151  41.315  1.00  0.00     0.277 C 
HETATM   30  N   UNL     1      37.165  51.876  42.151  1.00  0.00    -0.345 N 
HETATM   31  C   UNL     1      38.549  51.406  42.261  1.00  0.00     0.154 C 
HETATM   32  C   UNL     1      36.804  53.082  42.897  1.00  0.00     0.128 C 
HETATM   33  C   UNL     1      38.965  51.037  43.695  1.00  0.00     0.254 C 
HETATM   34  N   UNL     1      39.089  52.287  44.560  1.00  0.00    -0.073 N 
HETATM   35  H   UNL     1      39.400  53.052  43.948  1.00  0.00     0.279 HD
HETATM   36  C   UNL     1      40.201  52.136  45.575  1.00  0.00     0.269 C 
HETATM   37  C   UNL     1      37.817  52.734  45.239  1.00  0.00     0.236 C 
HETATM   38  C   UNL     1      36.570  52.746  44.361  1.00  0.00     0.048 C 
HETATM   39  O   UNL     1      36.736  50.230  40.628  1.00  0.00    -0.265 OA
ENDBRANCH   6  29
TORSDOF 7
ENDMDL
MODEL 6
REMARK VINA RESULT:      -9.9     12.123     15.496
REMARK  7 active torsions:
REMARK  status: ('A' for Active; 'I' for Inactive)
REMARK    1  A    between atoms: C_4  and  C_5 
REMARK    2  A    between atoms: C_5  and  C_6 
REMARK    3  A    between atoms: C_6  and  C_7 
REMARK    4  A    between atoms: C_7  and  N_8 
REMARK    5  A    between atoms: C_12  and  O_13 
REMARK    6  A    between atoms: C_12  and  C_14 
REMARK    7  A    between atoms: C_19  and  C_20 
REMARK       I    between atoms: C_20  and  N_21 
ROOT
HETATM    1  C   UNL     1      30.005  47.592  39.735  1.00  0.00    -0.023 A 
HETATM    2  C   UNL     1      30.373  47.906  41.065  1.00  0.00     0.024 A 
HETATM    3  C   UNL     1      31.296  48.938  41.323  1.00  0.00     0.001 A 
HETATM    4  C   UNL     1      31.781  49.679  40.256  1.00  0.00     0.086 A 
HETATM    5  O   UNL     1      32.688  50.598  40.687  1.00  0.00    -0.304 OA
HETATM    6  C   UNL     1      32.801  50.451  42.046  1.00  0.00     0.144 A 
HETATM    7  C   UNL     1      31.916  49.477  42.476  1.00  0.00     0.057 A 
HETATM    8  C   UNL     1      31.375  49.488  38.942  1.00  0.00     0.039 A 
HETATM    9  C   UNL     1      30.471  48.439  38.708  1.00  0.00     0.013 A 
ENDROOT
BRANCH   1  10
HETATM   10  C   UNL     1      29.104  46.381  39.436  1.00  0.00     0.088 C 
HETATM   11  C   UNL     1      28.457  46.402  38.038  1.00  0.00     0.071 C 
HETATM   12  C   UNL     1      27.491  47.562  37.877  1.00  0.00     0.238 C 
HETATM   13  N   UNL     1      26.410  47.535  38.935  1.00  0.00    -0.071 N 
HETATM   14  H   UNL     1      25.787  46.740  38.723  1.00  0.00     0.279 HD
HETATM   15  C   UNL     1      26.932  47.323  40.344  1.00  0.00     0.238 C 
HETATM   16  C   UNL     1      27.930  46.181  40.412  1.00  0.00     0.071 C 
BRANCH  13  17
HETATM   17  C   UNL     1      25.543  48.793  38.921  1.00  0.00     0.235 C 
BRANCH  17  18
HETATM   18  C   UNL     1      26.133  49.917  39.771  1.00  0.00     0.038 C 
BRANCH  18  19
HETATM   19  C   UNL     1      27.490  50.399  39.213  1.00  0.00     0.040 C 
HETATM   20  C   UNL     1      27.282  51.239  37.953  1.00  0.00     0.017 C 
BRANCH  19  21
HETATM   21  C   UNL     1      28.290  51.161  40.218  1.00  0.00     0.057 A 
HETATM   22  O   UNL     1      29.128  52.123  39.739  1.00  0.00    -0.319 OA
HETATM   23  C   UNL     1      29.767  52.667  40.812  1.00  0.00     0.049 A 
HETATM   24  C   UNL     1      30.771  53.714  40.531  1.00  0.00     0.076 C 
HETATM   25  C   UNL     1      29.324  52.078  41.975  1.00  0.00     0.035 A 
HETATM   26  C   UNL     1      28.370  51.105  41.593  1.00  0.00     0.035 A 
ENDBRANCH  19  21
ENDBRANCH  18  19
ENDBRANCH  17  18
ENDBRANCH  13  17
BRANCH  10  27
HETATM   27  O   UNL     1      29.903  45.202  39.505  1.00  0.00    -0.385 OA
HETATM   28  H   UNL     1      30.453  45.215  40.310  1.00  0.00     0.211 HD
ENDBRANCH  10  27
ENDBRANCH   1  10
BRANCH   6  29
HETATM   29  C   UNL     1      33.684  51.300  42.828  1.00  0.00     0.277 C 
HETATM   30  N   UNL     1      35.083  51.173  42.709  1.00  0.00    -0.345 N 
HETATM   31  C   UNL     1      35.918  52.129  43.443  1.00  0.00     0.154 C 
HETATM   32  C   UNL     1      35.769  50.142  41.930  1.00  0.00     0.128 C 
HETATM   33  C   UNL     1      36.841  52.965  42.540  1.00  0.00     0.254 C 
HETATM   34  N   UNL     1      37.956  52.100  41.960  1.00  0.00    -0.073 N 
HETATM   35  H   UNL     1      38.175  51.377  42.657  1.00  0.00     0.279 HD
HETATM   36  C   UNL     1      39.238  52.892  41.818  1.00  0.00     0.269 C 
HETATM   37  C   UNL     1      37.627  51.401  40.664  1.00  0.00     0.236 C 
HETATM   38  C   UNL     1      36.263  50.717  40.612  1.00  0.00     0.048 C 
HETATM   39  O   UNL     1      33.215  52.120  43.618  1.00  0.00    -0.265 OA
ENDBRANCH   6  29
TORSDOF 7
ENDMDL
MODEL 7
REMARK VINA RESULT:      -9.9      4.777     10.270
REMARK  7 active torsions:
REMARK  status: ('A' for Active; 'I' for Inactive)
REMARK    1  A    between atoms: C_4  and  C_5 
REMARK    2  A    between atoms: C_5  and  C_6 
REMARK    3  A    between atoms: C_6  and  C_7 
REMARK    4  A    between atoms: C_7  and  N_8 
REMARK    5  A    between atoms: C_12  and  O_13 
REMARK    6  A    between atoms: C_12  and  C_14 
REMARK    7  A    between atoms: C_19  and  C_20 
REMARK       I    between atoms: C_20  and  N_21 
ROOT
HETATM    1  C   UNL     1      16.817  48.509  47.142  1.00  0.00    -0.023 A 
HETATM    2  C   UNL     1      17.735  47.911  46.247  1.00  0.00     0.024 A 
HETATM    3  C   UNL     1      18.364  46.696  46.579  1.00  0.00     0.001 A 
HETATM    4  C   UNL     1      18.017  46.069  47.766  1.00  0.00     0.086 A 
HETATM    5  O   UNL     1      18.752  44.937  47.941  1.00  0.00    -0.304 OA
HETATM    6  C   UNL     1      19.592  44.827  46.862  1.00  0.00     0.144 A 
HETATM    7  C   UNL     1      19.340  45.863  45.979  1.00  0.00     0.057 A 
HETATM    8  C   UNL     1      17.046  46.552  48.633  1.00  0.00     0.039 A 
HETATM    9  C   UNL     1      16.448  47.777  48.290  1.00  0.00     0.013 A 
ENDROOT
BRANCH   1  10
HETATM   10  C   UNL     1      16.228  49.900  46.850  1.00  0.00     0.088 C 
HETATM   11  C   UNL     1      17.183  50.850  46.102  1.00  0.00     0.071 C 
HETATM   12  C   UNL     1      18.407  51.192  46.934  1.00  0.00     0.238 C 
HETATM   13  N   UNL     1      18.022  51.805  48.262  1.00  0.00    -0.071 N 
HETATM   14  H   UNL     1      17.650  52.749  48.073  1.00  0.00     0.279 HD
HETATM   15  C   UNL     1      16.936  51.043  48.999  1.00  0.00     0.238 C 
HETATM   16  C   UNL     1      15.773  50.692  48.089  1.00  0.00     0.071 C 
BRANCH  13  17
HETATM   17  C   UNL     1      19.217  51.977  49.198  1.00  0.00     0.235 C 
BRANCH  17  18
HETATM   18  C   UNL     1      20.530  51.530  48.557  1.00  0.00     0.038 C 
BRANCH  18  19
HETATM   19  C   UNL     1      21.214  50.418  49.381  1.00  0.00     0.040 C 
HETATM   20  C   UNL     1      20.379  49.137  49.348  1.00  0.00     0.017 C 
BRANCH  19  21
HETATM   21  C   UNL     1      22.609  50.138  48.927  1.00  0.00     0.057 A 
HETATM   22  O   UNL     1      23.291  49.164  49.593  1.00  0.00    -0.319 OA
HETATM   23  C   UNL     1      24.533  49.094  49.036  1.00  0.00     0.049 A 
HETATM   24  C   UNL     1      25.479  48.128  49.632  1.00  0.00     0.076 C 
HETATM   25  C   UNL     1      24.640  49.998  48.003  1.00  0.00     0.035 A 
HETATM   26  C   UNL     1      23.398  50.672  47.930  1.00  0.00     0.035 A 
ENDBRANCH  19  21
ENDBRANCH  18  19
ENDBRANCH  17  18
ENDBRANCH  13  17
BRANCH  10  27
HETATM   27  O   UNL     1      15.079  49.733  46.022  1.00  0.00    -0.385 OA
HETATM   28  H   UNL     1      14.446  50.459  46.174  1.00  0.00     0.211 HD
ENDBRANCH  10  27
ENDBRANCH   1  10
BRANCH   6  29
HETATM   29  C   UNL     1      20.510  43.709  46.728  1.00  0.00     0.277 C 
HETATM   30  N   UNL     1      21.890  43.888  46.951  1.00  0.00    -0.345 N 
HETATM   31  C   UNL     1      22.748  42.700  46.905  1.00  0.00     0.154 C 
HETATM   32  C   UNL     1      22.540  45.175  47.199  1.00  0.00     0.128 C 
HETATM   33  C   UNL     1      23.507  42.433  48.216  1.00  0.00     0.254 C 
HETATM   34  N   UNL     1      24.595  43.480  48.432  1.00  0.00    -0.073 N 
HETATM   35  H   UNL     1      24.937  43.760  47.504  1.00  0.00     0.279 HD
HETATM   36  C   UNL     1      25.802  42.874  49.115  1.00  0.00     0.269 C 
HETATM   37  C   UNL     1      24.157  44.731  49.154  1.00  0.00     0.236 C 
HETATM   38  C   UNL     1      22.840  45.339  48.680  1.00  0.00     0.048 C 
HETATM   39  O   UNL     1      20.089  42.600  46.394  1.00  0.00    -0.265 OA
ENDBRANCH   6  29
TORSDOF 7
ENDMDL
MODEL 8
REMARK VINA RESULT:      -9.9     11.645     13.545
REMARK  7 active torsions:
REMARK  status: ('A' for Active; 'I' for Inactive)
REMARK    1  A    between atoms: C_4  and  C_5 
REMARK    2  A    between atoms: C_5  and  C_6 
REMARK    3  A    between atoms: C_6  and  C_7 
REMARK    4  A    between atoms: C_7  and  N_8 
REMARK    5  A    between atoms: C_12  and  O_13 
REMARK    6  A    between atoms: C_12  and  C_14 
REMARK    7  A    between atoms: C_19  and  C_20 
REMARK       I    between atoms: C_20  and  N_21 
ROOT
HETATM    1  C   UNL     1      29.141  52.018  40.478  1.00  0.00    -0.023 A 
HETATM    2  C   UNL     1      28.379  51.858  39.296  1.00  0.00     0.024 A 
HETATM    3  C   UNL     1      27.497  50.768  39.161  1.00  0.00     0.001 A 
HETATM    4  C   UNL     1      27.344  49.899  40.230  1.00  0.00     0.086 A 
HETATM    5  O   UNL     1      26.491  48.889  39.905  1.00  0.00    -0.304 OA
HETATM    6  C   UNL     1      26.089  49.098  38.609  1.00  0.00     0.144 A 
HETATM    7  C   UNL     1      26.645  50.276  38.142  1.00  0.00     0.057 A 
HETATM    8  C   UNL     1      27.983  50.065  41.451  1.00  0.00     0.039 A 
HETATM    9  C   UNL     1      28.874  51.146  41.555  1.00  0.00     0.013 A 
ENDROOT
BRANCH   1  10
HETATM   10  C   UNL     1      30.204  53.125  40.582  1.00  0.00     0.088 C 
HETATM   11  C   UNL     1      31.455  52.889  39.714  1.00  0.00     0.071 C 
HETATM   12  C   UNL     1      32.230  51.662  40.161  1.00  0.00     0.238 C 
HETATM   13  N   UNL     1      32.635  51.760  41.615  1.00  0.00    -0.071 N 
HETATM   14  H   UNL     1      33.367  52.484  41.687  1.00  0.00     0.279 HD
HETATM   15  C   UNL     1      31.507  52.180  42.540  1.00  0.00     0.238 C 
HETATM   16  C   UNL     1      30.748  53.379  41.999  1.00  0.00     0.071 C 
BRANCH  13  17
HETATM   17  C   UNL     1      33.241  50.461  42.145  1.00  0.00     0.235 C 
BRANCH  17  18
HETATM   18  C   UNL     1      33.182  49.330  41.120  1.00  0.00     0.038 C 
BRANCH  18  19
HETATM   19  C   UNL     1      32.142  48.259  41.515  1.00  0.00     0.040 C 
HETATM   20  C   UNL     1      31.422  48.663  42.802  1.00  0.00     0.017 C 
BRANCH  19  21
HETATM   21  C   UNL     1      31.152  47.988  40.431  1.00  0.00     0.057 A 
HETATM   22  O   UNL     1      30.223  47.020  40.671  1.00  0.00    -0.319 OA
HETATM   23  C   UNL     1      29.448  46.924  39.554  1.00  0.00     0.049 A 
HETATM   24  C   UNL     1      28.387  45.895  39.564  1.00  0.00     0.076 C 
HETATM   25  C   UNL     1      29.859  47.842  38.613  1.00  0.00     0.035 A 
HETATM   26  C   UNL     1      30.959  48.530  39.178  1.00  0.00     0.035 A 
ENDBRANCH  19  21
ENDBRANCH  18  19
ENDBRANCH  17  18
ENDBRANCH  13  17
BRANCH  10  27
HETATM   27  O   UNL     1      29.619  54.349  40.140  1.00  0.00    -0.385 OA
HETATM   28  H   UNL     1      29.207  54.228  39.265  1.00  0.00     0.211 HD
ENDBRANCH  10  27
ENDBRANCH   1  10
BRANCH   6  29
HETATM   29  C   UNL     1      25.153  48.200  37.955  1.00  0.00     0.277 C 
HETATM   30  N   UNL     1      23.785  48.222  38.299  1.00  0.00    -0.345 N 
HETATM   31  C   UNL     1      22.876  47.368  37.528  1.00  0.00     0.154 C 
HETATM   32  C   UNL     1      23.206  49.010  39.386  1.00  0.00     0.128 C 
HETATM   33  C   UNL     1      21.761  48.144  36.807  1.00  0.00     0.254 C 
HETATM   34  N   UNL     1      20.750  48.692  37.809  1.00  0.00    -0.073 N 
HETATM   35  H   UNL     1      20.706  48.027  38.592  1.00  0.00     0.279 HD
HETATM   36  C   UNL     1      19.352  48.686  37.227  1.00  0.00     0.269 C 
HETATM   37  C   UNL     1      21.075  50.051  38.380  1.00  0.00     0.236 C 
HETATM   38  C   UNL     1      22.519  50.248  38.832  1.00  0.00     0.048 C 
HETATM   39  O   UNL     1      25.553  47.397  37.111  1.00  0.00    -0.265 OA
ENDBRANCH   6  29
TORSDOF 7
ENDMDL
MODEL 9
REMARK VINA RESULT:      -9.7      5.259      9.952
REMARK  7 active torsions:
REMARK  status: ('A' for Active; 'I' for Inactive)
REMARK    1  A    between atoms: C_4  and  C_5 
REMARK    2  A    between atoms: C_5  and  C_6 
REMARK    3  A    between atoms: C_6  and  C_7 
REMARK    4  A    between atoms: C_7  and  N_8 
REMARK    5  A    between atoms: C_12  and  O_13 
REMARK    6  A    between atoms: C_12  and  C_14 
REMARK    7  A    between atoms: C_19  and  C_20 
REMARK       I    between atoms: C_20  and  N_21 
ROOT
HETATM    1  C   UNL     1      16.964  50.108  48.798  1.00  0.00    -0.023 A 
HETATM    2  C   UNL     1      15.824  50.830  48.372  1.00  0.00     0.024 A 
HETATM    3  C   UNL     1      15.636  52.166  48.776  1.00  0.00     0.001 A 
HETATM    4  C   UNL     1      16.618  52.774  49.542  1.00  0.00     0.086 A 
HETATM    5  O   UNL     1      16.247  54.042  49.873  1.00  0.00    -0.304 OA
HETATM    6  C   UNL     1      15.009  54.259  49.324  1.00  0.00     0.144 A 
HETATM    7  C   UNL     1      14.629  53.145  48.596  1.00  0.00     0.057 A 
HETATM    8  C   UNL     1      17.806  52.152  49.901  1.00  0.00     0.039 A 
HETATM    9  C   UNL     1      17.962  50.814  49.504  1.00  0.00     0.013 A 
ENDROOT
BRANCH   1  10
HETATM   10  C   UNL     1      17.112  48.612  48.475  1.00  0.00     0.088 C 
HETATM   11  C   UNL     1      18.065  47.849  49.415  1.00  0.00     0.071 C 
HETATM   12  C   UNL     1      19.496  48.343  49.293  1.00  0.00     0.238 C 
HETATM   13  N   UNL     1      19.999  48.239  47.871  1.00  0.00    -0.071 N 
HETATM   14  H   UNL     1      20.126  47.237  47.657  1.00  0.00     0.279 HD
HETATM   15  C   UNL     1      19.038  48.793  46.836  1.00  0.00     0.238 C 
HETATM   16  C   UNL     1      17.621  48.296  47.056  1.00  0.00     0.071 C 
BRANCH  13  17
HETATM   17  C   UNL     1      21.360  48.909  47.679  1.00  0.00     0.235 C 
BRANCH  17  18
HETATM   18  C   UNL     1      21.281  50.431  47.782  1.00  0.00     0.038 C 
BRANCH  18  19
HETATM   19  C   UNL     1      22.331  50.989  48.766  1.00  0.00     0.040 C 
HETATM   20  C   UNL     1      21.798  50.947  50.198  1.00  0.00     0.017 C 
BRANCH  19  21
HETATM   21  C   UNL     1      23.640  50.275  48.680  1.00  0.00     0.057 A 
HETATM   22  O   UNL     1      23.831  49.230  49.534  1.00  0.00    -0.319 OA
HETATM   23  C   UNL     1      25.084  48.748  49.302  1.00  0.00     0.049 A 
HETATM   24  C   UNL     1      25.537  47.627  50.152  1.00  0.00     0.076 C 
HETATM   25  C   UNL     1      25.685  49.461  48.288  1.00  0.00     0.035 A 
HETATM   26  C   UNL     1      24.753  50.447  47.885  1.00  0.00     0.035 A 
ENDBRANCH  19  21
ENDBRANCH  18  19
ENDBRANCH  17  18
ENDBRANCH  13  17
BRANCH  10  27
HETATM   27  O   UNL     1      15.830  47.999  48.598  1.00  0.00    -0.385 OA
HETATM   28  H   UNL     1      15.774  47.503  49.436  1.00  0.00     0.211 HD
ENDBRANCH  10  27
ENDBRANCH   1  10
BRANCH   6  29
HETATM   29  C   UNL     1      14.327  55.533  49.477  1.00  0.00     0.277 C 
HETATM   30  N   UNL     1      13.918  55.974  50.752  1.00  0.00    -0.345 N 
HETATM   31  C   UNL     1      13.331  57.314  50.854  1.00  0.00     0.154 C 
HETATM   32  C   UNL     1      14.007  55.185  51.981  1.00  0.00     0.128 C 
HETATM   33  C   UNL     1      14.104  58.258  51.790  1.00  0.00     0.254 C 
HETATM   34  N   UNL     1      13.934  57.834  53.245  1.00  0.00    -0.073 N 
HETATM   35  H   UNL     1      12.998  57.420  53.334  1.00  0.00     0.279 HD
HETATM   36  C   UNL     1      13.907  59.039  54.161  1.00  0.00     0.269 C 
HETATM   37  C   UNL     1      14.933  56.818  53.745  1.00  0.00     0.236 C 
HETATM   38  C   UNL     1      15.195  55.638  52.814  1.00  0.00     0.048 C 
HETATM   39  O   UNL     1      14.081  56.226  48.489  1.00  0.00    -0.265 OA
ENDBRANCH   6  29
TORSDOF 7
ENDMDL
MODEL 10
REMARK VINA RESULT:      -9.3     18.729     23.200
REMARK  7 active torsions:
REMARK  status: ('A' for Active; 'I' for Inactive)
REMARK    1  A    between atoms: C_4  and  C_5 
REMARK    2  A    between atoms: C_5  and  C_6 
REMARK    3  A    between atoms: C_6  and  C_7 
REMARK    4  A    between atoms: C_7  and  N_8 
REMARK    5  A    between atoms: C_12  and  O_13 
REMARK    6  A    between atoms: C_12  and  C_14 
REMARK    7  A    between atoms: C_19  and  C_20 
REMARK       I    between atoms: C_20  and  N_21 
ROOT
HETATM    1  C   UNL     1      38.686  41.520  63.989  1.00  0.00    -0.023 A 
HETATM    2  C   UNL     1      39.317  40.909  65.097  1.00  0.00     0.024 A 
HETATM    3  C   UNL     1      39.998  39.685  64.943  1.00  0.00     0.001 A 
HETATM    4  C   UNL     1      40.089  39.130  63.676  1.00  0.00     0.086 A 
HETATM    5  O   UNL     1      40.739  37.935  63.724  1.00  0.00    -0.304 OA
HETATM    6  C   UNL     1      41.068  37.705  65.036  1.00  0.00     0.144 A 
HETATM    7  C   UNL     1      40.676  38.788  65.803  1.00  0.00     0.057 A 
HETATM    8  C   UNL     1      39.583  39.737  62.534  1.00  0.00     0.039 A 
HETATM    9  C   UNL     1      38.891  40.946  62.717  1.00  0.00     0.013 A 
ENDROOT
BRANCH   1  10
HETATM   10  C   UNL     1      37.828  42.784  64.173  1.00  0.00     0.088 C 
HETATM   11  C   UNL     1      38.009  43.842  63.067  1.00  0.00     0.071 C 
HETATM   12  C   UNL     1      39.416  44.412  63.053  1.00  0.00     0.238 C 
HETATM   13  N   UNL     1      39.784  45.012  64.392  1.00  0.00    -0.071 N 
HETATM   14  H   UNL     1      39.231  45.876  64.509  1.00  0.00     0.279 HD
HETATM   15  C   UNL     1      39.464  44.119  65.576  1.00  0.00     0.238 C 
HETATM   16  C   UNL     1      38.061  43.547  65.490  1.00  0.00     0.071 C 
BRANCH  13  17
HETATM   17  C   UNL     1      41.257  45.415  64.470  1.00  0.00     0.235 C 
BRANCH  17  18
HETATM   18  C   UNL     1      41.439  46.912  64.718  1.00  0.00     0.038 C 
BRANCH  18  19
HETATM   19  C   UNL     1      40.794  47.349  66.051  1.00  0.00     0.040 C 
HETATM   20  C   UNL     1      41.786  48.160  66.885  1.00  0.00     0.017 C 
BRANCH  19  21
HETATM   21  C   UNL     1      39.530  48.119  65.856  1.00  0.00     0.057 A 
HETATM   22  O   UNL     1      38.364  47.416  65.908  1.00  0.00    -0.319 OA
HETATM   23  C   UNL     1      37.353  48.302  65.683  1.00  0.00     0.049 A 
HETATM   24  C   UNL     1      35.981  47.754  65.646  1.00  0.00     0.076 C 
HETATM   25  C   UNL     1      37.863  49.570  65.515  1.00  0.00     0.035 A 
HETATM   26  C   UNL     1      39.269  49.453  65.627  1.00  0.00     0.035 A 
ENDBRANCH  19  21
ENDBRANCH  18  19
ENDBRANCH  17  18
ENDBRANCH  13  17
BRANCH  10  27
HETATM   27  O   UNL     1      36.455  42.399  64.157  1.00  0.00    -0.385 OA
HETATM   28  H   UNL     1      35.960  42.892  64.837  1.00  0.00     0.211 HD
ENDBRANCH  10  27
ENDBRANCH   1  10
BRANCH   6  29
HETATM   29  C   UNL     1      41.792  36.510  65.436  1.00  0.00     0.277 C 
HETATM   30  N   UNL     1      41.252  35.641  66.406  1.00  0.00    -0.345 N 
HETATM   31  C   UNL     1      41.979  34.399  66.688  1.00  0.00     0.154 C 
HETATM   32  C   UNL     1      40.035  35.895  67.176  1.00  0.00     0.128 C 
HETATM   33  C   UNL     1      41.157  33.127  66.424  1.00  0.00     0.254 C 
HETATM   34  N   UNL     1      40.051  32.973  67.464  1.00  0.00    -0.073 N 
HETATM   35  H   UNL     1      40.401  33.376  68.343  1.00  0.00     0.279 HD
HETATM   36  C   UNL     1      39.806  31.514  67.784  1.00  0.00     0.269 C 
HETATM   37  C   UNL     1      38.750  33.663  67.133  1.00  0.00     0.236 C 
HETATM   38  C   UNL     1      38.875  35.092  66.611  1.00  0.00     0.048 C 
HETATM   39  O   UNL     1      42.894  36.261  64.945  1.00  0.00    -0.265 OA
ENDBRANCH   6  29
TORSDOF 7
ENDMDL
