MODEL 1
REMARK VINA RESULT:      -8.2      0.000      0.000
REMARK  5 active torsions:
REMARK  status: ('A' for Active; 'I' for Inactive)
REMARK    1  A    between atoms: C_3  and  C_4 
REMARK    2  A    between atoms: C_4  and  C_5 
REMARK    3  A    between atoms: C_5  and  N_6 
REMARK       I    between atoms: N_6  and  C_7 
REMARK       I    between atoms: C_7  and  N_8 
REMARK    4  A    between atoms: N_8  and  C_9 
REMARK    5  A    between atoms: N_11  and  C_12 
ROOT
HETATM    1  C   UNL     1      25.200  45.014  51.936  1.00  0.00     0.159 A 
HETATM    2  N   UNL     1      25.621  46.250  51.670  1.00  0.00    -0.149 NA
HETATM    3  N   UNL     1      25.452  46.434  50.342  1.00  0.00    -0.241 N 
HETATM    4  C   UNL     1      24.951  45.282  49.763  1.00  0.00     0.129 A 
HETATM    5  C   UNL     1      24.771  44.351  50.762  1.00  0.00     0.003 A 
HETATM    6  C   UNL     1      24.247  42.972  50.622  1.00  0.00     0.054 C 
ENDROOT
BRANCH   1   7
HETATM    7  N   UNL     1      25.183  44.451  53.192  1.00  0.00    -0.291 N 
HETATM    8  C   UNL     1      26.212  44.250  54.060  1.00  0.00     0.321 C 
HETATM    9  N   UNL     1      27.456  44.606  53.648  1.00  0.00    -0.343 N 
HETATM   10  O   UNL     1      25.981  43.761  55.164  1.00  0.00    -0.247 OA
HETATM   11  H   UNL     1      27.530  44.983  52.704  1.00  0.00     0.164 HD
HETATM   12  H   UNL     1      24.291  44.154  53.560  1.00  0.00     0.172 HD
BRANCH   9  13
HETATM   13  C   UNL     1      28.638  44.467  54.469  1.00  0.00     0.128 C 
BRANCH  13  14
HETATM   14  C   UNL     1      29.576  43.366  53.967  1.00  0.00     0.046 C 
BRANCH  14  15
HETATM   15  C   UNL     1      30.707  43.121  54.930  1.00  0.00    -0.029 C 
HETATM   16  C   UNL     1      30.781  43.655  56.158  1.00  0.00    -0.035 C 
HETATM   17  C   UNL     1      31.912  43.413  57.105  1.00  0.00     0.036 C 
ENDBRANCH  14  15
ENDBRANCH  13  14
ENDBRANCH   9  13
ENDBRANCH   1   7
BRANCH   3  18
HETATM   18  C   UNL     1      25.738  47.677  49.693  1.00  0.00     0.079 A 
HETATM   19  C   UNL     1      24.742  48.537  49.184  1.00  0.00     0.062 A 
HETATM   20 CL   UNL     1      23.032  48.299  49.311  1.00  0.00    -0.082 Cl
HETATM   21  C   UNL     1      25.112  49.730  48.538  1.00  0.00     0.026 A 
HETATM   22  C   UNL     1      26.451  50.085  48.390  1.00  0.00     0.002 A 
HETATM   23  C   UNL     1      27.439  49.251  48.891  1.00  0.00     0.002 A 
HETATM   24  C   UNL     1      27.088  48.060  49.535  1.00  0.00     0.033 A 
ENDBRANCH   3  18
TORSDOF 5
ENDMDL
MODEL 2
REMARK VINA RESULT:      -8.1      1.608      1.910
REMARK  5 active torsions:
REMARK  status: ('A' for Active; 'I' for Inactive)
REMARK    1  A    between atoms: C_3  and  C_4 
REMARK    2  A    between atoms: C_4  and  C_5 
REMARK    3  A    between atoms: C_5  and  N_6 
REMARK       I    between atoms: N_6  and  C_7 
REMARK       I    between atoms: C_7  and  N_8 
REMARK    4  A    between atoms: N_8  and  C_9 
REMARK    5  A    between atoms: N_11  and  C_12 
ROOT
HETATM    1  C   UNL     1      26.246  44.676  51.215  1.00  0.00     0.159 A 
HETATM    2  N   UNL     1      26.389  45.519  50.193  1.00  0.00    -0.149 NA
HETATM    3  N   UNL     1      25.906  46.710  50.610  1.00  0.00    -0.241 N 
HETATM    4  C   UNL     1      25.420  46.601  51.900  1.00  0.00     0.129 A 
HETATM    5  C   UNL     1      25.630  45.307  52.322  1.00  0.00     0.003 A 
HETATM    6  C   UNL     1      25.283  44.722  53.639  1.00  0.00     0.054 C 
ENDROOT
BRANCH   1   7
HETATM    7  N   UNL     1      26.647  43.359  51.199  1.00  0.00    -0.291 N 
HETATM    8  C   UNL     1      27.772  42.795  51.716  1.00  0.00     0.321 C 
HETATM    9  N   UNL     1      28.672  43.623  52.305  1.00  0.00    -0.343 N 
HETATM   10  O   UNL     1      27.929  41.578  51.631  1.00  0.00    -0.247 OA
HETATM   11  H   UNL     1      28.446  44.617  52.299  1.00  0.00     0.164 HD
HETATM   12  H   UNL     1      26.028  42.688  50.769  1.00  0.00     0.172 HD
BRANCH   9  13
HETATM   13  C   UNL     1      29.902  43.163  52.912  1.00  0.00     0.128 C 
BRANCH  13  14
HETATM   14  C   UNL     1      29.704  42.693  54.355  1.00  0.00     0.046 C 
BRANCH  14  15
HETATM   15  C   UNL     1      30.504  43.525  55.322  1.00  0.00    -0.029 C 
HETATM   16  C   UNL     1      31.110  43.038  56.415  1.00  0.00    -0.035 C 
HETATM   17  C   UNL     1      31.896  43.872  57.374  1.00  0.00     0.036 C 
ENDBRANCH  14  15
ENDBRANCH  13  14
ENDBRANCH   9  13
ENDBRANCH   1   7
BRANCH   3  18
HETATM   18  C   UNL     1      25.949  47.888  49.797  1.00  0.00     0.079 A 
HETATM   19  C   UNL     1      24.807  48.470  49.210  1.00  0.00     0.062 A 
HETATM   20 CL   UNL     1      23.173  47.934  49.413  1.00  0.00    -0.082 Cl
HETATM   21  C   UNL     1      24.942  49.615  48.404  1.00  0.00     0.026 A 
HETATM   22  C   UNL     1      26.187  50.193  48.174  1.00  0.00     0.002 A 
HETATM   23  C   UNL     1      27.318  49.633  48.751  1.00  0.00     0.002 A 
HETATM   24  C   UNL     1      27.202  48.494  49.554  1.00  0.00     0.033 A 
ENDBRANCH   3  18
TORSDOF 5
ENDMDL
MODEL 3
REMARK VINA RESULT:      -8.1      2.775      7.713
REMARK  5 active torsions:
REMARK  status: ('A' for Active; 'I' for Inactive)
REMARK    1  A    between atoms: C_3  and  C_4 
REMARK    2  A    between atoms: C_4  and  C_5 
REMARK    3  A    between atoms: C_5  and  N_6 
REMARK       I    between atoms: N_6  and  C_7 
REMARK       I    between atoms: C_7  and  N_8 
REMARK    4  A    between atoms: N_8  and  C_9 
REMARK    5  A    between atoms: N_11  and  C_12 
ROOT
HETATM    1  C   UNL     1      26.598  45.384  54.447  1.00  0.00     0.159 A 
HETATM    2  N   UNL     1      27.570  44.588  54.891  1.00  0.00    -0.149 NA
HETATM    3  N   UNL     1      28.469  45.388  55.505  1.00  0.00    -0.241 N 
HETATM    4  C   UNL     1      28.070  46.709  55.412  1.00  0.00     0.129 A 
HETATM    5  C   UNL     1      26.867  46.741  54.743  1.00  0.00     0.003 A 
HETATM    6  C   UNL     1      26.051  47.934  54.414  1.00  0.00     0.054 C 
ENDROOT
BRANCH   1   7
HETATM    7  N   UNL     1      25.474  44.944  53.785  1.00  0.00    -0.291 N 
HETATM    8  C   UNL     1      25.173  45.013  52.459  1.00  0.00     0.321 C 
HETATM    9  N   UNL     1      26.067  45.631  51.646  1.00  0.00    -0.343 N 
HETATM   10  O   UNL     1      24.121  44.522  52.054  1.00  0.00    -0.247 OA
HETATM   11  H   UNL     1      26.896  46.019  52.096  1.00  0.00     0.164 HD
HETATM   12  H   UNL     1      24.761  44.481  54.329  1.00  0.00     0.172 HD
BRANCH   9  13
HETATM   13  C   UNL     1      25.889  45.762  50.217  1.00  0.00     0.128 C 
BRANCH  13  14
HETATM   14  C   UNL     1      24.968  46.926  49.844  1.00  0.00     0.046 C 
BRANCH  14  15
HETATM   15  C   UNL     1      25.750  48.182  49.561  1.00  0.00    -0.029 C 
HETATM   16  C   UNL     1      27.072  48.212  49.336  1.00  0.00    -0.035 C 
HETATM   17  C   UNL     1      27.843  49.463  49.064  1.00  0.00     0.036 C 
ENDBRANCH  14  15
ENDBRANCH  13  14
ENDBRANCH   9  13
ENDBRANCH   1   7
BRANCH   3  18
HETATM   18  C   UNL     1      29.631  44.878  56.168  1.00  0.00     0.079 A 
HETATM   19  C   UNL     1      30.451  43.865  55.631  1.00  0.00     0.062 A 
HETATM   20 CL   UNL     1      30.262  43.118  54.080  1.00  0.00    -0.082 Cl
HETATM   21  C   UNL     1      31.562  43.405  56.360  1.00  0.00     0.026 A 
HETATM   22  C   UNL     1      31.874  43.934  57.610  1.00  0.00     0.002 A 
HETATM   23  C   UNL     1      31.078  44.934  58.147  1.00  0.00     0.002 A 
HETATM   24  C   UNL     1      29.969  45.403  57.435  1.00  0.00     0.033 A 
ENDBRANCH   3  18
TORSDOF 5
ENDMDL
MODEL 4
REMARK VINA RESULT:      -7.9      2.669      6.909
REMARK  5 active torsions:
REMARK  status: ('A' for Active; 'I' for Inactive)
REMARK    1  A    between atoms: C_3  and  C_4 
REMARK    2  A    between atoms: C_4  and  C_5 
REMARK    3  A    between atoms: C_5  and  N_6 
REMARK       I    between atoms: N_6  and  C_7 
REMARK       I    between atoms: C_7  and  N_8 
REMARK    4  A    between atoms: N_8  and  C_9 
REMARK    5  A    between atoms: N_11  and  C_12 
ROOT
HETATM    1  C   UNL     1      27.067  42.197  52.121  1.00  0.00     0.159 A 
HETATM    2  N   UNL     1      27.302  43.009  53.151  1.00  0.00    -0.149 NA
HETATM    3  N   UNL     1      28.604  42.848  53.475  1.00  0.00    -0.241 N 
HETATM    4  C   UNL     1      29.183  41.893  52.659  1.00  0.00     0.129 A 
HETATM    5  C   UNL     1      28.223  41.459  51.772  1.00  0.00     0.003 A 
HETATM    6  C   UNL     1      28.379  40.447  50.701  1.00  0.00     0.054 C 
ENDROOT
BRANCH   1   7
HETATM    7  N   UNL     1      25.855  42.088  51.477  1.00  0.00    -0.291 N 
HETATM    8  C   UNL     1      25.093  43.060  50.906  1.00  0.00     0.321 C 
HETATM    9  N   UNL     1      25.538  44.339  50.998  1.00  0.00    -0.343 N 
HETATM   10  O   UNL     1      24.047  42.749  50.339  1.00  0.00    -0.247 OA
HETATM   11  H   UNL     1      26.409  44.479  51.510  1.00  0.00     0.164 HD
HETATM   12  H   UNL     1      25.459  41.165  51.379  1.00  0.00     0.172 HD
BRANCH   9  13
HETATM   13  C   UNL     1      24.843  45.469  50.424  1.00  0.00     0.128 C 
BRANCH  13  14
HETATM   14  C   UNL     1      25.031  46.750  51.241  1.00  0.00     0.046 C 
BRANCH  14  15
HETATM   15  C   UNL     1      26.263  47.503  50.813  1.00  0.00    -0.029 C 
HETATM   16  C   UNL     1      26.412  48.088  49.616  1.00  0.00    -0.035 C 
HETATM   17  C   UNL     1      27.642  48.827  49.196  1.00  0.00     0.036 C 
ENDBRANCH  14  15
ENDBRANCH  13  14
ENDBRANCH   9  13
ENDBRANCH   1   7
BRANCH   3  18
HETATM   18  C   UNL     1      29.243  43.610  54.505  1.00  0.00     0.079 A 
HETATM   19  C   UNL     1      28.852  44.917  54.863  1.00  0.00     0.062 A 
HETATM   20 CL   UNL     1      27.517  45.796  54.199  1.00  0.00    -0.082 Cl
HETATM   21  C   UNL     1      29.551  45.604  55.871  1.00  0.00     0.026 A 
HETATM   22  C   UNL     1      30.628  45.017  56.532  1.00  0.00     0.002 A 
HETATM   23  C   UNL     1      31.018  43.730  56.192  1.00  0.00     0.002 A 
HETATM   24  C   UNL     1      30.335  43.033  55.191  1.00  0.00     0.033 A 
ENDBRANCH   3  18
TORSDOF 5
ENDMDL
MODEL 5
REMARK VINA RESULT:      -7.8      4.089      6.736
REMARK  5 active torsions:
REMARK  status: ('A' for Active; 'I' for Inactive)
REMARK    1  A    between atoms: C_3  and  C_4 
REMARK    2  A    between atoms: C_4  and  C_5 
REMARK    3  A    between atoms: C_5  and  N_6 
REMARK       I    between atoms: N_6  and  C_7 
REMARK       I    between atoms: C_7  and  N_8 
REMARK    4  A    between atoms: N_8  and  C_9 
REMARK    5  A    between atoms: N_11  and  C_12 
ROOT
HETATM    1  C   UNL     1      27.231  43.927  51.429  1.00  0.00     0.159 A 
HETATM    2  N   UNL     1      28.363  43.910  52.132  1.00  0.00    -0.149 NA
HETATM    3  N   UNL     1      28.043  44.308  53.383  1.00  0.00    -0.241 N 
HETATM    4  C   UNL     1      26.695  44.613  53.454  1.00  0.00     0.129 A 
HETATM    5  C   UNL     1      26.143  44.372  52.215  1.00  0.00     0.003 A 
HETATM    6  C   UNL     1      24.727  44.545  51.813  1.00  0.00     0.054 C 
ENDROOT
BRANCH   1   7
HETATM    7  N   UNL     1      27.131  43.558  50.106  1.00  0.00    -0.291 N 
HETATM    8  C   UNL     1      27.133  42.312  49.558  1.00  0.00     0.321 C 
HETATM    9  N   UNL     1      27.295  41.259  50.398  1.00  0.00    -0.343 N 
HETATM   10  O   UNL     1      26.992  42.191  48.342  1.00  0.00    -0.247 OA
HETATM   11  H   UNL     1      27.423  41.482  51.385  1.00  0.00     0.164 HD
HETATM   12  H   UNL     1      27.017  44.292  49.423  1.00  0.00     0.172 HD
BRANCH   9  13
HETATM   13  C   UNL     1      27.299  39.881  49.959  1.00  0.00     0.128 C 
BRANCH  13  14
HETATM   14  C   UNL     1      28.708  39.367  49.651  1.00  0.00     0.046 C 
BRANCH  14  15
HETATM   15  C   UNL     1      28.928  37.987  50.212  1.00  0.00    -0.029 C 
HETATM   16  C   UNL     1      29.803  37.699  51.187  1.00  0.00    -0.035 C 
HETATM   17  C   UNL     1      30.022  36.325  51.732  1.00  0.00     0.036 C 
ENDBRANCH  14  15
ENDBRANCH  13  14
ENDBRANCH   9  13
ENDBRANCH   1   7
BRANCH   3  18
HETATM   18  C   UNL     1      28.999  44.355  54.447  1.00  0.00     0.079 A 
HETATM   19  C   UNL     1      29.201  45.487  55.263  1.00  0.00     0.062 A 
HETATM   20 CL   UNL     1      28.307  46.968  55.186  1.00  0.00    -0.082 Cl
HETATM   21  C   UNL     1      30.179  45.457  56.272  1.00  0.00     0.026 A 
HETATM   22  C   UNL     1      30.958  44.322  56.488  1.00  0.00     0.002 A 
HETATM   23  C   UNL     1      30.765  43.200  55.696  1.00  0.00     0.002 A 
HETATM   24  C   UNL     1      29.797  43.214  54.687  1.00  0.00     0.033 A 
ENDBRANCH   3  18
TORSDOF 5
ENDMDL
MODEL 6
REMARK VINA RESULT:      -7.8      3.972      7.280
REMARK  5 active torsions:
REMARK  status: ('A' for Active; 'I' for Inactive)
REMARK    1  A    between atoms: C_3  and  C_4 
REMARK    2  A    between atoms: C_4  and  C_5 
REMARK    3  A    between atoms: C_5  and  N_6 
REMARK       I    between atoms: N_6  and  C_7 
REMARK       I    between atoms: C_7  and  N_8 
REMARK    4  A    between atoms: N_8  and  C_9 
REMARK    5  A    between atoms: N_11  and  C_12 
ROOT
HETATM    1  C   UNL     1      26.671  45.279  54.241  1.00  0.00     0.159 A 
HETATM    2  N   UNL     1      27.649  44.528  54.745  1.00  0.00    -0.149 NA
HETATM    3  N   UNL     1      28.465  45.367  55.421  1.00  0.00    -0.241 N 
HETATM    4  C   UNL     1      28.009  46.668  55.307  1.00  0.00     0.129 A 
HETATM    5  C   UNL     1      26.852  46.645  54.560  1.00  0.00     0.003 A 
HETATM    6  C   UNL     1      26.002  47.799  54.182  1.00  0.00     0.054 C 
ENDROOT
BRANCH   1   7
HETATM    7  N   UNL     1      25.616  44.789  53.504  1.00  0.00    -0.291 N 
HETATM    8  C   UNL     1      25.630  43.948  52.434  1.00  0.00     0.321 C 
HETATM    9  N   UNL     1      26.840  43.544  51.972  1.00  0.00    -0.343 N 
HETATM   10  O   UNL     1      24.564  43.594  51.933  1.00  0.00    -0.247 OA
HETATM   11  H   UNL     1      27.657  43.919  52.454  1.00  0.00     0.164 HD
HETATM   12  H   UNL     1      24.684  45.056  53.786  1.00  0.00     0.172 HD
BRANCH   9  13
HETATM   13  C   UNL     1      27.007  42.639  50.856  1.00  0.00     0.128 C 
BRANCH  13  14
HETATM   14  C   UNL     1      27.414  41.231  51.298  1.00  0.00     0.046 C 
BRANCH  14  15
HETATM   15  C   UNL     1      27.929  40.416  50.142  1.00  0.00    -0.029 C 
HETATM   16  C   UNL     1      28.717  39.338  50.271  1.00  0.00    -0.035 C 
HETATM   17  C   UNL     1      29.231  38.539  49.117  1.00  0.00     0.036 C 
ENDBRANCH  14  15
ENDBRANCH  13  14
ENDBRANCH   9  13
ENDBRANCH   1   7
BRANCH   3  18
HETATM   18  C   UNL     1      29.604  44.910  56.157  1.00  0.00     0.079 A 
HETATM   19  C   UNL     1      30.473  43.899  55.699  1.00  0.00     0.062 A 
HETATM   20 CL   UNL     1      30.376  43.091  54.170  1.00  0.00    -0.082 Cl
HETATM   21  C   UNL     1      31.557  43.493  56.497  1.00  0.00     0.026 A 
HETATM   22  C   UNL     1      31.796  44.074  57.740  1.00  0.00     0.002 A 
HETATM   23  C   UNL     1      30.952  45.075  58.200  1.00  0.00     0.002 A 
HETATM   24  C   UNL     1      29.868  45.489  57.419  1.00  0.00     0.033 A 
ENDBRANCH   3  18
TORSDOF 5
ENDMDL
MODEL 7
REMARK VINA RESULT:      -7.7      2.673      4.310
REMARK  5 active torsions:
REMARK  status: ('A' for Active; 'I' for Inactive)
REMARK    1  A    between atoms: C_3  and  C_4 
REMARK    2  A    between atoms: C_4  and  C_5 
REMARK    3  A    between atoms: C_5  and  N_6 
REMARK       I    between atoms: N_6  and  C_7 
REMARK       I    between atoms: C_7  and  N_8 
REMARK    4  A    between atoms: N_8  and  C_9 
REMARK    5  A    between atoms: N_11  and  C_12 
ROOT
HETATM    1  C   UNL     1      25.484  47.521  49.808  1.00  0.00     0.159 A 
HETATM    2  N   UNL     1      24.173  47.735  49.709  1.00  0.00    -0.149 NA
HETATM    3  N   UNL     1      24.025  48.897  49.035  1.00  0.00    -0.241 N 
HETATM    4  C   UNL     1      25.264  49.436  48.740  1.00  0.00     0.129 A 
HETATM    5  C   UNL     1      26.224  48.572  49.217  1.00  0.00     0.003 A 
HETATM    6  C   UNL     1      27.695  48.722  49.125  1.00  0.00     0.054 C 
ENDROOT
BRANCH   1   7
HETATM    7  N   UNL     1      26.049  46.418  50.408  1.00  0.00    -0.291 N 
HETATM    8  C   UNL     1      26.203  46.142  51.732  1.00  0.00     0.321 C 
HETATM    9  N   UNL     1      25.788  47.081  52.619  1.00  0.00    -0.343 N 
HETATM   10  O   UNL     1      26.705  45.070  52.068  1.00  0.00    -0.247 OA
HETATM   11  H   UNL     1      25.406  47.940  52.224  1.00  0.00     0.164 HD
HETATM   12  H   UNL     1      26.387  45.681  49.807  1.00  0.00     0.172 HD
BRANCH   9  13
HETATM   13  C   UNL     1      25.873  46.917  54.053  1.00  0.00     0.128 C 
BRANCH  13  14
HETATM   14  C   UNL     1      26.928  47.827  54.687  1.00  0.00     0.046 C 
BRANCH  14  15
HETATM   15  C   UNL     1      28.164  47.058  55.070  1.00  0.00    -0.029 C 
HETATM   16  C   UNL     1      28.238  45.719  55.109  1.00  0.00    -0.035 C 
HETATM   17  C   UNL     1      29.467  44.963  55.498  1.00  0.00     0.036 C 
ENDBRANCH  14  15
ENDBRANCH  13  14
ENDBRANCH   9  13
ENDBRANCH   1   7
BRANCH   3  18
HETATM   18  C   UNL     1      22.743  49.426  48.680  1.00  0.00     0.079 A 
HETATM   19  C   UNL     1      21.785  48.710  47.932  1.00  0.00     0.062 A 
HETATM   20 CL   UNL     1      21.940  47.075  47.382  1.00  0.00    -0.082 Cl
HETATM   21  C   UNL     1      20.558  49.314  47.606  1.00  0.00     0.026 A 
HETATM   22  C   UNL     1      20.264  50.614  48.010  1.00  0.00     0.002 A 
HETATM   23  C   UNL     1      21.195  51.327  48.751  1.00  0.00     0.002 A 
HETATM   24  C   UNL     1      22.421  50.741  49.083  1.00  0.00     0.033 A 
ENDBRANCH   3  18
TORSDOF 5
ENDMDL
MODEL 8
REMARK VINA RESULT:      -7.7      3.734      6.755
REMARK  5 active torsions:
REMARK  status: ('A' for Active; 'I' for Inactive)
REMARK    1  A    between atoms: C_3  and  C_4 
REMARK    2  A    between atoms: C_4  and  C_5 
REMARK    3  A    between atoms: C_5  and  N_6 
REMARK       I    between atoms: N_6  and  C_7 
REMARK       I    between atoms: C_7  and  N_8 
REMARK    4  A    between atoms: N_8  and  C_9 
REMARK    5  A    between atoms: N_11  and  C_12 
ROOT
HETATM    1  C   UNL     1      26.350  44.958  53.838  1.00  0.00     0.159 A 
HETATM    2  N   UNL     1      27.321  44.231  54.389  1.00  0.00    -0.149 NA
HETATM    3  N   UNL     1      28.177  45.107  54.960  1.00  0.00    -0.241 N 
HETATM    4  C   UNL     1      27.754  46.403  54.731  1.00  0.00     0.129 A 
HETATM    5  C   UNL     1      26.577  46.343  54.018  1.00  0.00     0.003 A 
HETATM    6  C   UNL     1      25.749  47.479  53.551  1.00  0.00     0.054 C 
ENDROOT
BRANCH   1   7
HETATM    7  N   UNL     1      25.263  44.431  53.178  1.00  0.00    -0.291 N 
HETATM    8  C   UNL     1      25.199  43.858  51.945  1.00  0.00     0.321 C 
HETATM    9  N   UNL     1      26.341  43.818  51.214  1.00  0.00    -0.343 N 
HETATM   10  O   UNL     1      24.126  43.408  51.546  1.00  0.00    -0.247 OA
HETATM   11  H   UNL     1      27.166  44.241  51.639  1.00  0.00     0.164 HD
HETATM   12  H   UNL     1      24.376  44.435  53.660  1.00  0.00     0.172 HD
BRANCH   9  13
HETATM   13  C   UNL     1      26.426  43.226  49.898  1.00  0.00     0.128 C 
BRANCH  13  14
HETATM   14  C   UNL     1      27.260  41.942  49.884  1.00  0.00     0.046 C 
BRANCH  14  15
HETATM   15  C   UNL     1      27.400  41.358  51.265  1.00  0.00    -0.029 C 
HETATM   16  C   UNL     1      28.513  41.439  52.009  1.00  0.00    -0.035 C 
HETATM   17  C   UNL     1      28.647  40.850  53.376  1.00  0.00     0.036 C 
ENDBRANCH  14  15
ENDBRANCH  13  14
ENDBRANCH   9  13
ENDBRANCH   1   7
BRANCH   3  18
HETATM   18  C   UNL     1      29.324  44.689  55.710  1.00  0.00     0.079 A 
HETATM   19  C   UNL     1      29.653  45.205  56.980  1.00  0.00     0.062 A 
HETATM   20 CL   UNL     1      28.724  46.353  57.884  1.00  0.00    -0.082 Cl
HETATM   21  C   UNL     1      30.813  44.757  57.637  1.00  0.00     0.026 A 
HETATM   22  C   UNL     1      31.648  43.804  57.059  1.00  0.00     0.002 A 
HETATM   23  C   UNL     1      31.331  43.285  55.812  1.00  0.00     0.002 A 
HETATM   24  C   UNL     1      30.182  43.721  55.144  1.00  0.00     0.033 A 
ENDBRANCH   3  18
TORSDOF 5
ENDMDL
MODEL 9
REMARK VINA RESULT:      -7.6      4.085      8.569
REMARK  5 active torsions:
REMARK  status: ('A' for Active; 'I' for Inactive)
REMARK    1  A    between atoms: C_3  and  C_4 
REMARK    2  A    between atoms: C_4  and  C_5 
REMARK    3  A    between atoms: C_5  and  N_6 
REMARK       I    between atoms: N_6  and  C_7 
REMARK       I    between atoms: C_7  and  N_8 
REMARK    4  A    between atoms: N_8  and  C_9 
REMARK    5  A    between atoms: N_11  and  C_12 
ROOT
HETATM    1  C   UNL     1      25.103  47.285  50.333  1.00  0.00     0.159 A 
HETATM    2  N   UNL     1      25.822  47.661  51.389  1.00  0.00    -0.149 NA
HETATM    3  N   UNL     1      25.780  46.633  52.266  1.00  0.00    -0.241 N 
HETATM    4  C   UNL     1      24.991  45.614  51.764  1.00  0.00     0.129 A 
HETATM    5  C   UNL     1      24.546  45.998  50.519  1.00  0.00     0.003 A 
HETATM    6  C   UNL     1      23.680  45.227  49.596  1.00  0.00     0.054 C 
ENDROOT
BRANCH   1   7
HETATM    7  N   UNL     1      24.924  48.049  49.201  1.00  0.00    -0.291 N 
HETATM    8  C   UNL     1      23.823  48.739  48.794  1.00  0.00     0.321 C 
HETATM    9  N   UNL     1      22.710  48.653  49.566  1.00  0.00    -0.343 N 
HETATM   10  O   UNL     1      23.877  49.400  47.758  1.00  0.00    -0.247 OA
HETATM   11  H   UNL     1      22.776  48.058  50.391  1.00  0.00     0.164 HD
HETATM   12  H   UNL     1      25.709  48.150  48.576  1.00  0.00     0.172 HD
BRANCH   9  13
HETATM   13  C   UNL     1      21.476  49.345  49.266  1.00  0.00     0.128 C 
BRANCH  13  14
HETATM   14  C   UNL     1      21.469  50.785  49.786  1.00  0.00     0.046 C 
BRANCH  14  15
HETATM   15  C   UNL     1      20.077  51.357  49.812  1.00  0.00    -0.029 C 
HETATM   16  C   UNL     1      19.503  51.993  48.780  1.00  0.00    -0.035 C 
HETATM   17  C   UNL     1      18.123  52.565  48.816  1.00  0.00     0.036 C 
ENDBRANCH  14  15
ENDBRANCH  13  14
ENDBRANCH   9  13
ENDBRANCH   1   7
BRANCH   3  18
HETATM   18  C   UNL     1      26.496  46.646  53.505  1.00  0.00     0.079 A 
HETATM   19  C   UNL     1      27.404  45.638  53.890  1.00  0.00     0.062 A 
HETATM   20 CL   UNL     1      27.870  44.271  52.934  1.00  0.00    -0.082 Cl
HETATM   21  C   UNL     1      28.048  45.715  55.137  1.00  0.00     0.026 A 
HETATM   22  C   UNL     1      27.809  46.776  56.008  1.00  0.00     0.002 A 
HETATM   23  C   UNL     1      26.923  47.777  55.638  1.00  0.00     0.002 A 
HETATM   24  C   UNL     1      26.273  47.715  54.402  1.00  0.00     0.033 A 
ENDBRANCH   3  18
TORSDOF 5
ENDMDL
MODEL 10
REMARK VINA RESULT:      -7.5      3.656      7.683
REMARK  5 active torsions:
REMARK  status: ('A' for Active; 'I' for Inactive)
REMARK    1  A    between atoms: C_3  and  C_4 
REMARK    2  A    between atoms: C_4  and  C_5 
REMARK    3  A    between atoms: C_5  and  N_6 
REMARK       I    between atoms: N_6  and  C_7 
REMARK       I    between atoms: C_7  and  N_8 
REMARK    4  A    between atoms: N_8  and  C_9 
REMARK    5  A    between atoms: N_11  and  C_12 
ROOT
HETATM    1  C   UNL     1      26.681  45.723  54.551  1.00  0.00     0.159 A 
HETATM    2  N   UNL     1      27.619  44.846  54.908  1.00  0.00    -0.149 NA
HETATM    3  N   UNL     1      28.554  45.542  55.591  1.00  0.00    -0.241 N 
HETATM    4  C   UNL     1      28.213  46.883  55.630  1.00  0.00     0.129 A 
HETATM    5  C   UNL     1      27.010  47.032  54.976  1.00  0.00     0.003 A 
HETATM    6  C   UNL     1      26.246  48.285  54.772  1.00  0.00     0.054 C 
ENDROOT
BRANCH   1   7
HETATM    7  N   UNL     1      25.536  45.399  53.858  1.00  0.00    -0.291 N 
HETATM    8  C   UNL     1      25.370  44.516  52.836  1.00  0.00     0.321 C 
HETATM    9  N   UNL     1      26.473  43.871  52.380  1.00  0.00    -0.343 N 
HETATM   10  O   UNL     1      24.245  44.339  52.371  1.00  0.00    -0.247 OA
HETATM   11  H   UNL     1      27.357  44.113  52.828  1.00  0.00     0.164 HD
HETATM   12  H   UNL     1      24.677  45.848  54.138  1.00  0.00     0.172 HD
BRANCH   9  13
HETATM   13  C   UNL     1      26.444  42.895  51.314  1.00  0.00     0.128 C 
BRANCH  13  14
HETATM   14  C   UNL     1      26.923  43.469  49.978  1.00  0.00     0.046 C 
BRANCH  14  15
HETATM   15  C   UNL     1      25.824  44.219  49.273  1.00  0.00    -0.029 C 
HETATM   16  C   UNL     1      24.650  43.678  48.916  1.00  0.00    -0.035 C 
HETATM   17  C   UNL     1      23.567  44.427  48.209  1.00  0.00     0.036 C 
ENDBRANCH  14  15
ENDBRANCH  13  14
ENDBRANCH   9  13
ENDBRANCH   1   7
BRANCH   3  18
HETATM   18  C   UNL     1      29.695  44.920  56.191  1.00  0.00     0.079 A 
HETATM   19  C   UNL     1      30.419  43.873  55.587  1.00  0.00     0.062 A 
HETATM   20 CL   UNL     1      30.123  43.207  54.016  1.00  0.00    -0.082 Cl
HETATM   21  C   UNL     1      31.514  43.301  56.258  1.00  0.00     0.026 A 
HETATM   22  C   UNL     1      31.905  43.753  57.516  1.00  0.00     0.002 A 
HETATM   23  C   UNL     1      31.205  44.787  58.119  1.00  0.00     0.002 A 
HETATM   24  C   UNL     1      30.112  45.366  57.466  1.00  0.00     0.033 A 
ENDBRANCH   3  18
TORSDOF 5
ENDMDL
