MODEL 1
REMARK VINA RESULT:      -9.8      0.000      0.000
REMARK  6 active torsions:
REMARK  status: ('A' for Active; 'I' for Inactive)
REMARK    1  A    between atoms: N_2  and  C_5 
REMARK    2  A    between atoms: C_5  and  C_6 
REMARK    3  A    between atoms: C_6  and  N_7 
REMARK    4  A    between atoms: C_6  and  C_23 
REMARK       I    between atoms: N_7  and  C_8 
REMARK    5  A    between atoms: C_8  and  C_10 
REMARK    6  A    between atoms: C_13  and  C_17 
ROOT
HETATM    1  N   UNL     1      25.846  46.139  51.710  1.00  0.00    -0.347 N 
HETATM    2  C   UNL     1      25.982  46.782  52.920  1.00  0.00     0.252 C 
HETATM    3  O   UNL     1      25.241  47.706  53.246  1.00  0.00    -0.268 OA
HETATM    4  H   UNL     1      26.637  45.581  51.403  1.00  0.00     0.163 HD
ENDROOT
BRANCH   2   5
HETATM    5  C   UNL     1      27.068  46.318  53.822  1.00  0.00     0.032 A 
HETATM    6  C   UNL     1      27.528  47.192  54.808  1.00  0.00     0.018 A 
HETATM    7  C   UNL     1      28.522  46.782  55.697  1.00  0.00     0.014 A 
HETATM    8  C   UNL     1      29.069  45.491  55.621  1.00  0.00    -0.017 A 
HETATM    9  C   UNL     1      28.616  44.603  54.622  1.00  0.00    -0.050 A 
HETATM   10  C   UNL     1      29.152  43.202  54.484  1.00  0.00     0.049 C 
HETATM   11  C   UNL     1      27.603  45.026  53.737  1.00  0.00     0.024 A 
BRANCH   8  12
HETATM   12  C   UNL     1      30.068  45.107  56.600  1.00  0.00     0.011 A 
HETATM   13  C   UNL     1      31.069  44.111  56.566  1.00  0.00     0.152 A 
HETATM   14  N   UNL     1      31.788  44.069  57.690  1.00  0.00    -0.187 NA
HETATM   15  N   UNL     1      31.243  45.030  58.453  1.00  0.00    -0.289 N 
HETATM   16  H   UNL     1      31.629  45.187  59.378  1.00  0.00     0.188 HD
HETATM   17  C   UNL     1      30.204  45.679  57.848  1.00  0.00     0.123 A 
ENDBRANCH   8  12
ENDBRANCH   2   5
BRANCH   1  18
HETATM   18  C   UNL     1      24.962  46.627  50.645  1.00  0.00     0.143 C 
BRANCH  18  19
HETATM   19  C   UNL     1      24.518  45.536  49.615  1.00  0.00     0.263 C 
BRANCH  19  20
HETATM   20  N   UNL     1      23.020  45.274  49.611  1.00  0.00    -0.076 N 
HETATM   21  C   UNL     1      22.316  45.781  48.390  1.00  0.00     0.269 C 
HETATM   22  H   UNL     1      22.631  45.825  50.406  1.00  0.00     0.279 HD
HETATM   23  C   UNL     1      22.684  43.845  49.902  1.00  0.00     0.269 C 
ENDBRANCH  19  20
ENDBRANCH  18  19
BRANCH  18  24
HETATM   24  C   UNL     1      25.653  47.758  49.901  1.00  0.00    -0.034 A 
HETATM   25  C   UNL     1      24.890  48.722  49.225  1.00  0.00     0.009 A 
HETATM   26  C   UNL     1      25.514  49.754  48.522  1.00  0.00     0.001 A 
HETATM   27  C   UNL     1      26.905  49.837  48.488  1.00  0.00     0.000 A 
HETATM   28  C   UNL     1      27.675  48.890  49.159  1.00  0.00     0.001 A 
HETATM   29  C   UNL     1      27.055  47.857  49.863  1.00  0.00     0.009 A 
ENDBRANCH  18  24
ENDBRANCH   1  18
TORSDOF 6
ENDMDL
MODEL 2
REMARK VINA RESULT:      -8.8      4.267      8.070
REMARK  6 active torsions:
REMARK  status: ('A' for Active; 'I' for Inactive)
REMARK    1  A    between atoms: N_2  and  C_5 
REMARK    2  A    between atoms: C_5  and  C_6 
REMARK    3  A    between atoms: C_6  and  N_7 
REMARK    4  A    between atoms: C_6  and  C_23 
REMARK       I    between atoms: N_7  and  C_8 
REMARK    5  A    between atoms: C_8  and  C_10 
REMARK    6  A    between atoms: C_13  and  C_17 
ROOT
HETATM    1  N   UNL     1      28.257  44.295  54.105  1.00  0.00    -0.347 N 
HETATM    2  C   UNL     1      27.189  43.580  53.611  1.00  0.00     0.252 C 
HETATM    3  O   UNL     1      26.040  43.794  53.987  1.00  0.00    -0.268 OA
HETATM    4  H   UNL     1      29.178  43.896  53.952  1.00  0.00     0.163 HD
ENDROOT
BRANCH   2   5
HETATM    5  C   UNL     1      27.480  42.530  52.599  1.00  0.00     0.032 A 
HETATM    6  C   UNL     1      28.476  41.594  52.885  1.00  0.00     0.018 A 
HETATM    7  C   UNL     1      28.755  40.572  51.977  1.00  0.00     0.014 A 
HETATM    8  C   UNL     1      28.041  40.463  50.772  1.00  0.00    -0.017 A 
HETATM    9  C   UNL     1      27.038  41.409  50.472  1.00  0.00    -0.050 A 
HETATM   10  C   UNL     1      26.228  41.352  49.203  1.00  0.00     0.049 C 
HETATM   11  C   UNL     1      26.758  42.431  51.403  1.00  0.00     0.024 A 
BRANCH   8  12
HETATM   12  C   UNL     1      28.346  39.354  49.888  1.00  0.00     0.011 A 
HETATM   13  C   UNL     1      29.236  39.254  48.796  1.00  0.00     0.152 A 
HETATM   14  N   UNL     1      29.216  38.046  48.229  1.00  0.00    -0.187 NA
HETATM   15  N   UNL     1      28.304  37.372  48.947  1.00  0.00    -0.289 N 
HETATM   16  H   UNL     1      28.109  36.409  48.694  1.00  0.00     0.188 HD
HETATM   17  C   UNL     1      27.748  38.113  49.951  1.00  0.00     0.123 A 
ENDBRANCH   8  12
ENDBRANCH   2   5
BRANCH   1  18
HETATM   18  C   UNL     1      28.142  45.206  55.250  1.00  0.00     0.143 C 
BRANCH  18  19
HETATM   19  C   UNL     1      28.029  46.720  54.870  1.00  0.00     0.263 C 
BRANCH  19  20
HETATM   20  N   UNL     1      26.606  47.255  54.911  1.00  0.00    -0.076 N 
HETATM   21  C   UNL     1      26.464  48.552  55.646  1.00  0.00     0.269 C 
HETATM   22  H   UNL     1      26.055  46.561  55.461  1.00  0.00     0.279 HD
HETATM   23  C   UNL     1      25.969  47.301  53.557  1.00  0.00     0.269 C 
ENDBRANCH  19  20
ENDBRANCH  18  19
BRANCH  18  24
HETATM   24  C   UNL     1      29.339  45.012  56.165  1.00  0.00    -0.034 A 
HETATM   25  C   UNL     1      30.307  44.043  55.858  1.00  0.00     0.009 A 
HETATM   26  C   UNL     1      31.401  43.843  56.702  1.00  0.00     0.001 A 
HETATM   27  C   UNL     1      31.543  44.608  57.857  1.00  0.00     0.000 A 
HETATM   28  C   UNL     1      30.594  45.578  58.171  1.00  0.00     0.001 A 
HETATM   29  C   UNL     1      29.499  45.781  57.330  1.00  0.00     0.009 A 
ENDBRANCH  18  24
ENDBRANCH   1  18
TORSDOF 6
ENDMDL
MODEL 3
REMARK VINA RESULT:      -8.6      3.935      5.955
REMARK  6 active torsions:
REMARK  status: ('A' for Active; 'I' for Inactive)
REMARK    1  A    between atoms: N_2  and  C_5 
REMARK    2  A    between atoms: C_5  and  C_6 
REMARK    3  A    between atoms: C_6  and  N_7 
REMARK    4  A    between atoms: C_6  and  C_23 
REMARK       I    between atoms: N_7  and  C_8 
REMARK    5  A    between atoms: C_8  and  C_10 
REMARK    6  A    between atoms: C_13  and  C_17 
ROOT
HETATM    1  N   UNL     1      27.703  41.709  51.643  1.00  0.00    -0.347 N 
HETATM    2  C   UNL     1      27.940  43.056  51.806  1.00  0.00     0.252 C 
HETATM    3  O   UNL     1      27.678  43.868  50.923  1.00  0.00    -0.268 OA
HETATM    4  H   UNL     1      28.177  41.086  52.290  1.00  0.00     0.163 HD
ENDROOT
BRANCH   2   5
HETATM    5  C   UNL     1      28.529  43.494  53.099  1.00  0.00     0.032 A 
HETATM    6  C   UNL     1      29.586  42.753  53.629  1.00  0.00     0.018 A 
HETATM    7  C   UNL     1      30.189  43.151  54.823  1.00  0.00     0.014 A 
HETATM    8  C   UNL     1      29.752  44.299  55.503  1.00  0.00    -0.017 A 
HETATM    9  C   UNL     1      28.679  45.050  54.978  1.00  0.00    -0.050 A 
HETATM   10  C   UNL     1      28.161  46.296  55.650  1.00  0.00     0.049 C 
HETATM   11  C   UNL     1      28.085  44.643  53.765  1.00  0.00     0.024 A 
BRANCH   8  12
HETATM   12  C   UNL     1      30.447  44.687  56.715  1.00  0.00     0.011 A 
HETATM   13  C   UNL     1      31.434  44.021  57.475  1.00  0.00     0.152 A 
HETATM   14  N   UNL     1      31.815  44.721  58.546  1.00  0.00    -0.187 NA
HETATM   15  N   UNL     1      31.064  45.832  58.484  1.00  0.00    -0.289 N 
HETATM   16  H   UNL     1      31.175  46.530  59.212  1.00  0.00     0.188 HD
HETATM   17  C   UNL     1      30.222  45.858  57.408  1.00  0.00     0.123 A 
ENDBRANCH   8  12
ENDBRANCH   2   5
BRANCH   1  18
HETATM   18  C   UNL     1      27.326  41.119  50.353  1.00  0.00     0.143 C 
BRANCH  18  19
HETATM   19  C   UNL     1      25.841  40.635  50.267  1.00  0.00     0.263 C 
BRANCH  19  20
HETATM   20  N   UNL     1      24.896  41.664  49.668  1.00  0.00    -0.076 N 
HETATM   21  C   UNL     1      24.341  42.634  50.664  1.00  0.00     0.269 C 
HETATM   22  H   UNL     1      24.074  41.128  49.314  1.00  0.00     0.279 HD
HETATM   23  C   UNL     1      25.477  42.354  48.473  1.00  0.00     0.269 C 
ENDBRANCH  19  20
ENDBRANCH  18  19
BRANCH  18  24
HETATM   24  C   UNL     1      28.247  39.949  50.050  1.00  0.00    -0.034 A 
HETATM   25  C   UNL     1      28.982  39.349  51.085  1.00  0.00     0.009 A 
HETATM   26  C   UNL     1      29.846  38.286  50.815  1.00  0.00     0.001 A 
HETATM   27  C   UNL     1      29.985  37.810  49.513  1.00  0.00     0.000 A 
HETATM   28  C   UNL     1      29.258  38.392  48.478  1.00  0.00     0.001 A 
HETATM   29  C   UNL     1      28.393  39.455  48.743  1.00  0.00     0.009 A 
ENDBRANCH  18  24
ENDBRANCH   1  18
TORSDOF 6
ENDMDL
MODEL 4
REMARK VINA RESULT:      -8.3      3.792      8.189
REMARK  6 active torsions:
REMARK  status: ('A' for Active; 'I' for Inactive)
REMARK    1  A    between atoms: N_2  and  C_5 
REMARK    2  A    between atoms: C_5  and  C_6 
REMARK    3  A    between atoms: C_6  and  N_7 
REMARK    4  A    between atoms: C_6  and  C_23 
REMARK       I    between atoms: N_7  and  C_8 
REMARK    5  A    between atoms: C_8  and  C_10 
REMARK    6  A    between atoms: C_13  and  C_17 
ROOT
HETATM    1  N   UNL     1      27.788  44.602  53.417  1.00  0.00    -0.347 N 
HETATM    2  C   UNL     1      26.667  43.944  52.966  1.00  0.00     0.252 C 
HETATM    3  O   UNL     1      25.601  43.995  53.574  1.00  0.00    -0.268 OA
HETATM    4  H   UNL     1      28.676  44.307  53.020  1.00  0.00     0.163 HD
ENDROOT
BRANCH   2   5
HETATM    5  C   UNL     1      26.793  43.160  51.709  1.00  0.00     0.032 A 
HETATM    6  C   UNL     1      26.263  43.701  50.536  1.00  0.00     0.018 A 
HETATM    7  C   UNL     1      26.391  43.013  49.329  1.00  0.00     0.014 A 
HETATM    8  C   UNL     1      27.056  41.777  49.271  1.00  0.00    -0.017 A 
HETATM    9  C   UNL     1      27.589  41.220  50.453  1.00  0.00    -0.050 A 
HETATM   10  C   UNL     1      28.320  39.902  50.465  1.00  0.00     0.049 C 
HETATM   11  C   UNL     1      27.462  41.930  51.664  1.00  0.00     0.024 A 
BRANCH   8  12
HETATM   12  C   UNL     1      27.196  41.130  47.981  1.00  0.00     0.011 A 
HETATM   13  C   UNL     1      28.276  41.096  47.070  1.00  0.00     0.152 A 
HETATM   14  N   UNL     1      27.998  40.389  45.972  1.00  0.00    -0.187 NA
HETATM   15  N   UNL     1      26.734  39.980  46.169  1.00  0.00    -0.289 N 
HETATM   16  H   UNL     1      26.293  39.417  45.449  1.00  0.00     0.188 HD
HETATM   17  C   UNL     1      26.205  40.402  47.356  1.00  0.00     0.123 A 
ENDBRANCH   8  12
ENDBRANCH   2   5
BRANCH   1  18
HETATM   18  C   UNL     1      27.862  45.232  54.740  1.00  0.00     0.143 C 
BRANCH  18  19
HETATM   19  C   UNL     1      27.830  46.797  54.720  1.00  0.00     0.263 C 
BRANCH  19  20
HETATM   20  N   UNL     1      26.441  47.382  54.922  1.00  0.00    -0.076 N 
HETATM   21  C   UNL     1      26.423  48.641  55.733  1.00  0.00     0.269 C 
HETATM   22  H   UNL     1      25.914  46.680  55.486  1.00  0.00     0.279 HD
HETATM   23  C   UNL     1      25.684  47.526  53.639  1.00  0.00     0.269 C 
ENDBRANCH  19  20
ENDBRANCH  18  19
BRANCH  18  24
HETATM   24  C   UNL     1      29.128  44.772  55.443  1.00  0.00    -0.034 A 
HETATM   25  C   UNL     1      29.805  43.628  54.992  1.00  0.00     0.009 A 
HETATM   26  C   UNL     1      30.957  43.184  55.642  1.00  0.00     0.001 A 
HETATM   27  C   UNL     1      31.449  43.877  56.747  1.00  0.00     0.000 A 
HETATM   28  C   UNL     1      30.791  45.017  57.202  1.00  0.00     0.001 A 
HETATM   29  C   UNL     1      29.638  45.464  56.555  1.00  0.00     0.009 A 
ENDBRANCH  18  24
ENDBRANCH   1  18
TORSDOF 6
ENDMDL
MODEL 5
REMARK VINA RESULT:      -8.3      2.798      8.437
REMARK  6 active torsions:
REMARK  status: ('A' for Active; 'I' for Inactive)
REMARK    1  A    between atoms: N_2  and  C_5 
REMARK    2  A    between atoms: C_5  and  C_6 
REMARK    3  A    between atoms: C_6  and  N_7 
REMARK    4  A    between atoms: C_6  and  C_23 
REMARK       I    between atoms: N_7  and  C_8 
REMARK    5  A    between atoms: C_8  and  C_10 
REMARK    6  A    between atoms: C_13  and  C_17 
ROOT
HETATM    1  N   UNL     1      26.829  45.055  51.980  1.00  0.00    -0.347 N 
HETATM    2  C   UNL     1      26.811  45.278  50.622  1.00  0.00     0.252 C 
HETATM    3  O   UNL     1      27.524  44.638  49.853  1.00  0.00    -0.268 OA
HETATM    4  H   UNL     1      26.424  45.781  52.563  1.00  0.00     0.163 HD
ENDROOT
BRANCH   2   5
HETATM    5  C   UNL     1      25.893  46.331  50.115  1.00  0.00     0.032 A 
HETATM    6  C   UNL     1      24.518  46.100  50.186  1.00  0.00     0.018 A 
HETATM    7  C   UNL     1      23.622  47.078  49.752  1.00  0.00     0.014 A 
HETATM    8  C   UNL     1      24.083  48.304  49.246  1.00  0.00    -0.017 A 
HETATM    9  C   UNL     1      25.471  48.543  49.164  1.00  0.00    -0.050 A 
HETATM   10  C   UNL     1      26.037  49.837  48.638  1.00  0.00     0.049 C 
HETATM   11  C   UNL     1      26.366  47.551  49.615  1.00  0.00     0.024 A 
BRANCH   8  12
HETATM   12  C   UNL     1      23.103  49.298  48.852  1.00  0.00     0.011 A 
HETATM   13  C   UNL     1      22.378  49.465  47.650  1.00  0.00     0.152 A 
HETATM   14  N   UNL     1      21.571  50.527  47.682  1.00  0.00    -0.187 NA
HETATM   15  N   UNL     1      21.784  51.053  48.899  1.00  0.00    -0.289 N 
HETATM   16  H   UNL     1      21.272  51.890  49.158  1.00  0.00     0.188 HD
HETATM   17  C   UNL     1      22.699  50.357  49.638  1.00  0.00     0.123 A 
ENDBRANCH   8  12
ENDBRANCH   2   5
BRANCH   1  18
HETATM   18  C   UNL     1      27.830  44.202  52.632  1.00  0.00     0.143 C 
BRANCH  18  19
HETATM   19  C   UNL     1      27.350  42.742  52.928  1.00  0.00     0.263 C 
BRANCH  19  20
HETATM   20  N   UNL     1      27.889  41.712  51.949  1.00  0.00    -0.076 N 
HETATM   21  C   UNL     1      28.821  40.714  52.566  1.00  0.00     0.269 C 
HETATM   22  H   UNL     1      28.467  42.244  51.262  1.00  0.00     0.279 HD
HETATM   23  C   UNL     1      26.808  41.054  51.150  1.00  0.00     0.269 C 
ENDBRANCH  19  20
ENDBRANCH  18  19
BRANCH  18  24
HETATM   24  C   UNL     1      28.269  44.852  53.933  1.00  0.00    -0.034 A 
HETATM   25  C   UNL     1      29.336  44.306  54.665  1.00  0.00     0.009 A 
HETATM   26  C   UNL     1      29.735  44.883  55.872  1.00  0.00     0.001 A 
HETATM   27  C   UNL     1      29.078  46.011  56.360  1.00  0.00     0.000 A 
HETATM   28  C   UNL     1      28.023  46.566  55.642  1.00  0.00     0.001 A 
HETATM   29  C   UNL     1      27.620  45.993  54.435  1.00  0.00     0.009 A 
ENDBRANCH  18  24
ENDBRANCH   1  18
TORSDOF 6
ENDMDL
MODEL 6
REMARK VINA RESULT:      -8.3      1.669      2.422
REMARK  6 active torsions:
REMARK  status: ('A' for Active; 'I' for Inactive)
REMARK    1  A    between atoms: N_2  and  C_5 
REMARK    2  A    between atoms: C_5  and  C_6 
REMARK    3  A    between atoms: C_6  and  N_7 
REMARK    4  A    between atoms: C_6  and  C_23 
REMARK       I    between atoms: N_7  and  C_8 
REMARK    5  A    between atoms: C_8  and  C_10 
REMARK    6  A    between atoms: C_13  and  C_17 
ROOT
HETATM    1  N   UNL     1      24.705  46.391  50.645  1.00  0.00    -0.347 N 
HETATM    2  C   UNL     1      24.726  45.381  51.581  1.00  0.00     0.252 C 
HETATM    3  O   UNL     1      23.909  44.464  51.557  1.00  0.00    -0.268 OA
HETATM    4  H   UNL     1      25.226  47.231  50.876  1.00  0.00     0.163 HD
ENDROOT
BRANCH   2   5
HETATM    5  C   UNL     1      25.778  45.442  52.629  1.00  0.00     0.032 A 
HETATM    6  C   UNL     1      25.989  46.656  53.285  1.00  0.00     0.018 A 
HETATM    7  C   UNL     1      26.943  46.746  54.298  1.00  0.00     0.014 A 
HETATM    8  C   UNL     1      27.698  45.624  54.679  1.00  0.00    -0.017 A 
HETATM    9  C   UNL     1      27.497  44.396  54.016  1.00  0.00    -0.050 A 
HETATM   10  C   UNL     1      28.266  43.150  54.375  1.00  0.00     0.049 C 
HETATM   11  C   UNL     1      26.522  44.315  53.001  1.00  0.00     0.024 A 
BRANCH   8  12
HETATM   12  C   UNL     1      28.644  45.769  55.769  1.00  0.00     0.011 A 
HETATM   13  C   UNL     1      28.454  46.119  57.125  1.00  0.00     0.152 A 
HETATM   14  N   UNL     1      29.599  46.154  57.810  1.00  0.00    -0.187 NA
HETATM   15  N   UNL     1      30.528  45.839  56.893  1.00  0.00    -0.289 N 
HETATM   16  H   UNL     1      31.500  45.805  57.185  1.00  0.00     0.188 HD
HETATM   17  C   UNL     1      30.008  45.604  55.651  1.00  0.00     0.123 A 
ENDBRANCH   8  12
ENDBRANCH   2   5
BRANCH   1  18
HETATM   18  C   UNL     1      23.605  46.568  49.691  1.00  0.00     0.143 C 
BRANCH  18  19
HETATM   19  C   UNL     1      23.534  45.482  48.567  1.00  0.00     0.263 C 
BRANCH  19  20
HETATM   20  N   UNL     1      22.442  44.447  48.785  1.00  0.00    -0.076 N 
HETATM   21  C   UNL     1      21.054  45.006  48.734  1.00  0.00     0.269 C 
HETATM   22  H   UNL     1      22.567  44.100  49.761  1.00  0.00     0.279 HD
HETATM   23  C   UNL     1      22.599  43.248  47.903  1.00  0.00     0.269 C 
ENDBRANCH  19  20
ENDBRANCH  18  19
BRANCH  18  24
HETATM   24  C   UNL     1      23.717  47.940  49.047  1.00  0.00    -0.034 A 
HETATM   25  C   UNL     1      24.928  48.647  49.109  1.00  0.00     0.009 A 
HETATM   26  C   UNL     1      25.037  49.916  48.539  1.00  0.00     0.001 A 
HETATM   27  C   UNL     1      23.942  50.493  47.899  1.00  0.00     0.000 A 
HETATM   28  C   UNL     1      22.736  49.800  47.825  1.00  0.00     0.001 A 
HETATM   29  C   UNL     1      22.622  48.531  48.394  1.00  0.00     0.009 A 
ENDBRANCH  18  24
ENDBRANCH   1  18
TORSDOF 6
ENDMDL
MODEL 7
REMARK VINA RESULT:      -8.0      4.550      7.433
REMARK  6 active torsions:
REMARK  status: ('A' for Active; 'I' for Inactive)
REMARK    1  A    between atoms: N_2  and  C_5 
REMARK    2  A    between atoms: C_5  and  C_6 
REMARK    3  A    between atoms: C_6  and  N_7 
REMARK    4  A    between atoms: C_6  and  C_23 
REMARK       I    between atoms: N_7  and  C_8 
REMARK    5  A    between atoms: C_8  and  C_10 
REMARK    6  A    between atoms: C_13  and  C_17 
ROOT
HETATM    1  N   UNL     1      26.240  44.619  51.733  1.00  0.00    -0.347 N 
HETATM    2  C   UNL     1      25.346  43.608  51.461  1.00  0.00     0.252 C 
HETATM    3  O   UNL     1      24.167  43.682  51.799  1.00  0.00    -0.268 OA
HETATM    4  H   UNL     1      27.226  44.381  51.664  1.00  0.00     0.163 HD
ENDROOT
BRANCH   2   5
HETATM    5  C   UNL     1      25.862  42.414  50.742  1.00  0.00     0.032 A 
HETATM    6  C   UNL     1      26.970  41.749  51.272  1.00  0.00     0.018 A 
HETATM    7  C   UNL     1      27.464  40.605  50.645  1.00  0.00     0.014 A 
HETATM    8  C   UNL     1      26.857  40.100  49.483  1.00  0.00    -0.017 A 
HETATM    9  C   UNL     1      25.742  40.770  48.937  1.00  0.00    -0.050 A 
HETATM   10  C   UNL     1      25.036  40.283  47.697  1.00  0.00     0.049 C 
HETATM   11  C   UNL     1      25.246  41.919  49.585  1.00  0.00     0.024 A 
BRANCH   8  12
HETATM   12  C   UNL     1      27.388  38.882  48.903  1.00  0.00     0.011 A 
HETATM   13  C   UNL     1      28.318  38.678  47.858  1.00  0.00     0.152 A 
HETATM   14  N   UNL     1      28.537  37.385  47.613  1.00  0.00    -0.187 NA
HETATM   15  N   UNL     1      27.739  36.755  48.489  1.00  0.00    -0.289 N 
HETATM   16  H   UNL     1      27.730  35.740  48.489  1.00  0.00     0.188 HD
HETATM   17  C   UNL     1      27.024  37.608  49.283  1.00  0.00     0.123 A 
ENDBRANCH   8  12
ENDBRANCH   2   5
BRANCH   1  18
HETATM   18  C   UNL     1      25.920  45.748  52.613  1.00  0.00     0.143 C 
BRANCH  18  19
HETATM   19  C   UNL     1      25.842  47.135  51.891  1.00  0.00     0.263 C 
BRANCH  19  20
HETATM   20  N   UNL     1      25.688  47.030  50.382  1.00  0.00    -0.076 N 
HETATM   21  C   UNL     1      24.268  47.081  49.910  1.00  0.00     0.269 C 
HETATM   22  H   UNL     1      26.033  46.080  50.124  1.00  0.00     0.279 HD
HETATM   23  C   UNL     1      26.562  47.996  49.645  1.00  0.00     0.269 C 
ENDBRANCH  19  20
ENDBRANCH  18  19
BRANCH  18  24
HETATM   24  C   UNL     1      26.953  45.826  53.724  1.00  0.00    -0.034 A 
HETATM   25  C   UNL     1      27.074  46.996  54.490  1.00  0.00     0.009 A 
HETATM   26  C   UNL     1      28.033  47.086  55.500  1.00  0.00     0.001 A 
HETATM   27  C   UNL     1      28.880  46.010  55.758  1.00  0.00     0.000 A 
HETATM   28  C   UNL     1      28.768  44.841  55.010  1.00  0.00     0.001 A 
HETATM   29  C   UNL     1      27.810  44.747  54.000  1.00  0.00     0.009 A 
ENDBRANCH  18  24
ENDBRANCH   1  18
TORSDOF 6
ENDMDL
MODEL 8
REMARK VINA RESULT:      -7.8      3.581      5.013
REMARK  6 active torsions:
REMARK  status: ('A' for Active; 'I' for Inactive)
REMARK    1  A    between atoms: N_2  and  C_5 
REMARK    2  A    between atoms: C_5  and  C_6 
REMARK    3  A    between atoms: C_6  and  N_7 
REMARK    4  A    between atoms: C_6  and  C_23 
REMARK       I    between atoms: N_7  and  C_8 
REMARK    5  A    between atoms: C_8  and  C_10 
REMARK    6  A    between atoms: C_13  and  C_17 
ROOT
HETATM    1  N   UNL     1      27.199  42.646  51.290  1.00  0.00    -0.347 N 
HETATM    2  C   UNL     1      28.275  42.100  51.953  1.00  0.00     0.252 C 
HETATM    3  O   UNL     1      28.830  41.080  51.552  1.00  0.00    -0.268 OA
HETATM    4  H   UNL     1      26.641  43.317  51.810  1.00  0.00     0.163 HD
ENDROOT
BRANCH   2   5
HETATM    5  C   UNL     1      28.743  42.793  53.182  1.00  0.00     0.032 A 
HETATM    6  C   UNL     1      29.961  42.400  53.740  1.00  0.00     0.018 A 
HETATM    7  C   UNL     1      30.452  43.048  54.874  1.00  0.00     0.014 A 
HETATM    8  C   UNL     1      29.739  44.103  55.466  1.00  0.00    -0.017 A 
HETATM    9  C   UNL     1      28.504  44.501  54.913  1.00  0.00    -0.050 A 
HETATM   10  C   UNL     1      27.687  45.629  55.492  1.00  0.00     0.049 C 
HETATM   11  C   UNL     1      28.023  43.846  53.762  1.00  0.00     0.024 A 
BRANCH   8  12
HETATM   12  C   UNL     1      30.322  44.767  56.616  1.00  0.00     0.011 A 
HETATM   13  C   UNL     1      30.246  46.109  57.053  1.00  0.00     0.152 A 
HETATM   14  N   UNL     1      30.944  46.323  58.170  1.00  0.00    -0.187 NA
HETATM   15  N   UNL     1      31.479  45.124  58.448  1.00  0.00    -0.289 N 
HETATM   16  H   UNL     1      32.067  45.038  59.270  1.00  0.00     0.188 HD
HETATM   17  C   UNL     1      31.141  44.157  57.543  1.00  0.00     0.123 A 
ENDBRANCH   8  12
ENDBRANCH   2   5
BRANCH   1  18
HETATM   18  C   UNL     1      26.507  41.957  50.195  1.00  0.00     0.143 C 
BRANCH  18  19
HETATM   19  C   UNL     1      27.254  42.002  48.820  1.00  0.00     0.263 C 
BRANCH  19  20
HETATM   20  N   UNL     1      27.881  40.676  48.422  1.00  0.00    -0.076 N 
HETATM   21  C   UNL     1      27.165  39.477  48.962  1.00  0.00     0.269 C 
HETATM   22  H   UNL     1      28.825  40.660  48.866  1.00  0.00     0.279 HD
HETATM   23  C   UNL     1      28.122  40.572  46.948  1.00  0.00     0.269 C 
ENDBRANCH  19  20
ENDBRANCH  18  19
BRANCH  18  24
HETATM   24  C   UNL     1      25.120  42.554  50.025  1.00  0.00    -0.034 A 
HETATM   25  C   UNL     1      24.189  41.936  49.176  1.00  0.00     0.009 A 
HETATM   26  C   UNL     1      22.919  42.486  48.997  1.00  0.00     0.001 A 
HETATM   27  C   UNL     1      22.563  43.656  49.664  1.00  0.00     0.000 A 
HETATM   28  C   UNL     1      23.474  44.277  50.515  1.00  0.00     0.001 A 
HETATM   29  C   UNL     1      24.745  43.730  50.696  1.00  0.00     0.009 A 
ENDBRANCH  18  24
ENDBRANCH   1  18
TORSDOF 6
ENDMDL
MODEL 9
REMARK VINA RESULT:      -7.8      3.263      9.062
REMARK  6 active torsions:
REMARK  status: ('A' for Active; 'I' for Inactive)
REMARK    1  A    between atoms: N_2  and  C_5 
REMARK    2  A    between atoms: C_5  and  C_6 
REMARK    3  A    between atoms: C_6  and  N_7 
REMARK    4  A    between atoms: C_6  and  C_23 
REMARK       I    between atoms: N_7  and  C_8 
REMARK    5  A    between atoms: C_8  and  C_10 
REMARK    6  A    between atoms: C_13  and  C_17 
ROOT
HETATM    1  N   UNL     1      24.861  45.753  51.183  1.00  0.00    -0.347 N 
HETATM    2  C   UNL     1      24.992  46.335  49.942  1.00  0.00     0.252 C 
HETATM    3  O   UNL     1      25.988  46.152  49.246  1.00  0.00    -0.268 OA
HETATM    4  H   UNL     1      24.155  46.150  51.796  1.00  0.00     0.163 HD
ENDROOT
BRANCH   2   5
HETATM    5  C   UNL     1      23.879  47.201  49.473  1.00  0.00     0.032 A 
HETATM    6  C   UNL     1      22.729  46.587  48.974  1.00  0.00     0.018 A 
HETATM    7  C   UNL     1      21.649  47.364  48.554  1.00  0.00     0.014 A 
HETATM    8  C   UNL     1      21.695  48.765  48.632  1.00  0.00    -0.017 A 
HETATM    9  C   UNL     1      22.857  49.394  49.128  1.00  0.00    -0.050 A 
HETATM   10  C   UNL     1      22.976  50.892  49.246  1.00  0.00     0.049 C 
HETATM   11  C   UNL     1      23.938  48.598  49.558  1.00  0.00     0.024 A 
BRANCH   8  12
HETATM   12  C   UNL     1      20.524  49.517  48.223  1.00  0.00     0.011 A 
HETATM   13  C   UNL     1      20.222  50.182  47.013  1.00  0.00     0.152 A 
HETATM   14  N   UNL     1      19.026  50.774  47.039  1.00  0.00    -0.187 NA
HETATM   15  N   UNL     1      18.563  50.502  48.269  1.00  0.00    -0.289 N 
HETATM   16  H   UNL     1      17.650  50.860  48.530  1.00  0.00     0.188 HD
HETATM   17  C   UNL     1      19.426  49.755  49.022  1.00  0.00     0.123 A 
ENDBRANCH   8  12
ENDBRANCH   2   5
BRANCH   1  18
HETATM   18  C   UNL     1      25.963  45.054  51.854  1.00  0.00     0.143 C 
BRANCH  18  19
HETATM   19  C   UNL     1      25.627  43.596  52.313  1.00  0.00     0.263 C 
BRANCH  19  20
HETATM   20  N   UNL     1      26.465  42.530  51.626  1.00  0.00    -0.076 N 
HETATM   21  C   UNL     1      26.942  42.917  50.261  1.00  0.00     0.269 C 
HETATM   22  H   UNL     1      25.828  41.716  51.477  1.00  0.00     0.279 HD
HETATM   23  C   UNL     1      27.577  42.024  52.490  1.00  0.00     0.269 C 
ENDBRANCH  19  20
ENDBRANCH  18  19
BRANCH  18  24
HETATM   24  C   UNL     1      26.409  45.863  53.060  1.00  0.00    -0.034 A 
HETATM   25  C   UNL     1      25.772  47.076  53.365  1.00  0.00     0.009 A 
HETATM   26  C   UNL     1      26.186  47.837  54.459  1.00  0.00     0.001 A 
HETATM   27  C   UNL     1      27.236  47.397  55.261  1.00  0.00     0.000 A 
HETATM   28  C   UNL     1      27.874  46.193  54.974  1.00  0.00     0.001 A 
HETATM   29  C   UNL     1      27.463  45.428  53.881  1.00  0.00     0.009 A 
ENDBRANCH  18  24
ENDBRANCH   1  18
TORSDOF 6
ENDMDL
MODEL 10
REMARK VINA RESULT:      -7.7      5.759      8.789
REMARK  6 active torsions:
REMARK  status: ('A' for Active; 'I' for Inactive)
REMARK    1  A    between atoms: N_2  and  C_5 
REMARK    2  A    between atoms: C_5  and  C_6 
REMARK    3  A    between atoms: C_6  and  N_7 
REMARK    4  A    between atoms: C_6  and  C_23 
REMARK       I    between atoms: N_7  and  C_8 
REMARK    5  A    between atoms: C_8  and  C_10 
REMARK    6  A    between atoms: C_13  and  C_17 
ROOT
HETATM    1  N   UNL     1      27.511  42.541  51.570  1.00  0.00    -0.347 N 
HETATM    2  C   UNL     1      26.495  41.881  50.915  1.00  0.00     0.252 C 
HETATM    3  O   UNL     1      25.326  42.248  51.003  1.00  0.00    -0.268 OA
HETATM    4  H   UNL     1      28.389  42.038  51.664  1.00  0.00     0.163 HD
ENDROOT
BRANCH   2   5
HETATM    5  C   UNL     1      26.866  40.700  50.092  1.00  0.00     0.032 A 
HETATM    6  C   UNL     1      26.039  40.353  49.023  1.00  0.00     0.018 A 
HETATM    7  C   UNL     1      26.371  39.271  48.206  1.00  0.00     0.014 A 
HETATM    8  C   UNL     1      27.536  38.523  48.438  1.00  0.00    -0.017 A 
HETATM    9  C   UNL     1      28.374  38.863  49.521  1.00  0.00    -0.050 A 
HETATM   10  C   UNL     1      29.643  38.109  49.828  1.00  0.00     0.049 C 
HETATM   11  C   UNL     1      28.033  39.964  50.333  1.00  0.00     0.024 A 
BRANCH   8  12
HETATM   12  C   UNL     1      27.851  37.438  47.529  1.00  0.00     0.011 A 
HETATM   13  C   UNL     1      28.816  37.336  46.502  1.00  0.00     0.152 A 
HETATM   14  N   UNL     1      28.777  36.156  45.878  1.00  0.00    -0.187 NA
HETATM   15  N   UNL     1      27.778  35.503  46.494  1.00  0.00    -0.289 N 
HETATM   16  H   UNL     1      27.553  34.564  46.182  1.00  0.00     0.188 HD
HETATM   17  C   UNL     1      27.186  36.231  47.488  1.00  0.00     0.123 A 
ENDBRANCH   8  12
ENDBRANCH   2   5
BRANCH   1  18
HETATM   18  C   UNL     1      27.264  43.582  52.574  1.00  0.00     0.143 C 
BRANCH  18  19
HETATM   19  C   UNL     1      27.019  45.011  51.985  1.00  0.00     0.263 C 
BRANCH  19  20
HETATM   20  N   UNL     1      25.651  45.583  52.320  1.00  0.00    -0.076 N 
HETATM   21  C   UNL     1      24.748  45.736  51.135  1.00  0.00     0.269 C 
HETATM   22  H   UNL     1      25.822  46.552  52.665  1.00  0.00     0.279 HD
HETATM   23  C   UNL     1      24.984  44.860  53.447  1.00  0.00     0.269 C 
ENDBRANCH  19  20
ENDBRANCH  18  19
BRANCH  18  24
HETATM   24  C   UNL     1      28.439  43.637  53.536  1.00  0.00    -0.034 A 
HETATM   25  C   UNL     1      28.483  44.623  54.535  1.00  0.00     0.009 A 
HETATM   26  C   UNL     1      29.567  44.695  55.411  1.00  0.00     0.001 A 
HETATM   27  C   UNL     1      30.617  43.786  55.303  1.00  0.00     0.000 A 
HETATM   28  C   UNL     1      30.585  42.800  54.320  1.00  0.00     0.001 A 
HETATM   29  C   UNL     1      29.503  42.723  53.442  1.00  0.00     0.009 A 
ENDBRANCH  18  24
ENDBRANCH   1  18
TORSDOF 6
ENDMDL
