MODEL 1
REMARK VINA RESULT:      -7.9      0.000      0.000
REMARK  5 active torsions:
REMARK  status: ('A' for Active; 'I' for Inactive)
REMARK    1  A    between atoms: C_2  and  C_3 
REMARK       I    between atoms: C_3  and  N_4 
REMARK    2  A    between atoms: N_4  and  C_5 
REMARK    3  A    between atoms: C_5  and  C_6 
REMARK    4  A    between atoms: C_5  and  C_17 
REMARK    5  A    between atoms: C_7  and  O_8 
ROOT
HETATM    1  C   UNL     1      20.966  48.838  48.490  1.00  0.00     0.154 C 
ENDROOT
BRANCH   1   2
HETATM    2  N   UNL     1      20.604  47.997  47.353  1.00  0.00    -0.348 N 
HETATM    3  C   UNL     1      20.371  46.650  47.479  1.00  0.00     0.218 C 
HETATM    4  O   UNL     1      20.483  46.027  48.530  1.00  0.00    -0.274 OA
HETATM    5  H   UNL     1      20.397  48.457  46.481  1.00  0.00     0.163 HD
BRANCH   3   6
HETATM    6  C   UNL     1      19.889  45.980  46.207  1.00  0.00     0.098 C 
HETATM    7  C   UNL     1      19.144  46.921  45.278  1.00  0.00     0.014 C 
ENDBRANCH   3   6
ENDBRANCH   1   2
BRANCH   1   8
HETATM    8  C   UNL     1      22.454  49.165  48.422  1.00  0.00     0.005 A 
HETATM    9  C   UNL     1      23.409  48.358  49.058  1.00  0.00     0.103 A 
HETATM   10  C   UNL     1      24.776  48.639  49.046  1.00  0.00     0.100 A 
HETATM   11  C   UNL     1      25.212  49.788  48.361  1.00  0.00    -0.004 A 
HETATM   12  N   UNL     1      25.623  47.811  49.696  1.00  0.00    -0.257 NA
HETATM   13  C   UNL     1      24.280  50.616  47.715  1.00  0.00     0.014 A 
HETATM   14  C   UNL     1      26.584  50.070  48.363  1.00  0.00     0.015 A 
HETATM   15  C   UNL     1      22.917  50.308  47.749  1.00  0.00     0.013 A 
HETATM   16  C   UNL     1      27.463  49.223  49.031  1.00  0.00     0.020 A 
HETATM   17  C   UNL     1      26.940  48.118  49.676  1.00  0.00     0.117 A 
BRANCH   9  18
HETATM   18  O   UNL     1      22.999  47.240  49.751  1.00  0.00    -0.358 OA
HETATM   19  H   UNL     1      22.546  46.691  49.076  1.00  0.00     0.218 HD
ENDBRANCH   9  18
ENDBRANCH   1   8
BRANCH   1  20
HETATM   20  C   UNL     1      20.117  50.111  48.583  1.00  0.00    -0.031 A 
HETATM   21  C   UNL     1      19.951  50.841  49.773  1.00  0.00     0.009 A 
HETATM   22  C   UNL     1      19.147  51.984  49.805  1.00  0.00     0.001 A 
HETATM   23  C   UNL     1      18.496  52.416  48.652  1.00  0.00     0.000 A 
HETATM   24  C   UNL     1      18.651  51.711  47.463  1.00  0.00     0.001 A 
HETATM   25  C   UNL     1      19.457  50.572  47.427  1.00  0.00     0.009 A 
ENDBRANCH   1  20
TORSDOF 5
ENDMDL
MODEL 2
REMARK VINA RESULT:      -7.5      6.033      8.844
REMARK  5 active torsions:
REMARK  status: ('A' for Active; 'I' for Inactive)
REMARK    1  A    between atoms: C_2  and  C_3 
REMARK       I    between atoms: C_3  and  N_4 
REMARK    2  A    between atoms: N_4  and  C_5 
REMARK    3  A    between atoms: C_5  and  C_6 
REMARK    4  A    between atoms: C_5  and  C_17 
REMARK    5  A    between atoms: C_7  and  O_8 
ROOT
HETATM    1  C   UNL     1      26.273  43.950  52.298  1.00  0.00     0.154 C 
ENDROOT
BRANCH   1   2
HETATM    2  N   UNL     1      26.117  42.735  51.504  1.00  0.00    -0.348 N 
HETATM    3  C   UNL     1      24.938  42.412  50.878  1.00  0.00     0.218 C 
HETATM    4  O   UNL     1      23.911  43.077  50.959  1.00  0.00    -0.274 OA
HETATM    5  H   UNL     1      26.945  42.195  51.311  1.00  0.00     0.163 HD
BRANCH   3   6
HETATM    6  C   UNL     1      25.016  41.176  50.003  1.00  0.00     0.098 C 
HETATM    7  C   UNL     1      26.215  40.298  50.311  1.00  0.00     0.014 C 
ENDBRANCH   3   6
ENDBRANCH   1   2
BRANCH   1   8
HETATM    8  C   UNL     1      27.519  43.824  53.169  1.00  0.00     0.005 A 
HETATM    9  C   UNL     1      27.727  44.665  54.273  1.00  0.00     0.103 A 
HETATM   10  C   UNL     1      28.867  44.605  55.076  1.00  0.00     0.100 A 
HETATM   11  C   UNL     1      29.852  43.652  54.758  1.00  0.00    -0.004 A 
HETATM   12  N   UNL     1      28.987  45.462  56.113  1.00  0.00    -0.257 NA
HETATM   13  C   UNL     1      29.673  42.796  53.660  1.00  0.00     0.014 A 
HETATM   14  C   UNL     1      30.999  43.604  55.562  1.00  0.00     0.015 A 
HETATM   15  C   UNL     1      28.521  42.886  52.873  1.00  0.00     0.013 A 
HETATM   16  C   UNL     1      31.131  44.484  56.630  1.00  0.00     0.020 A 
HETATM   17  C   UNL     1      30.109  45.386  56.863  1.00  0.00     0.117 A 
BRANCH   9  18
HETATM   18  O   UNL     1      26.783  45.618  54.586  1.00  0.00    -0.358 OA
HETATM   19  H   UNL     1      27.079  45.975  55.451  1.00  0.00     0.218 HD
ENDBRANCH   9  18
ENDBRANCH   1   8
BRANCH   1  20
HETATM   20  C   UNL     1      26.314  45.220  51.442  1.00  0.00    -0.031 A 
HETATM   21  C   UNL     1      25.534  46.358  51.713  1.00  0.00     0.009 A 
HETATM   22  C   UNL     1      25.596  47.482  50.885  1.00  0.00     0.001 A 
HETATM   23  C   UNL     1      26.435  47.489  49.774  1.00  0.00     0.000 A 
HETATM   24  C   UNL     1      27.219  46.375  49.490  1.00  0.00     0.001 A 
HETATM   25  C   UNL     1      27.163  45.253  50.318  1.00  0.00     0.009 A 
ENDBRANCH   1  20
TORSDOF 5
ENDMDL
MODEL 3
REMARK VINA RESULT:      -7.4      4.343      6.775
REMARK  5 active torsions:
REMARK  status: ('A' for Active; 'I' for Inactive)
REMARK    1  A    between atoms: C_2  and  C_3 
REMARK       I    between atoms: C_3  and  N_4 
REMARK    2  A    between atoms: N_4  and  C_5 
REMARK    3  A    between atoms: C_5  and  C_6 
REMARK    4  A    between atoms: C_5  and  C_17 
REMARK    5  A    between atoms: C_7  and  O_8 
ROOT
HETATM    1  C   UNL     1      25.089  46.122  50.598  1.00  0.00     0.154 C 
ENDROOT
BRANCH   1   2
HETATM    2  N   UNL     1      24.891  44.974  49.719  1.00  0.00    -0.348 N 
HETATM    3  C   UNL     1      23.902  44.045  49.933  1.00  0.00     0.218 C 
HETATM    4  O   UNL     1      23.132  44.068  50.888  1.00  0.00    -0.274 OA
HETATM    5  H   UNL     1      25.420  44.946  48.863  1.00  0.00     0.163 HD
BRANCH   3   6
HETATM    6  C   UNL     1      23.783  42.999  48.842  1.00  0.00     0.098 C 
HETATM    7  C   UNL     1      24.540  41.720  49.152  1.00  0.00     0.014 C 
ENDBRANCH   3   6
ENDBRANCH   1   2
BRANCH   1   8
HETATM    8  C   UNL     1      26.045  45.736  51.723  1.00  0.00     0.005 A 
HETATM    9  C   UNL     1      26.157  46.515  52.885  1.00  0.00     0.103 A 
HETATM   10  C   UNL     1      27.042  46.214  53.922  1.00  0.00     0.100 A 
HETATM   11  C   UNL     1      27.856  45.074  53.792  1.00  0.00    -0.004 A 
HETATM   12  N   UNL     1      27.091  47.028  55.000  1.00  0.00    -0.257 NA
HETATM   13  C   UNL     1      27.765  44.275  52.641  1.00  0.00     0.014 A 
HETATM   14  C   UNL     1      28.748  44.786  54.832  1.00  0.00     0.015 A 
HETATM   15  C   UNL     1      26.873  44.606  51.617  1.00  0.00     0.013 A 
HETATM   16  C   UNL     1      28.806  45.618  55.944  1.00  0.00     0.020 A 
HETATM   17  C   UNL     1      27.967  46.716  55.982  1.00  0.00     0.117 A 
BRANCH   9  18
HETATM   18  O   UNL     1      25.384  47.646  53.021  1.00  0.00    -0.358 OA
HETATM   19  H   UNL     1      25.149  47.665  53.973  1.00  0.00     0.218 HD
ENDBRANCH   9  18
ENDBRANCH   1   8
BRANCH   1  20
HETATM   20  C   UNL     1      25.579  47.367  49.850  1.00  0.00    -0.031 A 
HETATM   21  C   UNL     1      26.939  47.641  49.617  1.00  0.00     0.009 A 
HETATM   22  C   UNL     1      27.330  48.803  48.947  1.00  0.00     0.001 A 
HETATM   23  C   UNL     1      26.374  49.710  48.499  1.00  0.00     0.000 A 
HETATM   24  C   UNL     1      25.022  49.456  48.714  1.00  0.00     0.001 A 
HETATM   25  C   UNL     1      24.628  48.293  49.379  1.00  0.00     0.009 A 
ENDBRANCH   1  20
TORSDOF 5
ENDMDL
MODEL 4
REMARK VINA RESULT:      -7.3      3.483      6.795
REMARK  5 active torsions:
REMARK  status: ('A' for Active; 'I' for Inactive)
REMARK    1  A    between atoms: C_2  and  C_3 
REMARK       I    between atoms: C_3  and  N_4 
REMARK    2  A    between atoms: N_4  and  C_5 
REMARK    3  A    between atoms: C_5  and  C_6 
REMARK    4  A    between atoms: C_5  and  C_17 
REMARK    5  A    between atoms: C_7  and  O_8 
ROOT
HETATM    1  C   UNL     1      26.326  45.806  50.568  1.00  0.00     0.154 C 
ENDROOT
BRANCH   1   2
HETATM    2  N   UNL     1      25.488  44.671  50.197  1.00  0.00    -0.348 N 
HETATM    3  C   UNL     1      25.995  43.550  49.587  1.00  0.00     0.218 C 
HETATM    4  O   UNL     1      27.170  43.415  49.262  1.00  0.00    -0.274 OA
HETATM    5  H   UNL     1      24.534  44.669  50.523  1.00  0.00     0.163 HD
BRANCH   3   6
HETATM    6  C   UNL     1      24.985  42.434  49.396  1.00  0.00     0.098 C 
HETATM    7  C   UNL     1      23.636  42.732  50.025  1.00  0.00     0.014 C 
ENDBRANCH   3   6
ENDBRANCH   1   2
BRANCH   1   8
HETATM    8  C   UNL     1      25.779  47.071  49.914  1.00  0.00     0.005 A 
HETATM    9  C   UNL     1      24.402  47.253  49.716  1.00  0.00     0.103 A 
HETATM   10  C   UNL     1      23.864  48.380  49.093  1.00  0.00     0.100 A 
HETATM   11  C   UNL     1      24.748  49.378  48.645  1.00  0.00    -0.004 A 
HETATM   12  N   UNL     1      22.525  48.467  48.934  1.00  0.00    -0.257 NA
HETATM   13  C   UNL     1      26.132  49.224  48.830  1.00  0.00     0.014 A 
HETATM   14  C   UNL     1      24.201  50.502  48.011  1.00  0.00     0.015 A 
HETATM   15  C   UNL     1      26.640  48.081  49.453  1.00  0.00     0.013 A 
HETATM   16  C   UNL     1      22.824  50.597  47.843  1.00  0.00     0.020 A 
HETATM   17  C   UNL     1      22.036  49.565  48.316  1.00  0.00     0.117 A 
BRANCH   9  18
HETATM   18  O   UNL     1      23.523  46.278  50.128  1.00  0.00    -0.358 OA
HETATM   19  H   UNL     1      23.042  46.688  50.879  1.00  0.00     0.218 HD
ENDBRANCH   9  18
ENDBRANCH   1   8
BRANCH   1  20
HETATM   20  C   UNL     1      26.463  45.975  52.086  1.00  0.00    -0.031 A 
HETATM   21  C   UNL     1      26.061  47.135  52.771  1.00  0.00     0.009 A 
HETATM   22  C   UNL     1      26.228  47.243  54.154  1.00  0.00     0.001 A 
HETATM   23  C   UNL     1      26.800  46.198  54.875  1.00  0.00     0.000 A 
HETATM   24  C   UNL     1      27.199  45.039  54.217  1.00  0.00     0.001 A 
HETATM   25  C   UNL     1      27.028  44.926  52.837  1.00  0.00     0.009 A 
ENDBRANCH   1  20
TORSDOF 5
ENDMDL
MODEL 5
REMARK VINA RESULT:      -7.3      4.583      6.992
REMARK  5 active torsions:
REMARK  status: ('A' for Active; 'I' for Inactive)
REMARK    1  A    between atoms: C_2  and  C_3 
REMARK       I    between atoms: C_3  and  N_4 
REMARK    2  A    between atoms: N_4  and  C_5 
REMARK    3  A    between atoms: C_5  and  C_6 
REMARK    4  A    between atoms: C_5  and  C_17 
REMARK    5  A    between atoms: C_7  and  O_8 
ROOT
HETATM    1  C   UNL     1      25.073  45.771  50.764  1.00  0.00     0.154 C 
ENDROOT
BRANCH   1   2
HETATM    2  N   UNL     1      24.856  44.643  49.863  1.00  0.00    -0.348 N 
HETATM    3  C   UNL     1      23.812  43.766  50.021  1.00  0.00     0.218 C 
HETATM    4  O   UNL     1      23.002  43.818  50.941  1.00  0.00    -0.274 OA
HETATM    5  H   UNL     1      25.420  44.597  49.030  1.00  0.00     0.163 HD
BRANCH   3   6
HETATM    6  C   UNL     1      23.688  42.738  48.913  1.00  0.00     0.098 C 
HETATM    7  C   UNL     1      24.608  41.545  49.096  1.00  0.00     0.014 C 
ENDBRANCH   3   6
ENDBRANCH   1   2
BRANCH   1   8
HETATM    8  C   UNL     1      26.099  45.379  51.822  1.00  0.00     0.005 A 
HETATM    9  C   UNL     1      27.142  44.487  51.534  1.00  0.00     0.103 A 
HETATM   10  C   UNL     1      28.082  44.078  52.482  1.00  0.00     0.100 A 
HETATM   11  C   UNL     1      27.973  44.590  53.787  1.00  0.00    -0.004 A 
HETATM   12  N   UNL     1      29.046  43.205  52.117  1.00  0.00    -0.257 NA
HETATM   13  C   UNL     1      26.940  45.486  54.107  1.00  0.00     0.014 A 
HETATM   14  C   UNL     1      28.914  44.167  54.736  1.00  0.00     0.015 A 
HETATM   15  C   UNL     1      26.012  45.871  53.135  1.00  0.00     0.013 A 
HETATM   16  C   UNL     1      29.909  43.268  54.369  1.00  0.00     0.020 A 
HETATM   17  C   UNL     1      29.933  42.820  53.061  1.00  0.00     0.117 A 
BRANCH   9  18
HETATM   18  O   UNL     1      27.251  43.959  50.266  1.00  0.00    -0.358 OA
HETATM   19  H   UNL     1      26.523  43.302  50.215  1.00  0.00     0.218 HD
ENDBRANCH   9  18
ENDBRANCH   1   8
BRANCH   1  20
HETATM   20  C   UNL     1      25.489  47.050  50.027  1.00  0.00    -0.031 A 
HETATM   21  C   UNL     1      26.829  47.407  49.801  1.00  0.00     0.009 A 
HETATM   22  C   UNL     1      27.151  48.597  49.142  1.00  0.00     0.001 A 
HETATM   23  C   UNL     1      26.143  49.448  48.700  1.00  0.00     0.000 A 
HETATM   24  C   UNL     1      24.809  49.111  48.909  1.00  0.00     0.001 A 
HETATM   25  C   UNL     1      24.485  47.921  49.562  1.00  0.00     0.009 A 
ENDBRANCH   1  20
TORSDOF 5
ENDMDL
MODEL 6
REMARK VINA RESULT:      -6.9      6.818      9.515
REMARK  5 active torsions:
REMARK  status: ('A' for Active; 'I' for Inactive)
REMARK    1  A    between atoms: C_2  and  C_3 
REMARK       I    between atoms: C_3  and  N_4 
REMARK    2  A    between atoms: N_4  and  C_5 
REMARK    3  A    between atoms: C_5  and  C_6 
REMARK    4  A    between atoms: C_5  and  C_17 
REMARK    5  A    between atoms: C_7  and  O_8 
ROOT
HETATM    1  C   UNL     1      26.872  42.575  51.894  1.00  0.00     0.154 C 
ENDROOT
BRANCH   1   2
HETATM    2  N   UNL     1      27.823  41.868  51.042  1.00  0.00    -0.348 N 
HETATM    3  C   UNL     1      27.511  40.685  50.416  1.00  0.00     0.218 C 
HETATM    4  O   UNL     1      26.441  40.100  50.544  1.00  0.00    -0.274 OA
HETATM    5  H   UNL     1      28.682  42.339  50.812  1.00  0.00     0.163 HD
BRANCH   3   6
HETATM    6  C   UNL     1      28.589  40.175  49.479  1.00  0.00     0.098 C 
HETATM    7  C   UNL     1      28.611  38.662  49.359  1.00  0.00     0.014 C 
ENDBRANCH   3   6
ENDBRANCH   1   2
BRANCH   1   8
HETATM    8  C   UNL     1      27.636  43.365  52.952  1.00  0.00     0.005 A 
HETATM    9  C   UNL     1      28.697  42.791  53.669  1.00  0.00     0.103 A 
HETATM   10  C   UNL     1      29.400  43.469  54.666  1.00  0.00     0.100 A 
HETATM   11  C   UNL     1      29.023  44.792  54.962  1.00  0.00    -0.004 A 
HETATM   12  N   UNL     1      30.401  42.832  55.312  1.00  0.00    -0.257 NA
HETATM   13  C   UNL     1      27.966  45.394  54.261  1.00  0.00     0.014 A 
HETATM   14  C   UNL     1      29.727  45.462  55.971  1.00  0.00     0.015 A 
HETATM   15  C   UNL     1      27.279  44.686  53.272  1.00  0.00     0.013 A 
HETATM   16  C   UNL     1      30.758  44.813  56.642  1.00  0.00     0.020 A 
HETATM   17  C   UNL     1      31.054  43.512  56.281  1.00  0.00     0.117 A 
BRANCH   9  18
HETATM   18  O   UNL     1      29.065  41.490  53.407  1.00  0.00    -0.358 OA
HETATM   19  H   UNL     1      29.054  41.055  54.287  1.00  0.00     0.218 HD
ENDBRANCH   9  18
ENDBRANCH   1   8
BRANCH   1  20
HETATM   20  C   UNL     1      25.919  43.477  51.102  1.00  0.00    -0.031 A 
HETATM   21  C   UNL     1      24.527  43.488  51.300  1.00  0.00     0.009 A 
HETATM   22  C   UNL     1      23.702  44.316  50.534  1.00  0.00     0.001 A 
HETATM   23  C   UNL     1      24.251  45.143  49.558  1.00  0.00     0.000 A 
HETATM   24  C   UNL     1      25.627  45.151  49.349  1.00  0.00     0.001 A 
HETATM   25  C   UNL     1      26.453  44.329  50.116  1.00  0.00     0.009 A 
ENDBRANCH   1  20
TORSDOF 5
ENDMDL
MODEL 7
REMARK VINA RESULT:      -6.9      4.555      7.970
REMARK  5 active torsions:
REMARK  status: ('A' for Active; 'I' for Inactive)
REMARK    1  A    between atoms: C_2  and  C_3 
REMARK       I    between atoms: C_3  and  N_4 
REMARK    2  A    between atoms: N_4  and  C_5 
REMARK    3  A    between atoms: C_5  and  C_6 
REMARK    4  A    between atoms: C_5  and  C_17 
REMARK    5  A    between atoms: C_7  and  O_8 
ROOT
HETATM    1  C   UNL     1      27.026  44.310  50.735  1.00  0.00     0.154 C 
ENDROOT
BRANCH   1   2
HETATM    2  N   UNL     1      26.175  43.144  50.517  1.00  0.00    -0.348 N 
HETATM    3  C   UNL     1      26.419  42.232  49.519  1.00  0.00     0.218 C 
HETATM    4  O   UNL     1      27.332  42.330  48.705  1.00  0.00    -0.274 OA
HETATM    5  H   UNL     1      25.470  42.946  51.207  1.00  0.00     0.163 HD
BRANCH   3   6
HETATM    6  C   UNL     1      25.496  41.029  49.535  1.00  0.00     0.098 C 
HETATM    7  C   UNL     1      25.277  40.423  48.161  1.00  0.00     0.014 C 
ENDBRANCH   3   6
ENDBRANCH   1   2
BRANCH   1   8
HETATM    8  C   UNL     1      26.277  45.567  50.302  1.00  0.00     0.005 A 
HETATM    9  C   UNL     1      26.923  46.596  49.600  1.00  0.00     0.103 A 
HETATM   10  C   UNL     1      26.283  47.775  49.213  1.00  0.00     0.100 A 
HETATM   11  C   UNL     1      24.925  47.932  49.544  1.00  0.00    -0.004 A 
HETATM   12  N   UNL     1      26.988  48.717  48.549  1.00  0.00    -0.257 NA
HETATM   13  C   UNL     1      24.251  46.919  50.246  1.00  0.00     0.014 A 
HETATM   14  C   UNL     1      24.293  49.123  49.162  1.00  0.00     0.015 A 
HETATM   15  C   UNL     1      24.923  45.753  50.623  1.00  0.00     0.013 A 
HETATM   16  C   UNL     1      25.011  50.098  48.480  1.00  0.00     0.020 A 
HETATM   17  C   UNL     1      26.342  49.852  48.200  1.00  0.00     0.117 A 
BRANCH   9  18
HETATM   18  O   UNL     1      28.258  46.468  49.286  1.00  0.00    -0.358 OA
HETATM   19  H   UNL     1      28.379  47.052  48.506  1.00  0.00     0.218 HD
ENDBRANCH   9  18
ENDBRANCH   1   8
BRANCH   1  20
HETATM   20  C   UNL     1      27.519  44.424  52.182  1.00  0.00    -0.031 A 
HETATM   21  C   UNL     1      26.933  45.280  53.131  1.00  0.00     0.009 A 
HETATM   22  C   UNL     1      27.438  45.359  54.432  1.00  0.00     0.001 A 
HETATM   23  C   UNL     1      28.535  44.588  54.806  1.00  0.00     0.000 A 
HETATM   24  C   UNL     1      29.127  43.730  53.884  1.00  0.00     0.001 A 
HETATM   25  C   UNL     1      28.622  43.646  52.586  1.00  0.00     0.009 A 
ENDBRANCH   1  20
TORSDOF 5
ENDMDL
MODEL 8
REMARK VINA RESULT:      -6.8     11.182     12.454
REMARK  5 active torsions:
REMARK  status: ('A' for Active; 'I' for Inactive)
REMARK    1  A    between atoms: C_2  and  C_3 
REMARK       I    between atoms: C_3  and  N_4 
REMARK    2  A    between atoms: N_4  and  C_5 
REMARK    3  A    between atoms: C_5  and  C_6 
REMARK    4  A    between atoms: C_5  and  C_17 
REMARK    5  A    between atoms: C_7  and  O_8 
ROOT
HETATM    1  C   UNL     1      30.650  50.382  41.330  1.00  0.00     0.154 C 
ENDROOT
BRANCH   1   2
HETATM    2  N   UNL     1      30.926  49.122  40.646  1.00  0.00    -0.348 N 
HETATM    3  C   UNL     1      30.099  48.031  40.751  1.00  0.00     0.218 C 
HETATM    4  O   UNL     1      29.090  47.996  41.448  1.00  0.00    -0.274 OA
HETATM    5  H   UNL     1      31.680  49.111  39.978  1.00  0.00     0.163 HD
BRANCH   3   6
HETATM    6  C   UNL     1      30.494  46.863  39.868  1.00  0.00     0.098 C 
HETATM    7  C   UNL     1      29.862  46.913  38.489  1.00  0.00     0.014 C 
ENDBRANCH   3   6
ENDBRANCH   1   2
BRANCH   1   8
HETATM    8  C   UNL     1      31.923  50.875  42.010  1.00  0.00     0.005 A 
HETATM    9  C   UNL     1      33.136  50.967  41.311  1.00  0.00     0.103 A 
HETATM   10  C   UNL     1      34.329  51.383  41.904  1.00  0.00     0.100 A 
HETATM   11  C   UNL     1      34.309  51.726  43.268  1.00  0.00    -0.004 A 
HETATM   12  N   UNL     1      35.453  51.430  41.155  1.00  0.00    -0.257 NA
HETATM   13  C   UNL     1      33.110  51.645  43.994  1.00  0.00     0.014 A 
HETATM   14  C   UNL     1      35.513  52.133  43.858  1.00  0.00     0.015 A 
HETATM   15  C   UNL     1      31.933  51.220  43.372  1.00  0.00     0.013 A 
HETATM   16  C   UNL     1      36.674  52.182  43.095  1.00  0.00     0.020 A 
HETATM   17  C   UNL     1      36.595  51.825  41.762  1.00  0.00     0.117 A 
BRANCH   9  18
HETATM   18  O   UNL     1      33.180  50.614  39.980  1.00  0.00    -0.358 OA
HETATM   19  H   UNL     1      33.016  49.647  39.982  1.00  0.00     0.218 HD
ENDBRANCH   9  18
ENDBRANCH   1   8
BRANCH   1  20
HETATM   20  C   UNL     1      30.062  51.448  40.399  1.00  0.00    -0.031 A 
HETATM   21  C   UNL     1      29.806  52.769  40.806  1.00  0.00     0.009 A 
HETATM   22  C   UNL     1      29.249  53.696  39.920  1.00  0.00     0.001 A 
HETATM   23  C   UNL     1      28.939  53.320  38.616  1.00  0.00     0.000 A 
HETATM   24  C   UNL     1      29.190  52.019  38.191  1.00  0.00     0.001 A 
HETATM   25  C   UNL     1      29.750  51.093  39.072  1.00  0.00     0.009 A 
ENDBRANCH   1  20
TORSDOF 5
ENDMDL
MODEL 9
REMARK VINA RESULT:      -6.8      6.926     10.721
REMARK  5 active torsions:
REMARK  status: ('A' for Active; 'I' for Inactive)
REMARK    1  A    between atoms: C_2  and  C_3 
REMARK       I    between atoms: C_3  and  N_4 
REMARK    2  A    between atoms: N_4  and  C_5 
REMARK    3  A    between atoms: C_5  and  C_6 
REMARK    4  A    between atoms: C_5  and  C_17 
REMARK    5  A    between atoms: C_7  and  O_8 
ROOT
HETATM    1  C   UNL     1      27.416  43.362  53.592  1.00  0.00     0.154 C 
ENDROOT
BRANCH   1   2
HETATM    2  N   UNL     1      26.783  44.493  52.920  1.00  0.00    -0.348 N 
HETATM    3  C   UNL     1      25.511  44.912  53.226  1.00  0.00     0.218 C 
HETATM    4  O   UNL     1      24.783  44.362  54.046  1.00  0.00    -0.274 OA
HETATM    5  H   UNL     1      27.356  45.053  52.310  1.00  0.00     0.163 HD
BRANCH   3   6
HETATM    6  C   UNL     1      25.083  46.177  52.507  1.00  0.00     0.098 C 
HETATM    7  C   UNL     1      26.222  47.153  52.281  1.00  0.00     0.014 C 
ENDBRANCH   3   6
ENDBRANCH   1   2
BRANCH   1   8
HETATM    8  C   UNL     1      27.790  42.307  52.555  1.00  0.00     0.005 A 
HETATM    9  C   UNL     1      27.548  42.508  51.188  1.00  0.00     0.103 A 
HETATM   10  C   UNL     1      27.846  41.556  50.212  1.00  0.00     0.100 A 
HETATM   11  C   UNL     1      28.418  40.339  50.624  1.00  0.00    -0.004 A 
HETATM   12  N   UNL     1      27.567  41.831  48.919  1.00  0.00    -0.257 NA
HETATM   13  C   UNL     1      28.673  40.108  51.985  1.00  0.00     0.014 A 
HETATM   14  C   UNL     1      28.704  39.384  49.639  1.00  0.00     0.015 A 
HETATM   15  C   UNL     1      28.358  41.081  52.939  1.00  0.00     0.013 A 
HETATM   16  C   UNL     1      28.419  39.659  48.306  1.00  0.00     0.020 A 
HETATM   17  C   UNL     1      27.856  40.883  47.999  1.00  0.00     0.117 A 
BRANCH   9  18
HETATM   18  O   UNL     1      26.968  43.685  50.768  1.00  0.00    -0.358 OA
HETATM   19  H   UNL     1      26.067  43.421  50.483  1.00  0.00     0.218 HD
ENDBRANCH   9  18
ENDBRANCH   1   8
BRANCH   1  20
HETATM   20  C   UNL     1      28.628  43.773  54.436  1.00  0.00    -0.031 A 
HETATM   21  C   UNL     1      29.749  42.946  54.627  1.00  0.00     0.009 A 
HETATM   22  C   UNL     1      30.818  43.364  55.424  1.00  0.00     0.001 A 
HETATM   23  C   UNL     1      30.785  44.610  56.045  1.00  0.00     0.000 A 
HETATM   24  C   UNL     1      29.687  45.445  55.864  1.00  0.00     0.001 A 
HETATM   25  C   UNL     1      28.621  45.033  55.064  1.00  0.00     0.009 A 
ENDBRANCH   1  20
TORSDOF 5
ENDMDL
MODEL 10
REMARK VINA RESULT:      -6.8     10.244     12.331
REMARK  5 active torsions:
REMARK  status: ('A' for Active; 'I' for Inactive)
REMARK    1  A    between atoms: C_2  and  C_3 
REMARK       I    between atoms: C_3  and  N_4 
REMARK    2  A    between atoms: N_4  and  C_5 
REMARK    3  A    between atoms: C_5  and  C_6 
REMARK    4  A    between atoms: C_5  and  C_17 
REMARK    5  A    between atoms: C_7  and  O_8 
ROOT
HETATM    1  C   UNL     1      30.722  50.254  40.772  1.00  0.00     0.154 C 
ENDROOT
BRANCH   1   2
HETATM    2  N   UNL     1      31.007  50.616  42.158  1.00  0.00    -0.348 N 
HETATM    3  C   UNL     1      32.281  50.865  42.606  1.00  0.00     0.218 C 
HETATM    4  O   UNL     1      33.287  50.768  41.911  1.00  0.00    -0.274 OA
HETATM    5  H   UNL     1      30.222  50.812  42.758  1.00  0.00     0.163 HD
BRANCH   3   6
HETATM    6  C   UNL     1      32.352  51.346  44.043  1.00  0.00     0.098 C 
HETATM    7  C   UNL     1      33.669  52.019  44.385  1.00  0.00     0.014 C 
ENDBRANCH   3   6
ENDBRANCH   1   2
BRANCH   1   8
HETATM    8  C   UNL     1      29.834  49.013  40.749  1.00  0.00     0.005 A 
HETATM    9  C   UNL     1      30.204  47.864  40.035  1.00  0.00     0.103 A 
HETATM   10  C   UNL     1      29.405  46.721  39.962  1.00  0.00     0.100 A 
HETATM   11  C   UNL     1      28.173  46.728  40.640  1.00  0.00    -0.004 A 
HETATM   12  N   UNL     1      29.837  45.663  39.241  1.00  0.00    -0.257 NA
HETATM   13  C   UNL     1      27.775  47.864  41.363  1.00  0.00     0.014 A 
HETATM   14  C   UNL     1      27.372  45.581  40.553  1.00  0.00     0.015 A 
HETATM   15  C   UNL     1      28.596  48.994  41.413  1.00  0.00     0.013 A 
HETATM   16  C   UNL     1      27.809  44.488  39.811  1.00  0.00     0.020 A 
HETATM   17  C   UNL     1      29.035  44.576  39.179  1.00  0.00     0.117 A 
BRANCH   9  18
HETATM   18  O   UNL     1      31.397  47.847  39.348  1.00  0.00    -0.358 OA
HETATM   19  H   UNL     1      31.963  47.233  39.863  1.00  0.00     0.218 HD
ENDBRANCH   9  18
ENDBRANCH   1   8
BRANCH   1  20
HETATM   20  C   UNL     1      30.100  51.403  39.972  1.00  0.00    -0.031 A 
HETATM   21  C   UNL     1      29.753  52.640  40.544  1.00  0.00     0.009 A 
HETATM   22  C   UNL     1      29.168  53.647  39.770  1.00  0.00     0.001 A 
HETATM   23  C   UNL     1      28.919  53.435  38.417  1.00  0.00     0.000 A 
HETATM   24  C   UNL     1      29.260  52.220  37.830  1.00  0.00     0.001 A 
HETATM   25  C   UNL     1      29.848  51.215  38.599  1.00  0.00     0.009 A 
ENDBRANCH   1  20
TORSDOF 5
ENDMDL
