MODEL 1
REMARK VINA RESULT:      -8.4      0.000      0.000
REMARK  6 active torsions:
REMARK  status: ('A' for Active; 'I' for Inactive)
REMARK    1  A    between atoms: C_5  and  C_6 
REMARK    2  A    between atoms: C_6  and  C_7 
REMARK       I    between atoms: C_7  and  N_8 
REMARK    3  A    between atoms: N_8  and  C_9 
REMARK    4  A    between atoms: C_12  and  N_13 
REMARK       I    between atoms: N_13  and  C_14 
REMARK       I    between atoms: C_14  and  N_15 
REMARK    5  A    between atoms: N_15  and  C_16 
REMARK    6  A    between atoms: C_16  and  C_17 
ROOT
HETATM    1  C   UNL     1      25.882  46.864  50.421  1.00  0.00     0.034 A 
HETATM    2  C   UNL     1      26.597  45.831  49.814  1.00  0.00     0.032 A 
HETATM    3  C   UNL     1      26.933  44.668  50.532  1.00  0.00     0.032 A 
HETATM    4  C   UNL     1      26.575  44.530  51.871  1.00  0.00     0.036 A 
HETATM    5  C   UNL     1      25.861  45.572  52.477  1.00  0.00     0.032 A 
HETATM    6  C   UNL     1      25.520  46.725  51.763  1.00  0.00     0.032 A 
ENDROOT
BRANCH   4   7
HETATM    7  N   UNL     1      26.813  43.399  52.669  1.00  0.00    -0.309 N 
HETATM    8  C   UNL     1      27.926  42.824  53.192  1.00  0.00     0.321 C 
HETATM    9  N   UNL     1      29.080  43.533  53.209  1.00  0.00    -0.337 N 
HETATM   10  O   UNL     1      27.837  41.693  53.668  1.00  0.00    -0.247 OA
HETATM   11  H   UNL     1      28.969  44.530  53.332  1.00  0.00     0.164 HD
HETATM   12  H   UNL     1      26.007  42.817  52.864  1.00  0.00     0.170 HD
BRANCH   9  13
HETATM   13  C   UNL     1      30.231  42.967  53.876  1.00  0.00     0.189 C 
BRANCH  13  14
HETATM   14  C   UNL     1      30.474  43.650  55.171  1.00  0.00     0.070 A 
HETATM   15  O   UNL     1      29.845  44.845  55.387  1.00  0.00    -0.325 OA
HETATM   16  C   UNL     1      30.199  45.259  56.631  1.00  0.00     0.142 A 
HETATM   17  C   UNL     1      31.033  44.342  57.227  1.00  0.00     0.027 A 
HETATM   18  C   UNL     1      31.210  43.301  56.286  1.00  0.00     0.036 A 
ENDBRANCH  13  14
ENDBRANCH   9  13
ENDBRANCH   4   7
BRANCH   1  19
HETATM   19  N   UNL     1      25.448  48.033  49.763  1.00  0.00    -0.327 N 
HETATM   20  C   UNL     1      24.180  48.318  49.281  1.00  0.00     0.227 C 
HETATM   21  O   UNL     1      23.231  47.536  49.244  1.00  0.00    -0.273 OA
HETATM   22  H   UNL     1      26.154  48.747  49.633  1.00  0.00     0.169 HD
BRANCH  20  23
HETATM   23  C   UNL     1      24.039  49.774  48.824  1.00  0.00     0.159 C 
BRANCH  23  24
HETATM   24  C   UNL     1      22.655  50.321  48.982  1.00  0.00     0.017 A 
HETATM   25  N   UNL     1      21.979  50.311  50.182  1.00  0.00    -0.369 N 
HETATM   26  C   UNL     1      20.755  50.907  50.028  1.00  0.00     0.088 A 
HETATM   27  H   UNL     1      22.342  49.908  51.043  1.00  0.00     0.165 HD
HETATM   28  C   UNL     1      20.642  51.318  48.720  1.00  0.00     0.019 A 
HETATM   29  C   UNL     1      21.837  50.950  48.059  1.00  0.00     0.027 A 
ENDBRANCH  23  24
ENDBRANCH  20  23
ENDBRANCH   1  19
TORSDOF 6
ENDMDL
MODEL 2
REMARK VINA RESULT:      -7.8      2.274      9.813
REMARK  6 active torsions:
REMARK  status: ('A' for Active; 'I' for Inactive)
REMARK    1  A    between atoms: C_5  and  C_6 
REMARK    2  A    between atoms: C_6  and  C_7 
REMARK       I    between atoms: C_7  and  N_8 
REMARK    3  A    between atoms: N_8  and  C_9 
REMARK    4  A    between atoms: C_12  and  N_13 
REMARK       I    between atoms: N_13  and  C_14 
REMARK       I    between atoms: C_14  and  N_15 
REMARK    5  A    between atoms: N_15  and  C_16 
REMARK    6  A    between atoms: C_16  and  C_17 
ROOT
HETATM    1  C   UNL     1      25.634  45.799  51.672  1.00  0.00     0.034 A 
HETATM    2  C   UNL     1      24.505  45.599  50.878  1.00  0.00     0.032 A 
HETATM    3  C   UNL     1      24.168  46.511  49.861  1.00  0.00     0.032 A 
HETATM    4  C   UNL     1      24.945  47.647  49.637  1.00  0.00     0.036 A 
HETATM    5  C   UNL     1      26.075  47.845  50.440  1.00  0.00     0.032 A 
HETATM    6  C   UNL     1      26.415  46.935  51.446  1.00  0.00     0.032 A 
ENDROOT
BRANCH   4   7
HETATM    7  N   UNL     1      24.734  48.596  48.623  1.00  0.00    -0.309 N 
HETATM    8  C   UNL     1      23.766  49.513  48.370  1.00  0.00     0.321 C 
HETATM    9  N   UNL     1      22.894  49.831  49.357  1.00  0.00    -0.337 N 
HETATM   10  O   UNL     1      23.741  50.054  47.265  1.00  0.00    -0.247 OA
HETATM   11  H   UNL     1      23.275  49.802  50.292  1.00  0.00     0.164 HD
HETATM   12  H   UNL     1      25.394  48.578  47.855  1.00  0.00     0.170 HD
BRANCH   9  13
HETATM   13  C   UNL     1      21.943  50.895  49.125  1.00  0.00     0.189 C 
BRANCH  13  14
HETATM   14  C   UNL     1      20.580  50.476  49.535  1.00  0.00     0.070 A 
HETATM   15  O   UNL     1      20.306  49.137  49.557  1.00  0.00    -0.325 OA
HETATM   16  C   UNL     1      19.022  49.001  49.978  1.00  0.00     0.142 A 
HETATM   17  C   UNL     1      18.469  50.232  50.244  1.00  0.00     0.027 A 
HETATM   18  C   UNL     1      19.474  51.186  49.959  1.00  0.00     0.036 A 
ENDBRANCH  13  14
ENDBRANCH   9  13
ENDBRANCH   4   7
BRANCH   1  19
HETATM   19  N   UNL     1      26.082  44.906  52.668  1.00  0.00    -0.327 N 
HETATM   20  C   UNL     1      25.968  45.038  54.043  1.00  0.00     0.227 C 
HETATM   21  O   UNL     1      25.552  46.031  54.639  1.00  0.00    -0.273 OA
HETATM   22  H   UNL     1      26.538  44.069  52.328  1.00  0.00     0.169 HD
BRANCH  20  23
HETATM   23  C   UNL     1      26.375  43.765  54.791  1.00  0.00     0.159 C 
BRANCH  23  24
HETATM   24  C   UNL     1      27.548  43.060  54.182  1.00  0.00     0.017 A 
HETATM   25  N   UNL     1      27.433  41.866  53.505  1.00  0.00    -0.369 N 
HETATM   26  C   UNL     1      28.661  41.484  53.033  1.00  0.00     0.088 A 
HETATM   27  H   UNL     1      26.563  41.351  53.390  1.00  0.00     0.165 HD
HETATM   28  C   UNL     1      29.576  42.444  53.397  1.00  0.00     0.019 A 
HETATM   29  C   UNL     1      28.877  43.438  54.121  1.00  0.00     0.027 A 
ENDBRANCH  23  24
ENDBRANCH  20  23
ENDBRANCH   1  19
TORSDOF 6
ENDMDL
MODEL 3
REMARK VINA RESULT:      -7.8      1.772      9.919
REMARK  6 active torsions:
REMARK  status: ('A' for Active; 'I' for Inactive)
REMARK    1  A    between atoms: C_5  and  C_6 
REMARK    2  A    between atoms: C_6  and  C_7 
REMARK       I    between atoms: C_7  and  N_8 
REMARK    3  A    between atoms: N_8  and  C_9 
REMARK    4  A    between atoms: C_12  and  N_13 
REMARK       I    between atoms: N_13  and  C_14 
REMARK       I    between atoms: C_14  and  N_15 
REMARK    5  A    between atoms: N_15  and  C_16 
REMARK    6  A    between atoms: C_16  and  C_17 
ROOT
HETATM    1  C   UNL     1      25.516  45.765  51.552  1.00  0.00     0.034 A 
HETATM    2  C   UNL     1      24.418  45.618  50.704  1.00  0.00     0.032 A 
HETATM    3  C   UNL     1      24.131  46.582  49.720  1.00  0.00     0.032 A 
HETATM    4  C   UNL     1      24.929  47.717  49.583  1.00  0.00     0.036 A 
HETATM    5  C   UNL     1      26.027  47.863  50.439  1.00  0.00     0.032 A 
HETATM    6  C   UNL     1      26.317  46.901  51.412  1.00  0.00     0.032 A 
ENDROOT
BRANCH   4   7
HETATM    7  N   UNL     1      24.768  48.717  48.609  1.00  0.00    -0.309 N 
HETATM    8  C   UNL     1      23.826  49.665  48.370  1.00  0.00     0.321 C 
HETATM    9  N   UNL     1      22.929  49.953  49.342  1.00  0.00    -0.337 N 
HETATM   10  O   UNL     1      23.847  50.256  47.291  1.00  0.00    -0.247 OA
HETATM   11  H   UNL     1      23.278  49.873  50.287  1.00  0.00     0.164 HD
HETATM   12  H   UNL     1      25.452  48.722  47.862  1.00  0.00     0.170 HD
BRANCH   9  13
HETATM   13  C   UNL     1      22.006  51.046  49.131  1.00  0.00     0.189 C 
BRANCH  13  14
HETATM   14  C   UNL     1      20.631  50.653  49.529  1.00  0.00     0.070 A 
HETATM   15  O   UNL     1      20.375  49.321  49.702  1.00  0.00    -0.325 OA
HETATM   16  C   UNL     1      19.076  49.213  50.079  1.00  0.00     0.142 A 
HETATM   17  C   UNL     1      18.493  50.456  50.169  1.00  0.00     0.027 A 
HETATM   18  C   UNL     1      19.497  51.387  49.815  1.00  0.00     0.036 A 
ENDBRANCH  13  14
ENDBRANCH   9  13
ENDBRANCH   4   7
BRANCH   1  19
HETATM   19  N   UNL     1      25.914  44.820  52.519  1.00  0.00    -0.327 N 
HETATM   20  C   UNL     1      27.001  43.961  52.474  1.00  0.00     0.227 C 
HETATM   21  O   UNL     1      27.748  43.794  51.510  1.00  0.00    -0.273 OA
HETATM   22  H   UNL     1      25.332  44.772  53.346  1.00  0.00     0.169 HD
BRANCH  20  23
HETATM   23  C   UNL     1      27.234  43.238  53.805  1.00  0.00     0.159 C 
BRANCH  23  24
HETATM   24  C   UNL     1      28.513  43.624  54.482  1.00  0.00     0.017 A 
HETATM   25  N   UNL     1      28.689  44.838  55.110  1.00  0.00    -0.369 N 
HETATM   26  C   UNL     1      29.941  44.892  55.664  1.00  0.00     0.088 A 
HETATM   27  H   UNL     1      27.991  45.577  55.139  1.00  0.00     0.165 HD
HETATM   28  C   UNL     1      30.575  43.700  55.403  1.00  0.00     0.019 A 
HETATM   29  C   UNL     1      29.678  42.900  54.659  1.00  0.00     0.027 A 
ENDBRANCH  23  24
ENDBRANCH  20  23
ENDBRANCH   1  19
TORSDOF 6
ENDMDL
MODEL 4
REMARK VINA RESULT:      -7.8      1.671      2.000
REMARK  6 active torsions:
REMARK  status: ('A' for Active; 'I' for Inactive)
REMARK    1  A    between atoms: C_5  and  C_6 
REMARK    2  A    between atoms: C_6  and  C_7 
REMARK       I    between atoms: C_7  and  N_8 
REMARK    3  A    between atoms: N_8  and  C_9 
REMARK    4  A    between atoms: C_12  and  N_13 
REMARK       I    between atoms: N_13  and  C_14 
REMARK       I    between atoms: C_14  and  N_15 
REMARK    5  A    between atoms: N_15  and  C_16 
REMARK    6  A    between atoms: C_16  and  C_17 
ROOT
HETATM    1  C   UNL     1      24.549  45.171  49.770  1.00  0.00     0.034 A 
HETATM    2  C   UNL     1      23.872  44.278  50.600  1.00  0.00     0.032 A 
HETATM    3  C   UNL     1      24.536  43.173  51.167  1.00  0.00     0.032 A 
HETATM    4  C   UNL     1      25.882  42.937  50.895  1.00  0.00     0.036 A 
HETATM    5  C   UNL     1      26.557  43.833  50.058  1.00  0.00     0.032 A 
HETATM    6  C   UNL     1      25.900  44.935  49.500  1.00  0.00     0.032 A 
ENDROOT
BRANCH   4   7
HETATM    7  N   UNL     1      26.656  41.900  51.442  1.00  0.00    -0.309 N 
HETATM    8  C   UNL     1      27.652  41.844  52.363  1.00  0.00     0.321 C 
HETATM    9  N   UNL     1      27.866  42.919  53.159  1.00  0.00    -0.337 N 
HETATM   10  O   UNL     1      28.298  40.802  52.469  1.00  0.00    -0.247 OA
HETATM   11  H   UNL     1      27.038  43.447  53.399  1.00  0.00     0.164 HD
HETATM   12  H   UNL     1      26.517  40.982  51.036  1.00  0.00     0.170 HD
BRANCH   9  13
HETATM   13  C   UNL     1      28.843  42.813  54.218  1.00  0.00     0.189 C 
BRANCH  13  14
HETATM   14  C   UNL     1      29.094  44.140  54.834  1.00  0.00     0.070 A 
HETATM   15  O   UNL     1      28.194  45.138  54.580  1.00  0.00    -0.325 OA
HETATM   16  C   UNL     1      28.618  46.235  55.258  1.00  0.00     0.142 A 
HETATM   17  C   UNL     1      29.768  45.955  55.960  1.00  0.00     0.027 A 
HETATM   18  C   UNL     1      30.076  44.602  55.687  1.00  0.00     0.036 A 
ENDBRANCH  13  14
ENDBRANCH   9  13
ENDBRANCH   4   7
BRANCH   1  19
HETATM   19  N   UNL     1      23.982  46.334  49.212  1.00  0.00    -0.327 N 
HETATM   20  C   UNL     1      24.057  47.633  49.693  1.00  0.00     0.227 C 
HETATM   21  O   UNL     1      24.544  47.975  50.770  1.00  0.00    -0.273 OA
HETATM   22  H   UNL     1      23.461  46.197  48.355  1.00  0.00     0.169 HD
BRANCH  20  23
HETATM   23  C   UNL     1      23.502  48.659  48.700  1.00  0.00     0.159 C 
BRANCH  23  24
HETATM   24  C   UNL     1      22.296  49.390  49.203  1.00  0.00     0.017 A 
HETATM   25  N   UNL     1      21.114  48.756  49.514  1.00  0.00    -0.369 N 
HETATM   26  C   UNL     1      20.207  49.671  49.979  1.00  0.00     0.088 A 
HETATM   27  H   UNL     1      20.948  47.758  49.399  1.00  0.00     0.165 HD
HETATM   28  C   UNL     1      20.812  50.907  49.982  1.00  0.00     0.019 A 
HETATM   29  C   UNL     1      22.128  50.732  49.493  1.00  0.00     0.027 A 
ENDBRANCH  23  24
ENDBRANCH  20  23
ENDBRANCH   1  19
TORSDOF 6
ENDMDL
MODEL 5
REMARK VINA RESULT:      -7.7      1.918      9.420
REMARK  6 active torsions:
REMARK  status: ('A' for Active; 'I' for Inactive)
REMARK    1  A    between atoms: C_5  and  C_6 
REMARK    2  A    between atoms: C_6  and  C_7 
REMARK       I    between atoms: C_7  and  N_8 
REMARK    3  A    between atoms: N_8  and  C_9 
REMARK    4  A    between atoms: C_12  and  N_13 
REMARK       I    between atoms: N_13  and  C_14 
REMARK       I    between atoms: C_14  and  N_15 
REMARK    5  A    between atoms: N_15  and  C_16 
REMARK    6  A    between atoms: C_16  and  C_17 
ROOT
HETATM    1  C   UNL     1      27.350  43.566  51.251  1.00  0.00     0.034 A 
HETATM    2  C   UNL     1      26.265  42.692  51.166  1.00  0.00     0.032 A 
HETATM    3  C   UNL     1      25.226  42.920  50.245  1.00  0.00     0.032 A 
HETATM    4  C   UNL     1      25.248  44.035  49.409  1.00  0.00     0.036 A 
HETATM    5  C   UNL     1      26.336  44.911  49.501  1.00  0.00     0.032 A 
HETATM    6  C   UNL     1      27.373  44.682  50.411  1.00  0.00     0.032 A 
ENDROOT
BRANCH   4   7
HETATM    7  N   UNL     1      24.295  44.335  48.421  1.00  0.00    -0.309 N 
HETATM    8  C   UNL     1      23.308  45.259  48.306  1.00  0.00     0.321 C 
HETATM    9  N   UNL     1      23.298  46.313  49.156  1.00  0.00    -0.337 N 
HETATM   10  O   UNL     1      22.479  45.126  47.406  1.00  0.00    -0.247 OA
HETATM   11  H   UNL     1      24.210  46.639  49.445  1.00  0.00     0.164 HD
HETATM   12  H   UNL     1      24.261  43.701  47.632  1.00  0.00     0.170 HD
BRANCH   9  13
HETATM   13  C   UNL     1      22.320  47.357  48.953  1.00  0.00     0.189 C 
BRANCH  13  14
HETATM   14  C   UNL     1      22.984  48.635  48.592  1.00  0.00     0.070 A 
HETATM   15  O   UNL     1      24.334  48.726  48.790  1.00  0.00    -0.325 OA
HETATM   16  C   UNL     1      24.713  49.961  48.371  1.00  0.00     0.142 A 
HETATM   17  C   UNL     1      23.631  50.661  47.891  1.00  0.00     0.027 A 
HETATM   18  C   UNL     1      22.514  49.805  48.032  1.00  0.00     0.036 A 
ENDBRANCH  13  14
ENDBRANCH   9  13
ENDBRANCH   4   7
BRANCH   1  19
HETATM   19  N   UNL     1      28.462  43.382  52.097  1.00  0.00    -0.327 N 
HETATM   20  C   UNL     1      28.471  43.253  53.477  1.00  0.00     0.227 C 
HETATM   21  O   UNL     1      27.500  43.396  54.220  1.00  0.00    -0.273 OA
HETATM   22  H   UNL     1      29.360  43.338  51.632  1.00  0.00     0.169 HD
BRANCH  20  23
HETATM   23  C   UNL     1      29.845  42.849  54.021  1.00  0.00     0.159 C 
BRANCH  23  24
HETATM   24  C   UNL     1      30.257  43.615  55.239  1.00  0.00     0.017 A 
HETATM   25  N   UNL     1      29.745  44.854  55.552  1.00  0.00    -0.369 N 
HETATM   26  C   UNL     1      30.280  45.290  56.735  1.00  0.00     0.088 A 
HETATM   27  H   UNL     1      29.078  45.363  54.976  1.00  0.00     0.165 HD
HETATM   28  C   UNL     1      31.138  44.319  57.199  1.00  0.00     0.019 A 
HETATM   29  C   UNL     1      31.125  43.263  56.258  1.00  0.00     0.027 A 
ENDBRANCH  23  24
ENDBRANCH  20  23
ENDBRANCH   1  19
TORSDOF 6
ENDMDL
MODEL 6
REMARK VINA RESULT:      -7.6      2.213      9.726
REMARK  6 active torsions:
REMARK  status: ('A' for Active; 'I' for Inactive)
REMARK    1  A    between atoms: C_5  and  C_6 
REMARK    2  A    between atoms: C_6  and  C_7 
REMARK       I    between atoms: C_7  and  N_8 
REMARK    3  A    between atoms: N_8  and  C_9 
REMARK    4  A    between atoms: C_12  and  N_13 
REMARK       I    between atoms: N_13  and  C_14 
REMARK       I    between atoms: C_14  and  N_15 
REMARK    5  A    between atoms: N_15  and  C_16 
REMARK    6  A    between atoms: C_16  and  C_17 
ROOT
HETATM    1  C   UNL     1      26.074  46.209  53.017  1.00  0.00     0.034 A 
HETATM    2  C   UNL     1      25.289  45.059  52.922  1.00  0.00     0.032 A 
HETATM    3  C   UNL     1      24.612  44.744  51.729  1.00  0.00     0.032 A 
HETATM    4  C   UNL     1      24.695  45.585  50.621  1.00  0.00     0.036 A 
HETATM    5  C   UNL     1      25.480  46.741  50.723  1.00  0.00     0.032 A 
HETATM    6  C   UNL     1      26.159  47.051  51.905  1.00  0.00     0.032 A 
ENDROOT
BRANCH   4   7
HETATM    7  N   UNL     1      24.105  45.348  49.369  1.00  0.00    -0.309 N 
HETATM    8  C   UNL     1      23.005  45.825  48.733  1.00  0.00     0.321 C 
HETATM    9  N   UNL     1      22.404  46.939  49.215  1.00  0.00    -0.337 N 
HETATM   10  O   UNL     1      22.615  45.250  47.717  1.00  0.00    -0.247 OA
HETATM   11  H   UNL     1      23.027  47.614  49.637  1.00  0.00     0.164 HD
HETATM   12  H   UNL     1      24.528  44.615  48.811  1.00  0.00     0.170 HD
BRANCH   9  13
HETATM   13  C   UNL     1      21.309  47.514  48.468  1.00  0.00     0.189 C 
BRANCH  13  14
HETATM   14  C   UNL     1      21.307  48.993  48.596  1.00  0.00     0.070 A 
HETATM   15  O   UNL     1      22.257  49.562  49.398  1.00  0.00    -0.325 OA
HETATM   16  C   UNL     1      22.070  50.906  49.340  1.00  0.00     0.142 A 
HETATM   17  C   UNL     1      21.025  51.213  48.500  1.00  0.00     0.027 A 
HETATM   18  C   UNL     1      20.532  49.978  48.018  1.00  0.00     0.036 A 
ENDBRANCH  13  14
ENDBRANCH   9  13
ENDBRANCH   4   7
BRANCH   1  19
HETATM   19  N   UNL     1      26.835  46.568  54.148  1.00  0.00    -0.327 N 
HETATM   20  C   UNL     1      27.701  45.770  54.880  1.00  0.00     0.227 C 
HETATM   21  O   UNL     1      27.863  44.559  54.732  1.00  0.00    -0.273 OA
HETATM   22  H   UNL     1      26.735  47.528  54.453  1.00  0.00     0.169 HD
BRANCH  20  23
HETATM   23  C   UNL     1      28.513  46.570  55.903  1.00  0.00     0.159 C 
BRANCH  23  24
HETATM   24  C   UNL     1      29.533  45.752  56.632  1.00  0.00     0.017 A 
HETATM   25  N   UNL     1      30.338  44.827  56.004  1.00  0.00    -0.369 N 
HETATM   26  C   UNL     1      31.191  44.263  56.915  1.00  0.00     0.088 A 
HETATM   27  H   UNL     1      30.288  44.600  55.014  1.00  0.00     0.165 HD
HETATM   28  C   UNL     1      30.944  44.835  58.142  1.00  0.00     0.019 A 
HETATM   29  C   UNL     1      29.900  45.773  57.966  1.00  0.00     0.027 A 
ENDBRANCH  23  24
ENDBRANCH  20  23
ENDBRANCH   1  19
TORSDOF 6
ENDMDL
MODEL 7
REMARK VINA RESULT:      -7.5      5.706     13.127
REMARK  6 active torsions:
REMARK  status: ('A' for Active; 'I' for Inactive)
REMARK    1  A    between atoms: C_5  and  C_6 
REMARK    2  A    between atoms: C_6  and  C_7 
REMARK       I    between atoms: C_7  and  N_8 
REMARK    3  A    between atoms: N_8  and  C_9 
REMARK    4  A    between atoms: C_12  and  N_13 
REMARK       I    between atoms: N_13  and  C_14 
REMARK       I    between atoms: C_14  and  N_15 
REMARK    5  A    between atoms: N_15  and  C_16 
REMARK    6  A    between atoms: C_16  and  C_17 
ROOT
HETATM    1  C   UNL     1      20.245  50.736  49.615  1.00  0.00     0.034 A 
HETATM    2  C   UNL     1      19.065  50.366  50.261  1.00  0.00     0.032 A 
HETATM    3  C   UNL     1      17.849  51.010  49.967  1.00  0.00     0.032 A 
HETATM    4  C   UNL     1      17.799  52.046  49.037  1.00  0.00     0.036 A 
HETATM    5  C   UNL     1      18.987  52.417  48.394  1.00  0.00     0.032 A 
HETATM    6  C   UNL     1      20.194  51.772  48.680  1.00  0.00     0.032 A 
ENDROOT
BRANCH   4   7
HETATM    7  N   UNL     1      16.639  52.725  48.630  1.00  0.00    -0.309 N 
HETATM    8  C   UNL     1      15.578  53.265  49.282  1.00  0.00     0.321 C 
HETATM    9  N   UNL     1      15.663  53.455  50.621  1.00  0.00    -0.337 N 
HETATM   10  O   UNL     1      14.591  53.599  48.627  1.00  0.00    -0.247 OA
HETATM   11  H   UNL     1      16.585  53.682  50.964  1.00  0.00     0.164 HD
HETATM   12  H   UNL     1      16.490  52.788  47.630  1.00  0.00     0.170 HD
BRANCH   9  13
HETATM   13  C   UNL     1      14.582  54.140  51.292  1.00  0.00     0.189 C 
BRANCH  13  14
HETATM   14  C   UNL     1      14.873  55.592  51.404  1.00  0.00     0.070 A 
HETATM   15  O   UNL     1      15.146  56.091  52.648  1.00  0.00    -0.325 OA
HETATM   16  C   UNL     1      15.397  57.416  52.496  1.00  0.00     0.142 A 
HETATM   17  C   UNL     1      15.307  57.777  51.171  1.00  0.00     0.027 A 
HETATM   18  C   UNL     1      14.969  56.599  50.465  1.00  0.00     0.036 A 
ENDBRANCH  13  14
ENDBRANCH   9  13
ENDBRANCH   4   7
BRANCH   1  19
HETATM   19  N   UNL     1      21.491  50.104  49.799  1.00  0.00    -0.327 N 
HETATM   20  C   UNL     1      22.113  49.187  48.966  1.00  0.00     0.227 C 
HETATM   21  O   UNL     1      21.618  48.674  47.964  1.00  0.00    -0.273 OA
HETATM   22  H   UNL     1      21.988  50.359  50.644  1.00  0.00     0.169 HD
BRANCH  20  23
HETATM   23  C   UNL     1      23.555  48.892  49.391  1.00  0.00     0.159 C 
BRANCH  23  24
HETATM   24  C   UNL     1      23.860  47.430  49.505  1.00  0.00     0.017 A 
HETATM   25  N   UNL     1      22.924  46.450  49.258  1.00  0.00    -0.369 N 
HETATM   26  C   UNL     1      23.498  45.216  49.408  1.00  0.00     0.088 A 
HETATM   27  H   UNL     1      21.953  46.631  49.012  1.00  0.00     0.165 HD
HETATM   28  C   UNL     1      24.820  45.397  49.744  1.00  0.00     0.019 A 
HETATM   29  C   UNL     1      25.050  46.792  49.806  1.00  0.00     0.027 A 
ENDBRANCH  23  24
ENDBRANCH  20  23
ENDBRANCH   1  19
TORSDOF 6
ENDMDL
MODEL 8
REMARK VINA RESULT:      -7.3      5.925     12.774
REMARK  6 active torsions:
REMARK  status: ('A' for Active; 'I' for Inactive)
REMARK    1  A    between atoms: C_5  and  C_6 
REMARK    2  A    between atoms: C_6  and  C_7 
REMARK       I    between atoms: C_7  and  N_8 
REMARK    3  A    between atoms: N_8  and  C_9 
REMARK    4  A    between atoms: C_12  and  N_13 
REMARK       I    between atoms: N_13  and  C_14 
REMARK       I    between atoms: C_14  and  N_15 
REMARK    5  A    between atoms: N_15  and  C_16 
REMARK    6  A    between atoms: C_16  and  C_17 
ROOT
HETATM    1  C   UNL     1      20.749  49.733  49.569  1.00  0.00     0.034 A 
HETATM    2  C   UNL     1      20.786  51.058  49.133  1.00  0.00     0.032 A 
HETATM    3  C   UNL     1      19.601  51.805  48.996  1.00  0.00     0.032 A 
HETATM    4  C   UNL     1      18.362  51.232  49.275  1.00  0.00     0.036 A 
HETATM    5  C   UNL     1      18.329  49.901  49.708  1.00  0.00     0.032 A 
HETATM    6  C   UNL     1      19.507  49.159  49.852  1.00  0.00     0.032 A 
ENDROOT
BRANCH   4   7
HETATM    7  N   UNL     1      17.124  51.894  49.221  1.00  0.00    -0.309 N 
HETATM    8  C   UNL     1      16.300  52.284  48.216  1.00  0.00     0.321 C 
HETATM    9  N   UNL     1      16.496  51.773  46.977  1.00  0.00    -0.337 N 
HETATM   10  O   UNL     1      15.378  53.057  48.476  1.00  0.00    -0.247 OA
HETATM   11  H   UNL     1      16.843  50.825  46.953  1.00  0.00     0.164 HD
HETATM   12  H   UNL     1      16.764  52.232  50.106  1.00  0.00     0.170 HD
BRANCH   9  13
HETATM   13  C   UNL     1      15.544  52.094  45.937  1.00  0.00     0.189 C 
BRANCH  13  14
HETATM   14  C   UNL     1      16.245  52.486  44.689  1.00  0.00     0.070 A 
HETATM   15  O   UNL     1      16.968  51.525  44.038  1.00  0.00    -0.325 OA
HETATM   16  C   UNL     1      17.492  52.107  42.929  1.00  0.00     0.142 A 
HETATM   17  C   UNL     1      17.105  53.424  42.845  1.00  0.00     0.027 A 
HETATM   18  C   UNL     1      16.299  53.670  43.981  1.00  0.00     0.036 A 
ENDBRANCH  13  14
ENDBRANCH   9  13
ENDBRANCH   4   7
BRANCH   1  19
HETATM   19  N   UNL     1      21.886  48.932  49.796  1.00  0.00    -0.327 N 
HETATM   20  C   UNL     1      22.789  48.450  48.860  1.00  0.00     0.227 C 
HETATM   21  O   UNL     1      22.680  48.547  47.638  1.00  0.00    -0.273 OA
HETATM   22  H   UNL     1      22.060  48.685  50.762  1.00  0.00     0.169 HD
BRANCH  20  23
HETATM   23  C   UNL     1      24.016  47.801  49.508  1.00  0.00     0.159 C 
BRANCH  23  24
HETATM   24  C   UNL     1      25.303  48.493  49.184  1.00  0.00     0.017 A 
HETATM   25  N   UNL     1      25.367  49.623  48.399  1.00  0.00    -0.369 N 
HETATM   26  C   UNL     1      26.666  50.049  48.307  1.00  0.00     0.088 A 
HETATM   27  H   UNL     1      24.564  50.058  47.951  1.00  0.00     0.165 HD
HETATM   28  C   UNL     1      27.448  49.195  49.050  1.00  0.00     0.019 A 
HETATM   29  C   UNL     1      26.592  48.214  49.603  1.00  0.00     0.027 A 
ENDBRANCH  23  24
ENDBRANCH  20  23
ENDBRANCH   1  19
TORSDOF 6
ENDMDL
MODEL 9
REMARK VINA RESULT:      -7.2     16.963     20.847
REMARK  6 active torsions:
REMARK  status: ('A' for Active; 'I' for Inactive)
REMARK    1  A    between atoms: C_5  and  C_6 
REMARK    2  A    between atoms: C_6  and  C_7 
REMARK       I    between atoms: C_7  and  N_8 
REMARK    3  A    between atoms: N_8  and  C_9 
REMARK    4  A    between atoms: C_12  and  N_13 
REMARK       I    between atoms: N_13  and  C_14 
REMARK       I    between atoms: C_14  and  N_15 
REMARK    5  A    between atoms: N_15  and  C_16 
REMARK    6  A    between atoms: C_16  and  C_17 
ROOT
HETATM    1  C   UNL     1      39.340  40.246  63.903  1.00  0.00     0.034 A 
HETATM    2  C   UNL     1      38.287  40.428  64.800  1.00  0.00     0.032 A 
HETATM    3  C   UNL     1      37.474  41.575  64.735  1.00  0.00     0.032 A 
HETATM    4  C   UNL     1      37.716  42.565  63.785  1.00  0.00     0.036 A 
HETATM    5  C   UNL     1      38.777  42.381  62.890  1.00  0.00     0.032 A 
HETATM    6  C   UNL     1      39.580  41.238  62.949  1.00  0.00     0.032 A 
ENDROOT
BRANCH   4   7
HETATM    7  N   UNL     1      36.943  43.723  63.597  1.00  0.00    -0.309 N 
HETATM    8  C   UNL     1      36.751  44.862  64.310  1.00  0.00     0.321 C 
HETATM    9  N   UNL     1      37.610  45.154  65.316  1.00  0.00    -0.337 N 
HETATM   10  O   UNL     1      35.825  45.607  63.992  1.00  0.00    -0.247 OA
HETATM   11  H   UNL     1      38.563  44.854  65.167  1.00  0.00     0.164 HD
HETATM   12  H   UNL     1      36.327  43.719  62.792  1.00  0.00     0.170 HD
BRANCH   9  13
HETATM   13  C   UNL     1      37.476  46.424  65.993  1.00  0.00     0.189 C 
BRANCH  13  14
HETATM   14  C   UNL     1      38.433  47.415  65.441  1.00  0.00     0.070 A 
HETATM   15  O   UNL     1      39.756  47.070  65.409  1.00  0.00    -0.325 OA
HETATM   16  C   UNL     1      40.423  48.113  64.850  1.00  0.00     0.142 A 
HETATM   17  C   UNL     1      39.549  49.118  64.507  1.00  0.00     0.027 A 
HETATM   18  C   UNL     1      38.263  48.668  64.887  1.00  0.00     0.036 A 
ENDBRANCH  13  14
ENDBRANCH   9  13
ENDBRANCH   4   7
BRANCH   1  19
HETATM   19  N   UNL     1      40.162  39.102  63.854  1.00  0.00    -0.327 N 
HETATM   20  C   UNL     1      41.378  38.899  64.488  1.00  0.00     0.227 C 
HETATM   21  O   UNL     1      42.011  39.746  65.119  1.00  0.00    -0.273 OA
HETATM   22  H   UNL     1      39.813  38.339  63.287  1.00  0.00     0.169 HD
BRANCH  20  23
HETATM   23  C   UNL     1      41.866  37.452  64.374  1.00  0.00     0.159 C 
BRANCH  23  24
HETATM   24  C   UNL     1      41.248  36.529  65.378  1.00  0.00     0.017 A 
HETATM   25  N   UNL     1      41.637  35.216  65.525  1.00  0.00    -0.369 N 
HETATM   26  C   UNL     1      40.922  34.633  66.538  1.00  0.00     0.088 A 
HETATM   27  H   UNL     1      42.343  34.757  64.953  1.00  0.00     0.165 HD
HETATM   28  C   UNL     1      40.071  35.581  67.059  1.00  0.00     0.019 A 
HETATM   29  C   UNL     1      40.274  36.775  66.329  1.00  0.00     0.027 A 
ENDBRANCH  23  24
ENDBRANCH  20  23
ENDBRANCH   1  19
TORSDOF 6
ENDMDL
MODEL 10
REMARK VINA RESULT:      -7.2      2.370      9.904
REMARK  6 active torsions:
REMARK  status: ('A' for Active; 'I' for Inactive)
REMARK    1  A    between atoms: C_5  and  C_6 
REMARK    2  A    between atoms: C_6  and  C_7 
REMARK       I    between atoms: C_7  and  N_8 
REMARK    3  A    between atoms: N_8  and  C_9 
REMARK    4  A    between atoms: C_12  and  N_13 
REMARK       I    between atoms: N_13  and  C_14 
REMARK       I    between atoms: C_14  and  N_15 
REMARK    5  A    between atoms: N_15  and  C_16 
REMARK    6  A    between atoms: C_16  and  C_17 
ROOT
HETATM    1  C   UNL     1      25.452  46.088  51.808  1.00  0.00     0.034 A 
HETATM    2  C   UNL     1      24.843  44.964  51.251  1.00  0.00     0.032 A 
HETATM    3  C   UNL     1      24.021  45.077  50.114  1.00  0.00     0.032 A 
HETATM    4  C   UNL     1      23.781  46.320  49.530  1.00  0.00     0.036 A 
HETATM    5  C   UNL     1      24.391  47.446  50.096  1.00  0.00     0.032 A 
HETATM    6  C   UNL     1      25.214  47.334  51.221  1.00  0.00     0.032 A 
ENDROOT
BRANCH   4   7
HETATM    7  N   UNL     1      23.022  46.545  48.370  1.00  0.00    -0.309 N 
HETATM    8  C   UNL     1      21.752  46.961  48.134  1.00  0.00     0.321 C 
HETATM    9  N   UNL     1      21.053  47.529  49.146  1.00  0.00    -0.337 N 
HETATM   10  O   UNL     1      21.295  46.843  46.998  1.00  0.00    -0.247 OA
HETATM   11  H   UNL     1      21.604  48.067  49.800  1.00  0.00     0.164 HD
HETATM   12  H   UNL     1      23.464  46.289  47.495  1.00  0.00     0.170 HD
BRANCH   9  13
HETATM   13  C   UNL     1      19.747  48.081  48.861  1.00  0.00     0.189 C 
BRANCH  13  14
HETATM   14  C   UNL     1      19.787  49.564  48.895  1.00  0.00     0.070 A 
HETATM   15  O   UNL     1      19.538  50.178  50.092  1.00  0.00    -0.325 OA
HETATM   16  C   UNL     1      19.650  51.515  49.881  1.00  0.00     0.142 A 
HETATM   17  C   UNL     1      19.985  51.772  48.572  1.00  0.00     0.027 A 
HETATM   18  C   UNL     1      20.074  50.513  47.934  1.00  0.00     0.036 A 
ENDBRANCH  13  14
ENDBRANCH   9  13
ENDBRANCH   4   7
BRANCH   1  19
HETATM   19  N   UNL     1      26.339  46.059  52.904  1.00  0.00    -0.327 N 
HETATM   20  C   UNL     1      26.209  45.347  54.086  1.00  0.00     0.227 C 
HETATM   21  O   UNL     1      25.221  44.700  54.432  1.00  0.00    -0.273 OA
HETATM   22  H   UNL     1      27.170  46.628  52.805  1.00  0.00     0.169 HD
BRANCH  20  23
HETATM   23  C   UNL     1      27.477  45.396  54.944  1.00  0.00     0.159 C 
BRANCH  23  24
HETATM   24  C   UNL     1      28.507  44.383  54.551  1.00  0.00     0.017 A 
HETATM   25  N   UNL     1      29.715  44.255  55.200  1.00  0.00    -0.369 N 
HETATM   26  C   UNL     1      30.430  43.227  54.645  1.00  0.00     0.088 A 
HETATM   27  H   UNL     1      30.021  44.848  55.968  1.00  0.00     0.165 HD
HETATM   28  C   UNL     1      29.675  42.678  53.635  1.00  0.00     0.019 A 
HETATM   29  C   UNL     1      28.463  43.405  53.574  1.00  0.00     0.027 A 
ENDBRANCH  23  24
ENDBRANCH  20  23
ENDBRANCH   1  19
TORSDOF 6
ENDMDL
