MODEL 1
REMARK VINA RESULT:      -8.0      0.000      0.000
REMARK  7 active torsions:
REMARK  status: ('A' for Active; 'I' for Inactive)
REMARK    1  A    between atoms: C_2  and  C_3 
REMARK    2  A    between atoms: C_3  and  N_4 
REMARK    3  A    between atoms: N_4  and  C_5 
REMARK    4  A    between atoms: C_7  and  N_8 
REMARK    5  A    between atoms: N_8  and  C_9 
REMARK    6  A    between atoms: C_9  and  C_10 
REMARK    7  A    between atoms: C_11  and  O_12 
ROOT
HETATM    1  C   UNL     1      29.444  44.179  54.617  1.00  0.00     0.134 A 
HETATM    2  N   UNL     1      28.519  45.020  54.112  1.00  0.00    -0.052 NA
HETATM    3  C   UNL     1      28.160  46.081  54.849  1.00  0.00     0.702 A 
HETATM    4  N   UNL     1      28.674  46.335  56.048  1.00  0.00    -0.189 N 
HETATM    5  H   UNL     1      28.387  47.183  56.518  1.00  0.00     0.184 HD
HETATM    6  C   UNL     1      29.617  45.548  56.583  1.00  0.00     0.062 A 
HETATM    7  C   UNL     1      30.054  44.418  55.866  1.00  0.00     0.032 A 
HETATM    8  C   UNL     1      30.186  45.873  57.823  1.00  0.00     0.031 A 
HETATM    9  C   UNL     1      31.204  45.083  58.358  1.00  0.00     0.002 A 
HETATM   10  C   UNL     1      31.658  43.969  57.659  1.00  0.00     0.001 A 
HETATM   11  C   UNL     1      31.092  43.636  56.427  1.00  0.00     0.017 A 
ENDROOT
BRANCH   3  12
HETATM   12  N   UNL     1      27.326  46.991  54.245  1.00  0.00    -0.220 N 
HETATM   13  H   UNL     1      27.819  47.410  53.457  1.00  0.00     0.178 HD
BRANCH  12  14
HETATM   14  C   UNL     1      25.918  46.734  53.986  1.00  0.00     0.179 C 
BRANCH  14  15
HETATM   15  C   UNL     1      25.641  45.819  52.811  1.00  0.00    -0.007 A 
HETATM   16  C   UNL     1      25.867  46.299  51.501  1.00  0.00     0.076 A 
HETATM   17  C   UNL     1      25.723  45.442  50.404  1.00  0.00     0.037 A 
HETATM   18  C   UNL     1      25.377  44.105  50.595  1.00  0.00     0.003 A 
HETATM   19  C   UNL     1      25.168  43.617  51.880  1.00  0.00     0.001 A 
HETATM   20  C   UNL     1      25.305  44.464  52.981  1.00  0.00     0.011 A 
BRANCH  16  21
HETATM   21  O   UNL     1      26.214  47.624  51.400  1.00  0.00    -0.355 OA
HETATM   22  C   UNL     1      26.529  48.107  50.095  1.00  0.00     0.210 C 
ENDBRANCH  16  21
ENDBRANCH  14  15
ENDBRANCH  12  14
ENDBRANCH   3  12
BRANCH   1  23
HETATM   23  N   UNL     1      29.869  43.094  53.842  1.00  0.00    -0.276 NA
HETATM   24  H   UNL     1      29.678  42.209  54.308  1.00  0.00     0.129 HD
BRANCH  23  25
HETATM   25  C   UNL     1      29.449  43.068  52.442  1.00  0.00     0.093 C 
BRANCH  25  26
HETATM   26  C   UNL     1      28.701  41.766  52.147  1.00  0.00     0.010 C 
HETATM   27  C   UNL     1      27.982  41.211  53.370  1.00  0.00     0.006 C 
ENDBRANCH  25  26
ENDBRANCH  23  25
ENDBRANCH   1  23
TORSDOF 7
ENDMDL
MODEL 2
REMARK VINA RESULT:      -7.9      2.316      7.310
REMARK  7 active torsions:
REMARK  status: ('A' for Active; 'I' for Inactive)
REMARK    1  A    between atoms: C_2  and  C_3 
REMARK    2  A    between atoms: C_3  and  N_4 
REMARK    3  A    between atoms: N_4  and  C_5 
REMARK    4  A    between atoms: C_7  and  N_8 
REMARK    5  A    between atoms: N_8  and  C_9 
REMARK    6  A    between atoms: C_9  and  C_10 
REMARK    7  A    between atoms: C_11  and  O_12 
ROOT
HETATM    1  C   UNL     1      25.141  47.310  50.734  1.00  0.00     0.134 A 
HETATM    2  N   UNL     1      25.921  47.441  51.825  1.00  0.00    -0.052 NA
HETATM    3  C   UNL     1      26.058  46.381  52.635  1.00  0.00     0.702 A 
HETATM    4  N   UNL     1      25.461  45.216  52.409  1.00  0.00    -0.189 N 
HETATM    5  H   UNL     1      25.656  44.452  53.040  1.00  0.00     0.184 HD
HETATM    6  C   UNL     1      24.700  45.024  51.323  1.00  0.00     0.062 A 
HETATM    7  C   UNL     1      24.514  46.087  50.419  1.00  0.00     0.032 A 
HETATM    8  C   UNL     1      24.130  43.766  51.076  1.00  0.00     0.031 A 
HETATM    9  C   UNL     1      23.379  43.549  49.920  1.00  0.00     0.002 A 
HETATM   10  C   UNL     1      23.194  44.584  49.009  1.00  0.00     0.001 A 
HETATM   11  C   UNL     1      23.753  45.840  49.251  1.00  0.00     0.017 A 
ENDROOT
BRANCH   3  12
HETATM   12  N   UNL     1      26.972  46.506  53.655  1.00  0.00    -0.220 N 
HETATM   13  H   UNL     1      27.082  47.495  53.873  1.00  0.00     0.178 HD
BRANCH  12  14
HETATM   14  C   UNL     1      26.982  45.642  54.826  1.00  0.00     0.179 C 
BRANCH  14  15
HETATM   15  C   UNL     1      28.246  44.828  55.008  1.00  0.00    -0.007 A 
HETATM   16  C   UNL     1      28.413  43.645  54.254  1.00  0.00     0.076 A 
HETATM   17  C   UNL     1      29.616  42.932  54.322  1.00  0.00     0.037 A 
HETATM   18  C   UNL     1      30.664  43.393  55.117  1.00  0.00     0.003 A 
HETATM   19  C   UNL     1      30.518  44.565  55.851  1.00  0.00     0.001 A 
HETATM   20  C   UNL     1      29.322  45.282  55.793  1.00  0.00     0.011 A 
BRANCH  16  21
HETATM   21  O   UNL     1      27.338  43.264  53.490  1.00  0.00    -0.355 OA
HETATM   22  C   UNL     1      27.552  42.197  52.567  1.00  0.00     0.210 C 
ENDBRANCH  16  21
ENDBRANCH  14  15
ENDBRANCH  12  14
ENDBRANCH   3  12
BRANCH   1  23
HETATM   23  N   UNL     1      25.026  48.388  49.849  1.00  0.00    -0.276 NA
HETATM   24  H   UNL     1      24.570  49.184  50.293  1.00  0.00     0.129 HD
BRANCH  23  25
HETATM   25  C   UNL     1      26.231  48.791  49.127  1.00  0.00     0.093 C 
BRANCH  25  26
HETATM   26  C   UNL     1      25.899  49.917  48.145  1.00  0.00     0.010 C 
HETATM   27  C   UNL     1      24.400  50.137  47.990  1.00  0.00     0.006 C 
ENDBRANCH  25  26
ENDBRANCH  23  25
ENDBRANCH   1  23
TORSDOF 7
ENDMDL
MODEL 3
REMARK VINA RESULT:      -7.9      2.519      4.160
REMARK  7 active torsions:
REMARK  status: ('A' for Active; 'I' for Inactive)
REMARK    1  A    between atoms: C_2  and  C_3 
REMARK    2  A    between atoms: C_3  and  N_4 
REMARK    3  A    between atoms: N_4  and  C_5 
REMARK    4  A    between atoms: C_7  and  N_8 
REMARK    5  A    between atoms: N_8  and  C_9 
REMARK    6  A    between atoms: C_9  and  C_10 
REMARK    7  A    between atoms: C_11  and  O_12 
ROOT
HETATM    1  C   UNL     1      26.497  43.899  53.471  1.00  0.00     0.134 A 
HETATM    2  N   UNL     1      25.513  43.884  52.550  1.00  0.00    -0.052 NA
HETATM    3  C   UNL     1      24.968  45.054  52.189  1.00  0.00     0.702 A 
HETATM    4  N   UNL     1      25.355  46.220  52.697  1.00  0.00    -0.189 N 
HETATM    5  H   UNL     1      24.928  47.061  52.335  1.00  0.00     0.184 HD
HETATM    6  C   UNL     1      26.349  46.293  53.593  1.00  0.00     0.062 A 
HETATM    7  C   UNL     1      26.979  45.108  54.016  1.00  0.00     0.032 A 
HETATM    8  C   UNL     1      26.779  47.541  54.068  1.00  0.00     0.031 A 
HETATM    9  C   UNL     1      27.847  47.624  54.961  1.00  0.00     0.002 A 
HETATM   10  C   UNL     1      28.490  46.464  55.383  1.00  0.00     0.001 A 
HETATM   11  C   UNL     1      28.063  45.218  54.919  1.00  0.00     0.017 A 
ENDROOT
BRANCH   3  12
HETATM   12  N   UNL     1      24.071  45.016  51.147  1.00  0.00    -0.220 N 
HETATM   13  H   UNL     1      23.179  45.382  51.474  1.00  0.00     0.178 HD
BRANCH  12  14
HETATM   14  C   UNL     1      24.408  45.415  49.790  1.00  0.00     0.179 C 
BRANCH  14  15
HETATM   15  C   UNL     1      23.703  46.661  49.297  1.00  0.00    -0.007 A 
HETATM   16  C   UNL     1      24.285  47.923  49.551  1.00  0.00     0.076 A 
HETATM   17  C   UNL     1      23.712  49.082  49.014  1.00  0.00     0.037 A 
HETATM   18  C   UNL     1      22.578  48.999  48.208  1.00  0.00     0.003 A 
HETATM   19  C   UNL     1      22.005  47.761  47.937  1.00  0.00     0.001 A 
HETATM   20  C   UNL     1      22.566  46.600  48.470  1.00  0.00     0.011 A 
BRANCH  16  21
HETATM   21  O   UNL     1      25.405  47.917  50.345  1.00  0.00    -0.355 OA
HETATM   22  C   UNL     1      26.637  48.275  49.719  1.00  0.00     0.210 C 
ENDBRANCH  16  21
ENDBRANCH  14  15
ENDBRANCH  12  14
ENDBRANCH   3  12
BRANCH   1  23
HETATM   23  N   UNL     1      27.115  42.693  53.824  1.00  0.00    -0.276 NA
HETATM   24  H   UNL     1      26.487  42.102  54.366  1.00  0.00     0.129 HD
BRANCH  23  25
HETATM   25  C   UNL     1      27.776  41.944  52.757  1.00  0.00     0.093 C 
BRANCH  25  26
HETATM   26  C   UNL     1      29.010  42.707  52.271  1.00  0.00     0.010 C 
HETATM   27  C   UNL     1      30.150  42.683  53.281  1.00  0.00     0.006 C 
ENDBRANCH  25  26
ENDBRANCH  23  25
ENDBRANCH   1  23
TORSDOF 7
ENDMDL
MODEL 4
REMARK VINA RESULT:      -7.9      1.987      4.289
REMARK  7 active torsions:
REMARK  status: ('A' for Active; 'I' for Inactive)
REMARK    1  A    between atoms: C_2  and  C_3 
REMARK    2  A    between atoms: C_3  and  N_4 
REMARK    3  A    between atoms: N_4  and  C_5 
REMARK    4  A    between atoms: C_7  and  N_8 
REMARK    5  A    between atoms: N_8  and  C_9 
REMARK    6  A    between atoms: C_9  and  C_10 
REMARK    7  A    between atoms: C_11  and  O_12 
ROOT
HETATM    1  C   UNL     1      28.756  45.037  54.746  1.00  0.00     0.134 A 
HETATM    2  N   UNL     1      28.767  44.220  53.675  1.00  0.00    -0.052 NA
HETATM    3  C   UNL     1      29.688  43.246  53.634  1.00  0.00     0.702 A 
HETATM    4  N   UNL     1      30.583  43.055  54.597  1.00  0.00    -0.189 N 
HETATM    5  H   UNL     1      31.210  42.268  54.514  1.00  0.00     0.184 HD
HETATM    6  C   UNL     1      30.595  43.821  55.697  1.00  0.00     0.062 A 
HETATM    7  C   UNL     1      29.653  44.860  55.820  1.00  0.00     0.032 A 
HETATM    8  C   UNL     1      31.512  43.560  56.727  1.00  0.00     0.031 A 
HETATM    9  C   UNL     1      31.493  44.324  57.894  1.00  0.00     0.002 A 
HETATM   10  C   UNL     1      30.563  45.348  58.039  1.00  0.00     0.001 A 
HETATM   11  C   UNL     1      29.652  45.617  57.016  1.00  0.00     0.017 A 
ENDROOT
BRANCH   3  12
HETATM   12  N   UNL     1      29.579  42.345  52.601  1.00  0.00    -0.220 N 
HETATM   13  H   UNL     1      30.493  41.927  52.438  1.00  0.00     0.178 HD
BRANCH  12  14
HETATM   14  C   UNL     1      28.474  41.408  52.473  1.00  0.00     0.179 C 
BRANCH  14  15
HETATM   15  C   UNL     1      28.047  41.113  51.051  1.00  0.00    -0.007 A 
HETATM   16  C   UNL     1      27.356  42.107  50.322  1.00  0.00     0.076 A 
HETATM   17  C   UNL     1      27.046  41.902  48.973  1.00  0.00     0.037 A 
HETATM   18  C   UNL     1      27.433  40.727  48.332  1.00  0.00     0.003 A 
HETATM   19  C   UNL     1      28.127  39.747  49.033  1.00  0.00     0.001 A 
HETATM   20  C   UNL     1      28.439  39.940  50.380  1.00  0.00     0.011 A 
BRANCH  16  21
HETATM   21  O   UNL     1      27.020  43.239  51.024  1.00  0.00    -0.355 OA
HETATM   22  C   UNL     1      27.221  44.487  50.363  1.00  0.00     0.210 C 
ENDBRANCH  16  21
ENDBRANCH  14  15
ENDBRANCH  12  14
ENDBRANCH   3  12
BRANCH   1  23
HETATM   23  N   UNL     1      27.770  46.028  54.833  1.00  0.00    -0.276 NA
HETATM   24  H   UNL     1      28.167  46.919  55.127  1.00  0.00     0.129 HD
BRANCH  23  25
HETATM   25  C   UNL     1      26.880  46.187  53.685  1.00  0.00     0.093 C 
BRANCH  25  26
HETATM   26  C   UNL     1      25.902  47.336  53.938  1.00  0.00     0.010 C 
HETATM   27  C   UNL     1      26.313  48.206  55.119  1.00  0.00     0.006 C 
ENDBRANCH  25  26
ENDBRANCH  23  25
ENDBRANCH   1  23
TORSDOF 7
ENDMDL
MODEL 5
REMARK VINA RESULT:      -7.6      2.426      4.622
REMARK  7 active torsions:
REMARK  status: ('A' for Active; 'I' for Inactive)
REMARK    1  A    between atoms: C_2  and  C_3 
REMARK    2  A    between atoms: C_3  and  N_4 
REMARK    3  A    between atoms: N_4  and  C_5 
REMARK    4  A    between atoms: C_7  and  N_8 
REMARK    5  A    between atoms: N_8  and  C_9 
REMARK    6  A    between atoms: C_9  and  C_10 
REMARK    7  A    between atoms: C_11  and  O_12 
ROOT
HETATM    1  C   UNL     1      28.831  45.095  54.777  1.00  0.00     0.134 A 
HETATM    2  N   UNL     1      28.930  44.206  53.769  1.00  0.00    -0.052 NA
HETATM    3  C   UNL     1      29.864  43.249  53.860  1.00  0.00     0.702 A 
HETATM    4  N   UNL     1      30.691  43.142  54.895  1.00  0.00    -0.189 N 
HETATM    5  H   UNL     1      31.334  42.363  54.911  1.00  0.00     0.184 HD
HETATM    6  C   UNL     1      30.615  43.981  55.937  1.00  0.00     0.062 A 
HETATM    7  C   UNL     1      29.652  45.008  55.920  1.00  0.00     0.032 A 
HETATM    8  C   UNL     1      31.459  43.809  57.044  1.00  0.00     0.031 A 
HETATM    9  C   UNL     1      31.347  44.650  58.151  1.00  0.00     0.002 A 
HETATM   10  C   UNL     1      30.394  45.664  58.159  1.00  0.00     0.001 A 
HETATM   11  C   UNL     1      29.555  45.845  57.058  1.00  0.00     0.017 A 
ENDROOT
BRANCH   3  12
HETATM   12  N   UNL     1      29.842  42.278  52.887  1.00  0.00    -0.220 N 
HETATM   13  H   UNL     1      30.709  41.746  52.940  1.00  0.00     0.178 HD
BRANCH  12  14
HETATM   14  C   UNL     1      28.671  41.464  52.600  1.00  0.00     0.179 C 
BRANCH  14  15
HETATM   15  C   UNL     1      28.078  41.661  51.221  1.00  0.00    -0.007 A 
HETATM   16  C   UNL     1      28.112  40.589  50.301  1.00  0.00     0.076 A 
HETATM   17  C   UNL     1      27.476  40.708  49.060  1.00  0.00     0.037 A 
HETATM   18  C   UNL     1      26.788  41.874  48.729  1.00  0.00     0.003 A 
HETATM   19  C   UNL     1      26.733  42.930  49.632  1.00  0.00     0.001 A 
HETATM   20  C   UNL     1      27.366  42.824  50.871  1.00  0.00     0.011 A 
BRANCH  16  21
HETATM   21  O   UNL     1      28.802  39.474  50.707  1.00  0.00    -0.355 OA
HETATM   22  C   UNL     1      29.112  38.510  49.701  1.00  0.00     0.210 C 
ENDBRANCH  16  21
ENDBRANCH  14  15
ENDBRANCH  12  14
ENDBRANCH   3  12
BRANCH   1  23
HETATM   23  N   UNL     1      27.828  46.071  54.725  1.00  0.00    -0.276 NA
HETATM   24  H   UNL     1      28.155  46.912  54.252  1.00  0.00     0.129 HD
BRANCH  23  25
HETATM   25  C   UNL     1      26.515  45.653  54.239  1.00  0.00     0.093 C 
BRANCH  25  26
HETATM   26  C   UNL     1      25.952  46.710  53.285  1.00  0.00     0.010 C 
HETATM   27  C   UNL     1      25.913  46.234  51.839  1.00  0.00     0.006 C 
ENDBRANCH  25  26
ENDBRANCH  23  25
ENDBRANCH   1  23
TORSDOF 7
ENDMDL
MODEL 6
REMARK VINA RESULT:      -7.5      2.219      7.192
REMARK  7 active torsions:
REMARK  status: ('A' for Active; 'I' for Inactive)
REMARK    1  A    between atoms: C_2  and  C_3 
REMARK    2  A    between atoms: C_3  and  N_4 
REMARK    3  A    between atoms: N_4  and  C_5 
REMARK    4  A    between atoms: C_7  and  N_8 
REMARK    5  A    between atoms: N_8  and  C_9 
REMARK    6  A    between atoms: C_9  and  C_10 
REMARK    7  A    between atoms: C_11  and  O_12 
ROOT
HETATM    1  C   UNL     1      25.422  46.859  51.157  1.00  0.00     0.134 A 
HETATM    2  N   UNL     1      25.851  46.858  52.434  1.00  0.00    -0.052 NA
HETATM    3  C   UNL     1      25.649  45.755  53.168  1.00  0.00     0.702 A 
HETATM    4  N   UNL     1      25.046  44.670  52.692  1.00  0.00    -0.189 N 
HETATM    5  H   UNL     1      24.977  43.862  53.294  1.00  0.00     0.184 HD
HETATM    6  C   UNL     1      24.627  44.608  51.420  1.00  0.00     0.062 A 
HETATM    7  C   UNL     1      24.812  45.724  50.583  1.00  0.00     0.032 A 
HETATM    8  C   UNL     1      24.049  43.430  50.926  1.00  0.00     0.031 A 
HETATM    9  C   UNL     1      23.658  43.345  49.589  1.00  0.00     0.002 A 
HETATM   10  C   UNL     1      23.843  44.434  48.743  1.00  0.00     0.001 A 
HETATM   11  C   UNL     1      24.413  45.612  49.229  1.00  0.00     0.017 A 
ENDROOT
BRANCH   3  12
HETATM   12  N   UNL     1      26.226  45.736  54.416  1.00  0.00    -0.220 N 
HETATM   13  H   UNL     1      26.039  44.831  54.846  1.00  0.00     0.178 HD
BRANCH  12  14
HETATM   14  C   UNL     1      27.559  46.250  54.686  1.00  0.00     0.179 C 
BRANCH  14  15
HETATM   15  C   UNL     1      28.657  45.207  54.693  1.00  0.00    -0.007 A 
HETATM   16  C   UNL     1      29.586  45.198  55.758  1.00  0.00     0.076 A 
HETATM   17  C   UNL     1      30.543  44.180  55.847  1.00  0.00     0.037 A 
HETATM   18  C   UNL     1      30.575  43.159  54.899  1.00  0.00     0.003 A 
HETATM   19  C   UNL     1      29.657  43.148  53.855  1.00  0.00     0.001 A 
HETATM   20  C   UNL     1      28.700  44.159  53.755  1.00  0.00     0.011 A 
BRANCH  16  21
HETATM   21  O   UNL     1      29.480  46.233  56.654  1.00  0.00    -0.355 OA
HETATM   22  C   UNL     1      29.953  45.986  57.978  1.00  0.00     0.210 C 
ENDBRANCH  16  21
ENDBRANCH  14  15
ENDBRANCH  12  14
ENDBRANCH   3  12
BRANCH   1  23
HETATM   23  N   UNL     1      25.669  47.982  50.358  1.00  0.00    -0.276 NA
HETATM   24  H   UNL     1      25.564  48.844  50.891  1.00  0.00     0.129 HD
BRANCH  23  25
HETATM   25  C   UNL     1      26.899  47.982  49.568  1.00  0.00     0.093 C 
BRANCH  25  26
HETATM   26  C   UNL     1      27.140  49.374  48.979  1.00  0.00     0.010 C 
HETATM   27  C   UNL     1      25.977  49.858  48.123  1.00  0.00     0.006 C 
ENDBRANCH  25  26
ENDBRANCH  23  25
ENDBRANCH   1  23
TORSDOF 7
ENDMDL
MODEL 7
REMARK VINA RESULT:      -7.4      2.293      5.109
REMARK  7 active torsions:
REMARK  status: ('A' for Active; 'I' for Inactive)
REMARK    1  A    between atoms: C_2  and  C_3 
REMARK    2  A    between atoms: C_3  and  N_4 
REMARK    3  A    between atoms: N_4  and  C_5 
REMARK    4  A    between atoms: C_7  and  N_8 
REMARK    5  A    between atoms: N_8  and  C_9 
REMARK    6  A    between atoms: C_9  and  C_10 
REMARK    7  A    between atoms: C_11  and  O_12 
ROOT
HETATM    1  C   UNL     1      27.113  44.657  53.396  1.00  0.00     0.134 A 
HETATM    2  N   UNL     1      26.386  45.380  52.521  1.00  0.00    -0.052 NA
HETATM    3  C   UNL     1      26.214  44.888  51.285  1.00  0.00     0.702 A 
HETATM    4  N   UNL     1      26.727  43.728  50.890  1.00  0.00    -0.189 N 
HETATM    5  H   UNL     1      26.508  43.405  49.958  1.00  0.00     0.184 HD
HETATM    6  C   UNL     1      27.432  42.957  51.730  1.00  0.00     0.062 A 
HETATM    7  C   UNL     1      27.649  43.399  53.048  1.00  0.00     0.032 A 
HETATM    8  C   UNL     1      27.910  41.708  51.305  1.00  0.00     0.031 A 
HETATM    9  C   UNL     1      28.601  40.882  52.192  1.00  0.00     0.002 A 
HETATM   10  C   UNL     1      28.816  41.297  53.503  1.00  0.00     0.001 A 
HETATM   11  C   UNL     1      28.347  42.541  53.930  1.00  0.00     0.017 A 
ENDROOT
BRANCH   3  12
HETATM   12  N   UNL     1      25.350  45.579  50.468  1.00  0.00    -0.220 N 
HETATM   13  H   UNL     1      24.594  44.954  50.193  1.00  0.00     0.178 HD
BRANCH  12  14
HETATM   14  C   UNL     1      24.917  46.941  50.735  1.00  0.00     0.179 C 
BRANCH  14  15
HETATM   15  C   UNL     1      25.448  47.982  49.772  1.00  0.00    -0.007 A 
HETATM   16  C   UNL     1      24.532  48.808  49.083  1.00  0.00     0.076 A 
HETATM   17  C   UNL     1      24.998  49.849  48.271  1.00  0.00     0.037 A 
HETATM   18  C   UNL     1      26.365  50.091  48.151  1.00  0.00     0.003 A 
HETATM   19  C   UNL     1      27.276  49.295  48.837  1.00  0.00     0.001 A 
HETATM   20  C   UNL     1      26.823  48.253  49.647  1.00  0.00     0.011 A 
BRANCH  16  21
HETATM   21  O   UNL     1      23.204  48.510  49.262  1.00  0.00    -0.355 OA
HETATM   22  C   UNL     1      22.450  48.208  48.088  1.00  0.00     0.210 C 
ENDBRANCH  16  21
ENDBRANCH  14  15
ENDBRANCH  12  14
ENDBRANCH   3  12
BRANCH   1  23
HETATM   23  N   UNL     1      27.262  45.128  54.706  1.00  0.00    -0.276 NA
HETATM   24  H   UNL     1      27.422  44.362  55.358  1.00  0.00     0.129 HD
BRANCH  23  25
HETATM   25  C   UNL     1      28.207  46.223  54.918  1.00  0.00     0.093 C 
BRANCH  25  26
HETATM   26  C   UNL     1      29.453  45.704  55.640  1.00  0.00     0.010 C 
HETATM   27  C   UNL     1      29.412  45.964  57.141  1.00  0.00     0.006 C 
ENDBRANCH  25  26
ENDBRANCH  23  25
ENDBRANCH   1  23
TORSDOF 7
ENDMDL
MODEL 8
REMARK VINA RESULT:      -7.4      3.299      7.751
REMARK  7 active torsions:
REMARK  status: ('A' for Active; 'I' for Inactive)
REMARK    1  A    between atoms: C_2  and  C_3 
REMARK    2  A    between atoms: C_3  and  N_4 
REMARK    3  A    between atoms: N_4  and  C_5 
REMARK    4  A    between atoms: C_7  and  N_8 
REMARK    5  A    between atoms: N_8  and  C_9 
REMARK    6  A    between atoms: C_9  and  C_10 
REMARK    7  A    between atoms: C_11  and  O_12 
ROOT
HETATM    1  C   UNL     1      24.016  47.356  49.728  1.00  0.00     0.134 A 
HETATM    2  N   UNL     1      24.249  46.219  50.414  1.00  0.00    -0.052 NA
HETATM    3  C   UNL     1      25.522  45.884  50.667  1.00  0.00     0.702 A 
HETATM    4  N   UNL     1      26.556  46.620  50.272  1.00  0.00    -0.189 N 
HETATM    5  H   UNL     1      27.482  46.324  50.546  1.00  0.00     0.184 HD
HETATM    6  C   UNL     1      26.378  47.773  49.613  1.00  0.00     0.062 A 
HETATM    7  C   UNL     1      25.069  48.199  49.318  1.00  0.00     0.032 A 
HETATM    8  C   UNL     1      27.484  48.561  49.261  1.00  0.00     0.031 A 
HETATM    9  C   UNL     1      27.299  49.786  48.620  1.00  0.00     0.002 A 
HETATM   10  C   UNL     1      26.012  50.230  48.330  1.00  0.00     0.001 A 
HETATM   11  C   UNL     1      24.907  49.448  48.672  1.00  0.00     0.017 A 
ENDROOT
BRANCH   3  12
HETATM   12  N   UNL     1      25.717  44.800  51.490  1.00  0.00    -0.220 N 
HETATM   13  H   UNL     1      26.638  44.411  51.301  1.00  0.00     0.178 HD
BRANCH  12  14
HETATM   14  C   UNL     1      25.355  44.793  52.899  1.00  0.00     0.179 C 
BRANCH  14  15
HETATM   15  C   UNL     1      26.323  45.517  53.811  1.00  0.00    -0.007 A 
HETATM   16  C   UNL     1      27.580  44.931  54.078  1.00  0.00     0.076 A 
HETATM   17  C   UNL     1      28.535  45.627  54.829  1.00  0.00     0.037 A 
HETATM   18  C   UNL     1      28.261  46.910  55.301  1.00  0.00     0.003 A 
HETATM   19  C   UNL     1      27.033  47.504  55.031  1.00  0.00     0.001 A 
HETATM   20  C   UNL     1      26.073  46.817  54.286  1.00  0.00     0.011 A 
BRANCH  16  21
HETATM   21  O   UNL     1      27.774  43.670  53.570  1.00  0.00    -0.355 OA
HETATM   22  C   UNL     1      28.878  43.499  52.682  1.00  0.00     0.210 C 
ENDBRANCH  16  21
ENDBRANCH  14  15
ENDBRANCH  12  14
ENDBRANCH   3  12
BRANCH   1  23
HETATM   23  N   UNL     1      22.692  47.750  49.498  1.00  0.00    -0.276 NA
HETATM   24  H   UNL     1      22.600  48.764  49.518  1.00  0.00     0.129 HD
BRANCH  23  25
HETATM   25  C   UNL     1      22.015  47.170  48.340  1.00  0.00     0.093 C 
BRANCH  25  26
HETATM   26  C   UNL     1      20.683  47.885  48.102  1.00  0.00     0.010 C 
HETATM   27  C   UNL     1      20.410  48.974  49.132  1.00  0.00     0.006 C 
ENDBRANCH  25  26
ENDBRANCH  23  25
ENDBRANCH   1  23
TORSDOF 7
ENDMDL
MODEL 9
REMARK VINA RESULT:      -7.4      3.004      5.564
REMARK  7 active torsions:
REMARK  status: ('A' for Active; 'I' for Inactive)
REMARK    1  A    between atoms: C_2  and  C_3 
REMARK    2  A    between atoms: C_3  and  N_4 
REMARK    3  A    between atoms: N_4  and  C_5 
REMARK    4  A    between atoms: C_7  and  N_8 
REMARK    5  A    between atoms: N_8  and  C_9 
REMARK    6  A    between atoms: C_9  and  C_10 
REMARK    7  A    between atoms: C_11  and  O_12 
ROOT
HETATM    1  C   UNL     1      27.295  44.335  54.116  1.00  0.00     0.134 A 
HETATM    2  N   UNL     1      26.967  43.278  53.347  1.00  0.00    -0.052 NA
HETATM    3  C   UNL     1      27.867  42.293  53.211  1.00  0.00     0.702 A 
HETATM    4  N   UNL     1      29.059  42.316  53.797  1.00  0.00    -0.189 N 
HETATM    5  H   UNL     1      29.659  41.512  53.685  1.00  0.00     0.184 HD
HETATM    6  C   UNL     1      29.422  43.329  54.596  1.00  0.00     0.062 A 
HETATM    7  C   UNL     1      28.529  44.398  54.797  1.00  0.00     0.032 A 
HETATM    8  C   UNL     1      30.663  43.300  55.251  1.00  0.00     0.031 A 
HETATM    9  C   UNL     1      31.022  44.328  56.122  1.00  0.00     0.002 A 
HETATM   10  C   UNL     1      30.148  45.388  56.343  1.00  0.00     0.001 A 
HETATM   11  C   UNL     1      28.914  45.427  55.690  1.00  0.00     0.017 A 
ENDROOT
BRANCH   3  12
HETATM   12  N   UNL     1      27.445  41.169  52.540  1.00  0.00    -0.220 N 
HETATM   13  H   UNL     1      26.584  40.838  52.972  1.00  0.00     0.178 HD
BRANCH  12  14
HETATM   14  C   UNL     1      27.456  41.055  51.090  1.00  0.00     0.179 C 
BRANCH  14  15
HETATM   15  C   UNL     1      28.292  39.916  50.545  1.00  0.00    -0.007 A 
HETATM   16  C   UNL     1      28.337  39.707  49.148  1.00  0.00     0.076 A 
HETATM   17  C   UNL     1      29.185  38.733  48.611  1.00  0.00     0.037 A 
HETATM   18  C   UNL     1      30.007  37.975  49.444  1.00  0.00     0.003 A 
HETATM   19  C   UNL     1      29.984  38.183  50.819  1.00  0.00     0.001 A 
HETATM   20  C   UNL     1      29.139  39.150  51.366  1.00  0.00     0.011 A 
BRANCH  16  21
HETATM   21  O   UNL     1      27.505  40.500  48.397  1.00  0.00    -0.355 OA
HETATM   22  C   UNL     1      27.948  40.828  47.080  1.00  0.00     0.210 C 
ENDBRANCH  16  21
ENDBRANCH  14  15
ENDBRANCH  12  14
ENDBRANCH   3  12
BRANCH   1  23
HETATM   23  N   UNL     1      26.351  45.350  54.313  1.00  0.00    -0.276 NA
HETATM   24  H   UNL     1      26.758  46.144  54.805  1.00  0.00     0.129 HD
BRANCH  23  25
HETATM   25  C   UNL     1      25.577  45.777  53.149  1.00  0.00     0.093 C 
BRANCH  25  26
HETATM   26  C   UNL     1      26.198  47.038  52.544  1.00  0.00     0.010 C 
HETATM   27  C   UNL     1      25.877  47.198  51.063  1.00  0.00     0.006 C 
ENDBRANCH  25  26
ENDBRANCH  23  25
ENDBRANCH   1  23
TORSDOF 7
ENDMDL
MODEL 10
REMARK VINA RESULT:      -7.3      3.010      4.729
REMARK  7 active torsions:
REMARK  status: ('A' for Active; 'I' for Inactive)
REMARK    1  A    between atoms: C_2  and  C_3 
REMARK    2  A    between atoms: C_3  and  N_4 
REMARK    3  A    between atoms: N_4  and  C_5 
REMARK    4  A    between atoms: C_7  and  N_8 
REMARK    5  A    between atoms: N_8  and  C_9 
REMARK    6  A    between atoms: C_9  and  C_10 
REMARK    7  A    between atoms: C_11  and  O_12 
ROOT
HETATM    1  C   UNL     1      26.086  44.523  52.731  1.00  0.00     0.134 A 
HETATM    2  N   UNL     1      25.266  45.166  51.876  1.00  0.00    -0.052 NA
HETATM    3  C   UNL     1      25.188  46.502  51.961  1.00  0.00     0.702 A 
HETATM    4  N   UNL     1      25.879  47.213  52.846  1.00  0.00    -0.189 N 
HETATM    5  H   UNL     1      25.802  48.219  52.811  1.00  0.00     0.184 HD
HETATM    6  C   UNL     1      26.730  46.625  53.697  1.00  0.00     0.062 A 
HETATM    7  C   UNL     1      26.876  45.225  53.664  1.00  0.00     0.032 A 
HETATM    8  C   UNL     1      27.493  47.404  54.580  1.00  0.00     0.031 A 
HETATM    9  C   UNL     1      28.417  46.799  55.433  1.00  0.00     0.002 A 
HETATM   10  C   UNL     1      28.584  45.418  55.407  1.00  0.00     0.001 A 
HETATM   11  C   UNL     1      27.824  44.636  54.535  1.00  0.00     0.017 A 
ENDROOT
BRANCH   3  12
HETATM   12  N   UNL     1      24.456  47.134  50.983  1.00  0.00    -0.220 N 
HETATM   13  H   UNL     1      23.788  47.759  51.432  1.00  0.00     0.178 HD
BRANCH  12  14
HETATM   14  C   UNL     1      25.046  47.679  49.771  1.00  0.00     0.179 C 
BRANCH  14  15
HETATM   15  C   UNL     1      24.133  48.576  48.962  1.00  0.00    -0.007 A 
HETATM   16  C   UNL     1      22.877  48.080  48.548  1.00  0.00     0.076 A 
HETATM   17  C   UNL     1      21.970  48.921  47.893  1.00  0.00     0.037 A 
HETATM   18  C   UNL     1      22.289  50.259  47.664  1.00  0.00     0.003 A 
HETATM   19  C   UNL     1      23.516  50.763  48.081  1.00  0.00     0.001 A 
HETATM   20  C   UNL     1      24.429  49.932  48.732  1.00  0.00     0.011 A 
BRANCH  16  21
HETATM   21  O   UNL     1      22.637  46.755  48.820  1.00  0.00    -0.355 OA
HETATM   22  C   UNL     1      21.385  46.227  48.382  1.00  0.00     0.210 C 
ENDBRANCH  16  21
ENDBRANCH  14  15
ENDBRANCH  12  14
ENDBRANCH   3  12
BRANCH   1  23
HETATM   23  N   UNL     1      26.222  43.134  52.625  1.00  0.00    -0.276 NA
HETATM   24  H   UNL     1      25.314  42.672  52.636  1.00  0.00     0.129 HD
BRANCH  23  25
HETATM   25  C   UNL     1      27.073  42.625  51.551  1.00  0.00     0.093 C 
BRANCH  25  26
HETATM   26  C   UNL     1      27.622  41.247  51.928  1.00  0.00     0.010 C 
HETATM   27  C   UNL     1      28.135  41.193  53.361  1.00  0.00     0.006 C 
ENDBRANCH  25  26
ENDBRANCH  23  25
ENDBRANCH   1  23
TORSDOF 7
ENDMDL
