MODEL 1
REMARK VINA RESULT:     -10.4      0.000      0.000
REMARK  6 active torsions:
REMARK  status: ('A' for Active; 'I' for Inactive)
REMARK    1  A    between atoms: C_2  and  C_3 
REMARK    2  A    between atoms: C_3  and  C_4 
REMARK    3  A    between atoms: C_4  and  C_5 
REMARK    4  A    between atoms: C_8  and  N_9 
REMARK       I    between atoms: N_9  and  C_10 
REMARK    5  A    between atoms: C_10  and  C_11 
REMARK    6  A    between atoms: N_16  and  C_17 
ROOT
HETATM    1  C   UNL     1      25.014  46.939  50.350  1.00  0.00     0.098 A 
HETATM    2  C   UNL     1      24.978  45.504  49.898  1.00  0.00     0.205 A 
HETATM    3  O   UNL     1      24.366  45.149  48.895  1.00  0.00    -0.286 OA
HETATM    4  C   UNL     1      25.729  44.595  50.741  1.00  0.00     0.087 A 
HETATM    5  C   UNL     1      26.474  45.047  51.803  1.00  0.00     0.145 A 
HETATM    6  N   UNL     1      27.117  43.953  52.356  1.00  0.00    -0.216 N 
HETATM    7  N   UNL     1      26.648  42.799  51.789  1.00  0.00    -0.170 NA
HETATM    8  C   UNL     1      25.864  43.196  50.775  1.00  0.00     0.069 C 
HETATM    9  C   UNL     1      25.224  42.197  49.884  1.00  0.00     0.073 C 
HETATM   10  N   UNL     1      26.487  46.347  52.184  1.00  0.00    -0.349 N 
HETATM   11  C   UNL     1      25.737  47.249  51.450  1.00  0.00     0.111 A 
HETATM   12  H   UNL     1      26.835  46.670  53.086  1.00  0.00     0.167 HD
ENDROOT
BRANCH   1  13
HETATM   13  C   UNL     1      24.314  48.054  49.641  1.00  0.00     0.261 C 
HETATM   14  N   UNL     1      22.949  48.088  49.831  1.00  0.00    -0.323 N 
HETATM   15  H   UNL     1      22.553  47.398  50.470  1.00  0.00     0.169 HD
HETATM   16  O   UNL     1      24.961  48.821  48.931  1.00  0.00    -0.267 OA
BRANCH  14  17
HETATM   17  C   UNL     1      22.010  48.917  49.180  1.00  0.00     0.035 A 
HETATM   18  C   UNL     1      21.022  48.450  48.313  1.00  0.00     0.030 A 
HETATM   19  C   UNL     1      20.090  49.332  47.757  1.00  0.00     0.009 A 
HETATM   20  C   UNL     1      20.123  50.697  48.063  1.00  0.00    -0.058 A 
HETATM   21  C   UNL     1      21.129  51.170  48.911  1.00  0.00     0.009 A 
HETATM   22  C   UNL     1      22.068  50.288  49.458  1.00  0.00     0.030 A 
BRANCH  20  23
HETATM   23  C   UNL     1      19.069  51.627  47.514  1.00  0.00     0.038 C 
BRANCH  23  24
HETATM   24  C   UNL     1      18.592  52.622  48.576  1.00  0.00     0.004 C 
BRANCH  24  25
HETATM   25  C   UNL     1      17.773  51.933  49.667  1.00  0.00    -0.004 C 
HETATM   26  C   UNL     1      16.475  52.678  49.938  1.00  0.00     0.005 C 
ENDBRANCH  24  25
ENDBRANCH  23  24
ENDBRANCH  20  23
ENDBRANCH  14  17
ENDBRANCH   1  13
BRANCH   6  27
HETATM   27  C   UNL     1      28.151  43.899  53.334  1.00  0.00     0.060 A 
HETATM   28  C   UNL     1      28.131  44.719  54.470  1.00  0.00     0.032 A 
HETATM   29  C   UNL     1      29.171  44.656  55.403  1.00  0.00     0.009 A 
HETATM   30  C   UNL     1      30.244  43.779  55.218  1.00  0.00    -0.062 A 
HETATM   31  C   UNL     1      31.376  43.727  56.201  1.00  0.00     0.048 C 
HETATM   32  C   UNL     1      30.278  42.982  54.068  1.00  0.00     0.009 A 
HETATM   33  C   UNL     1      29.244  43.046  53.128  1.00  0.00     0.032 A 
ENDBRANCH   6  27
TORSDOF 6
ENDMDL
MODEL 2
REMARK VINA RESULT:     -10.2      1.704     10.515
REMARK  6 active torsions:
REMARK  status: ('A' for Active; 'I' for Inactive)
REMARK    1  A    between atoms: C_2  and  C_3 
REMARK    2  A    between atoms: C_3  and  C_4 
REMARK    3  A    between atoms: C_4  and  C_5 
REMARK    4  A    between atoms: C_8  and  N_9 
REMARK       I    between atoms: N_9  and  C_10 
REMARK    5  A    between atoms: C_10  and  C_11 
REMARK    6  A    between atoms: N_16  and  C_17 
ROOT
HETATM    1  C   UNL     1      24.941  46.134  49.815  1.00  0.00     0.098 A 
HETATM    2  C   UNL     1      24.035  45.437  48.836  1.00  0.00     0.205 A 
HETATM    3  O   UNL     1      24.259  44.300  48.432  1.00  0.00    -0.286 OA
HETATM    4  C   UNL     1      22.886  46.220  48.426  1.00  0.00     0.087 A 
HETATM    5  C   UNL     1      22.624  47.454  48.972  1.00  0.00     0.145 A 
HETATM    6  N   UNL     1      21.433  47.905  48.427  1.00  0.00    -0.216 N 
HETATM    7  N   UNL     1      21.038  47.073  47.414  1.00  0.00    -0.170 NA
HETATM    8  C   UNL     1      21.879  46.029  47.463  1.00  0.00     0.069 C 
HETATM    9  C   UNL     1      21.709  44.883  46.537  1.00  0.00     0.073 C 
HETATM   10  N   UNL     1      23.459  48.054  49.853  1.00  0.00    -0.349 N 
HETATM   11  C   UNL     1      24.604  47.375  50.231  1.00  0.00     0.111 A 
HETATM   12  H   UNL     1      23.414  49.043  50.092  1.00  0.00     0.167 HD
ENDROOT
BRANCH   1  13
HETATM   13  C   UNL     1      26.186  45.526  50.376  1.00  0.00     0.261 C 
HETATM   14  N   UNL     1      26.109  45.187  51.711  1.00  0.00    -0.323 N 
HETATM   15  H   UNL     1      25.209  45.324  52.172  1.00  0.00     0.169 HD
HETATM   16  O   UNL     1      27.176  45.403  49.659  1.00  0.00    -0.267 OA
BRANCH  14  17
HETATM   17  C   UNL     1      27.155  44.741  52.547  1.00  0.00     0.035 A 
HETATM   18  C   UNL     1      27.380  45.217  53.839  1.00  0.00     0.030 A 
HETATM   19  C   UNL     1      28.402  44.679  54.627  1.00  0.00     0.009 A 
HETATM   20  C   UNL     1      29.214  43.647  54.141  1.00  0.00    -0.058 A 
HETATM   21  C   UNL     1      29.006  43.188  52.836  1.00  0.00     0.009 A 
HETATM   22  C   UNL     1      27.990  43.736  52.046  1.00  0.00     0.030 A 
BRANCH  20  23
HETATM   23  C   UNL     1      30.266  43.025  55.024  1.00  0.00     0.038 C 
BRANCH  23  24
HETATM   24  C   UNL     1      31.041  44.090  55.807  1.00  0.00     0.004 C 
BRANCH  24  25
HETATM   25  C   UNL     1      31.452  43.585  57.190  1.00  0.00    -0.004 C 
HETATM   26  C   UNL     1      31.283  44.667  58.246  1.00  0.00     0.005 C 
ENDBRANCH  24  25
ENDBRANCH  23  24
ENDBRANCH  20  23
ENDBRANCH  14  17
ENDBRANCH   1  13
BRANCH   6  27
HETATM   27  C   UNL     1      20.622  49.016  48.797  1.00  0.00     0.060 A 
HETATM   28  C   UNL     1      19.582  48.888  49.727  1.00  0.00     0.032 A 
HETATM   29  C   UNL     1      18.792  49.994  50.057  1.00  0.00     0.009 A 
HETATM   30  C   UNL     1      19.026  51.239  49.465  1.00  0.00    -0.062 A 
HETATM   31  C   UNL     1      18.164  52.422  49.794  1.00  0.00     0.048 C 
HETATM   32  C   UNL     1      20.045  51.358  48.515  1.00  0.00     0.009 A 
HETATM   33  C   UNL     1      20.834  50.254  48.177  1.00  0.00     0.032 A 
ENDBRANCH   6  27
TORSDOF 6
ENDMDL
MODEL 3
REMARK VINA RESULT:      -9.9      1.153      1.646
REMARK  6 active torsions:
REMARK  status: ('A' for Active; 'I' for Inactive)
REMARK    1  A    between atoms: C_2  and  C_3 
REMARK    2  A    between atoms: C_3  and  C_4 
REMARK    3  A    between atoms: C_4  and  C_5 
REMARK    4  A    between atoms: C_8  and  N_9 
REMARK       I    between atoms: N_9  and  C_10 
REMARK    5  A    between atoms: C_10  and  C_11 
REMARK    6  A    between atoms: N_16  and  C_17 
ROOT
HETATM    1  C   UNL     1      24.395  47.129  50.040  1.00  0.00     0.098 A 
HETATM    2  C   UNL     1      24.216  45.709  49.574  1.00  0.00     0.205 A 
HETATM    3  O   UNL     1      23.507  45.418  48.616  1.00  0.00    -0.286 OA
HETATM    4  C   UNL     1      24.957  44.732  50.348  1.00  0.00     0.087 A 
HETATM    5  C   UNL     1      25.811  45.108  51.357  1.00  0.00     0.145 A 
HETATM    6  N   UNL     1      26.408  43.959  51.847  1.00  0.00    -0.216 N 
HETATM    7  N   UNL     1      25.812  42.854  51.303  1.00  0.00    -0.170 NA
HETATM    8  C   UNL     1      24.988  43.326  50.355  1.00  0.00     0.069 C 
HETATM    9  C   UNL     1      24.211  42.393  49.503  1.00  0.00     0.073 C 
HETATM   10  N   UNL     1      25.950  46.396  51.751  1.00  0.00    -0.349 N 
HETATM   11  C   UNL     1      25.218  47.364  51.086  1.00  0.00     0.111 A 
HETATM   12  H   UNL     1      26.387  46.677  52.628  1.00  0.00     0.167 HD
ENDROOT
BRANCH   1  13
HETATM   13  C   UNL     1      23.731  48.305  49.399  1.00  0.00     0.261 C 
HETATM   14  N   UNL     1      22.370  48.383  49.611  1.00  0.00    -0.323 N 
HETATM   15  H   UNL     1      21.955  47.678  50.221  1.00  0.00     0.169 HD
HETATM   16  O   UNL     1      24.398  49.081  48.719  1.00  0.00    -0.267 OA
BRANCH  14  17
HETATM   17  C   UNL     1      21.457  49.281  49.018  1.00  0.00     0.035 A 
HETATM   18  C   UNL     1      20.661  48.972  47.915  1.00  0.00     0.030 A 
HETATM   19  C   UNL     1      19.735  49.898  47.424  1.00  0.00     0.009 A 
HETATM   20  C   UNL     1      19.581  51.149  48.033  1.00  0.00    -0.058 A 
HETATM   21  C   UNL     1      20.397  51.469  49.123  1.00  0.00     0.009 A 
HETATM   22  C   UNL     1      21.331  50.545  49.604  1.00  0.00     0.030 A 
BRANCH  20  23
HETATM   23  C   UNL     1      18.530  52.112  47.541  1.00  0.00     0.038 C 
BRANCH  23  24
HETATM   24  C   UNL     1      17.496  51.408  46.656  1.00  0.00     0.004 C 
BRANCH  24  25
HETATM   25  C   UNL     1      17.489  51.976  45.237  1.00  0.00    -0.004 C 
HETATM   26  C   UNL     1      18.178  51.035  44.261  1.00  0.00     0.005 C 
ENDBRANCH  24  25
ENDBRANCH  23  24
ENDBRANCH  20  23
ENDBRANCH  14  17
ENDBRANCH   1  13
BRANCH   6  27
HETATM   27  C   UNL     1      27.505  43.812  52.744  1.00  0.00     0.060 A 
HETATM   28  C   UNL     1      27.465  44.330  54.044  1.00  0.00     0.032 A 
HETATM   29  C   UNL     1      28.565  44.184  54.896  1.00  0.00     0.009 A 
HETATM   30  C   UNL     1      29.719  43.523  54.463  1.00  0.00    -0.062 A 
HETATM   31  C   UNL     1      30.912  43.389  55.362  1.00  0.00     0.048 C 
HETATM   32  C   UNL     1      29.769  43.032  53.154  1.00  0.00     0.009 A 
HETATM   33  C   UNL     1      28.674  43.181  52.297  1.00  0.00     0.032 A 
ENDBRANCH   6  27
TORSDOF 6
ENDMDL
MODEL 4
REMARK VINA RESULT:      -9.5      3.029     10.677
REMARK  6 active torsions:
REMARK  status: ('A' for Active; 'I' for Inactive)
REMARK    1  A    between atoms: C_2  and  C_3 
REMARK    2  A    between atoms: C_3  and  C_4 
REMARK    3  A    between atoms: C_4  and  C_5 
REMARK    4  A    between atoms: C_8  and  N_9 
REMARK       I    between atoms: N_9  and  C_10 
REMARK    5  A    between atoms: C_10  and  C_11 
REMARK    6  A    between atoms: N_16  and  C_17 
ROOT
HETATM    1  C   UNL     1      24.488  45.272  51.157  1.00  0.00     0.098 A 
HETATM    2  C   UNL     1      24.551  46.653  50.560  1.00  0.00     0.205 A 
HETATM    3  O   UNL     1      25.297  47.523  51.000  1.00  0.00    -0.286 OA
HETATM    4  C   UNL     1      23.666  46.853  49.430  1.00  0.00     0.087 A 
HETATM    5  C   UNL     1      22.913  45.826  48.913  1.00  0.00     0.145 A 
HETATM    6  N   UNL     1      22.236  46.320  47.810  1.00  0.00    -0.216 N 
HETATM    7  N   UNL     1      22.396  47.677  47.733  1.00  0.00    -0.170 NA
HETATM    8  C   UNL     1      23.309  47.981  48.669  1.00  0.00     0.069 C 
HETATM    9  C   UNL     1      23.782  49.378  48.832  1.00  0.00     0.073 C 
HETATM   10  N   UNL     1      22.880  44.594  49.473  1.00  0.00    -0.349 N 
HETATM   11  C   UNL     1      23.660  44.365  50.593  1.00  0.00     0.111 A 
HETATM   12  H   UNL     1      22.171  43.893  49.259  1.00  0.00     0.167 HD
ENDROOT
BRANCH   1  13
HETATM   13  C   UNL     1      25.307  44.833  52.328  1.00  0.00     0.261 C 
HETATM   14  N   UNL     1      26.648  45.141  52.240  1.00  0.00    -0.323 N 
HETATM   15  H   UNL     1      26.947  45.680  51.427  1.00  0.00     0.169 HD
HETATM   16  O   UNL     1      24.769  44.218  53.246  1.00  0.00    -0.267 OA
BRANCH  14  17
HETATM   17  C   UNL     1      27.684  44.729  53.105  1.00  0.00     0.035 A 
HETATM   18  C   UNL     1      28.008  45.374  54.299  1.00  0.00     0.030 A 
HETATM   19  C   UNL     1      29.009  44.865  55.132  1.00  0.00     0.009 A 
HETATM   20  C   UNL     1      29.700  43.696  54.793  1.00  0.00    -0.058 A 
HETATM   21  C   UNL     1      29.393  43.064  53.584  1.00  0.00     0.009 A 
HETATM   22  C   UNL     1      28.399  43.581  52.745  1.00  0.00     0.030 A 
BRANCH  20  23
HETATM   23  C   UNL     1      30.727  43.117  55.733  1.00  0.00     0.038 C 
BRANCH  23  24
HETATM   24  C   UNL     1      31.528  44.219  56.434  1.00  0.00     0.004 C 
BRANCH  24  25
HETATM   25  C   UNL     1      31.234  44.262  57.933  1.00  0.00    -0.004 C 
HETATM   26  C   UNL     1      30.521  45.549  58.319  1.00  0.00     0.005 C 
ENDBRANCH  24  25
ENDBRANCH  23  24
ENDBRANCH  20  23
ENDBRANCH  14  17
ENDBRANCH   1  13
BRANCH   6  27
HETATM   27  C   UNL     1      21.492  45.630  46.811  1.00  0.00     0.060 A 
HETATM   28  C   UNL     1      22.034  45.358  45.549  1.00  0.00     0.032 A 
HETATM   29  C   UNL     1      21.272  44.694  44.582  1.00  0.00     0.009 A 
HETATM   30  C   UNL     1      19.961  44.295  44.859  1.00  0.00    -0.062 A 
HETATM   31  C   UNL     1      19.129  43.607  43.817  1.00  0.00     0.048 C 
HETATM   32  C   UNL     1      19.410  44.594  46.110  1.00  0.00     0.009 A 
HETATM   33  C   UNL     1      20.166  45.263  47.077  1.00  0.00     0.032 A 
ENDBRANCH   6  27
TORSDOF 6
ENDMDL
MODEL 5
REMARK VINA RESULT:      -9.5      2.379      4.126
REMARK  6 active torsions:
REMARK  status: ('A' for Active; 'I' for Inactive)
REMARK    1  A    between atoms: C_2  and  C_3 
REMARK    2  A    between atoms: C_3  and  C_4 
REMARK    3  A    between atoms: C_4  and  C_5 
REMARK    4  A    between atoms: C_8  and  N_9 
REMARK       I    between atoms: N_9  and  C_10 
REMARK    5  A    between atoms: C_10  and  C_11 
REMARK    6  A    between atoms: N_16  and  C_17 
ROOT
HETATM    1  C   UNL     1      22.743  48.356  48.855  1.00  0.00     0.098 A 
HETATM    2  C   UNL     1      24.053  49.098  48.853  1.00  0.00     0.205 A 
HETATM    3  O   UNL     1      24.132  50.287  48.558  1.00  0.00    -0.286 OA
HETATM    4  C   UNL     1      25.195  48.290  49.234  1.00  0.00     0.087 A 
HETATM    5  C   UNL     1      25.050  46.987  49.645  1.00  0.00     0.145 A 
HETATM    6  N   UNL     1      26.305  46.521  50.000  1.00  0.00    -0.216 N 
HETATM    7  N   UNL     1      27.261  47.434  49.645  1.00  0.00    -0.170 NA
HETATM    8  C   UNL     1      26.582  48.521  49.247  1.00  0.00     0.069 C 
HETATM    9  C   UNL     1      27.305  49.752  48.843  1.00  0.00     0.073 C 
HETATM   10  N   UNL     1      23.856  46.348  49.636  1.00  0.00    -0.349 N 
HETATM   11  C   UNL     1      22.741  47.055  49.221  1.00  0.00     0.111 A 
HETATM   12  H   UNL     1      23.754  45.337  49.710  1.00  0.00     0.167 HD
ENDROOT
BRANCH   1  13
HETATM   13  C   UNL     1      21.433  48.980  48.495  1.00  0.00     0.261 C 
HETATM   14  N   UNL     1      21.071  50.052  49.283  1.00  0.00    -0.323 N 
HETATM   15  H   UNL     1      21.742  50.355  49.989  1.00  0.00     0.169 HD
HETATM   16  O   UNL     1      20.764  48.499  47.583  1.00  0.00    -0.267 OA
BRANCH  14  17
HETATM   17  C   UNL     1      19.839  50.741  49.285  1.00  0.00     0.035 A 
HETATM   18  C   UNL     1      18.701  50.305  49.965  1.00  0.00     0.030 A 
HETATM   19  C   UNL     1      17.535  51.078  49.969  1.00  0.00     0.009 A 
HETATM   20  C   UNL     1      17.488  52.306  49.299  1.00  0.00    -0.058 A 
HETATM   21  C   UNL     1      18.619  52.731  48.596  1.00  0.00     0.009 A 
HETATM   22  C   UNL     1      19.781  51.950  48.584  1.00  0.00     0.030 A 
BRANCH  20  23
HETATM   23  C   UNL     1      16.250  53.165  49.369  1.00  0.00     0.038 C 
BRANCH  23  24
HETATM   24  C   UNL     1      15.051  52.376  49.905  1.00  0.00     0.004 C 
BRANCH  24  25
HETATM   25  C   UNL     1      14.003  53.297  50.528  1.00  0.00    -0.004 C 
HETATM   26  C   UNL     1      14.646  54.322  51.449  1.00  0.00     0.005 C 
ENDBRANCH  24  25
ENDBRANCH  23  24
ENDBRANCH  20  23
ENDBRANCH  14  17
ENDBRANCH   1  13
BRANCH   6  27
HETATM   27  C   UNL     1      26.677  45.322  50.672  1.00  0.00     0.060 A 
HETATM   28  C   UNL     1      26.993  44.153  49.968  1.00  0.00     0.032 A 
HETATM   29  C   UNL     1      27.337  42.986  50.657  1.00  0.00     0.009 A 
HETATM   30  C   UNL     1      27.370  42.967  52.055  1.00  0.00    -0.062 A 
HETATM   31  C   UNL     1      27.711  41.710  52.801  1.00  0.00     0.048 C 
HETATM   32  C   UNL     1      27.025  44.126  52.758  1.00  0.00     0.009 A 
HETATM   33  C   UNL     1      26.674  45.294  52.073  1.00  0.00     0.032 A 
ENDBRANCH   6  27
TORSDOF 6
ENDMDL
MODEL 6
REMARK VINA RESULT:      -9.4      2.317     10.721
REMARK  6 active torsions:
REMARK  status: ('A' for Active; 'I' for Inactive)
REMARK    1  A    between atoms: C_2  and  C_3 
REMARK    2  A    between atoms: C_3  and  C_4 
REMARK    3  A    between atoms: C_4  and  C_5 
REMARK    4  A    between atoms: C_8  and  N_9 
REMARK       I    between atoms: N_9  and  C_10 
REMARK    5  A    between atoms: C_10  and  C_11 
REMARK    6  A    between atoms: N_16  and  C_17 
ROOT
HETATM    1  C   UNL     1      25.461  45.940  50.101  1.00  0.00     0.098 A 
HETATM    2  C   UNL     1      25.628  47.334  49.558  1.00  0.00     0.205 A 
HETATM    3  O   UNL     1      26.716  47.902  49.538  1.00  0.00    -0.286 OA
HETATM    4  C   UNL     1      24.404  47.930  49.061  1.00  0.00     0.087 A 
HETATM    5  C   UNL     1      23.225  47.226  49.019  1.00  0.00     0.145 A 
HETATM    6  N   UNL     1      22.272  48.044  48.437  1.00  0.00    -0.216 N 
HETATM    7  N   UNL     1      22.772  49.309  48.284  1.00  0.00    -0.170 NA
HETATM    8  C   UNL     1      24.073  49.217  48.600  1.00  0.00     0.069 C 
HETATM    9  C   UNL     1      24.959  50.401  48.487  1.00  0.00     0.073 C 
HETATM   10  N   UNL     1      23.107  45.971  49.516  1.00  0.00    -0.349 N 
HETATM   11  C   UNL     1      24.232  45.377  50.059  1.00  0.00     0.111 A 
HETATM   12  H   UNL     1      22.214  45.519  49.709  1.00  0.00     0.167 HD
ENDROOT
BRANCH   1  13
HETATM   13  C   UNL     1      26.580  45.127  50.668  1.00  0.00     0.261 C 
HETATM   14  N   UNL     1      26.588  45.041  52.045  1.00  0.00    -0.323 N 
HETATM   15  H   UNL     1      25.814  45.483  52.541  1.00  0.00     0.169 HD
HETATM   16  O   UNL     1      27.413  44.633  49.912  1.00  0.00    -0.267 OA
BRANCH  14  17
HETATM   17  C   UNL     1      27.590  44.479  52.865  1.00  0.00     0.035 A 
HETATM   18  C   UNL     1      28.465  43.475  52.454  1.00  0.00     0.030 A 
HETATM   19  C   UNL     1      29.472  43.014  53.309  1.00  0.00     0.009 A 
HETATM   20  C   UNL     1      29.628  43.557  54.589  1.00  0.00    -0.058 A 
HETATM   21  C   UNL     1      28.734  44.546  55.012  1.00  0.00     0.009 A 
HETATM   22  C   UNL     1      27.720  44.997  54.159  1.00  0.00     0.030 A 
BRANCH  20  23
HETATM   23  C   UNL     1      30.761  43.104  55.476  1.00  0.00     0.038 C 
BRANCH  23  24
HETATM   24  C   UNL     1      31.395  44.283  56.222  1.00  0.00     0.004 C 
BRANCH  24  25
HETATM   25  C   UNL     1      31.268  44.126  57.736  1.00  0.00    -0.004 C 
HETATM   26  C   UNL     1      30.508  45.290  58.352  1.00  0.00     0.005 C 
ENDBRANCH  24  25
ENDBRANCH  23  24
ENDBRANCH  20  23
ENDBRANCH  14  17
ENDBRANCH   1  13
BRANCH   6  27
HETATM   27  C   UNL     1      20.959  47.735  47.979  1.00  0.00     0.060 A 
HETATM   28  C   UNL     1      20.743  47.035  46.786  1.00  0.00     0.032 A 
HETATM   29  C   UNL     1      19.441  46.761  46.354  1.00  0.00     0.009 A 
HETATM   30  C   UNL     1      18.338  47.182  47.104  1.00  0.00    -0.062 A 
HETATM   31  C   UNL     1      16.939  46.917  46.632  1.00  0.00     0.048 C 
HETATM   32  C   UNL     1      18.554  47.908  48.280  1.00  0.00     0.009 A 
HETATM   33  C   UNL     1      19.854  48.189  48.713  1.00  0.00     0.032 A 
ENDBRANCH   6  27
TORSDOF 6
ENDMDL
MODEL 7
REMARK VINA RESULT:      -9.3      2.626     10.705
REMARK  6 active torsions:
REMARK  status: ('A' for Active; 'I' for Inactive)
REMARK    1  A    between atoms: C_2  and  C_3 
REMARK    2  A    between atoms: C_3  and  C_4 
REMARK    3  A    between atoms: C_4  and  C_5 
REMARK    4  A    between atoms: C_8  and  N_9 
REMARK       I    between atoms: N_9  and  C_10 
REMARK    5  A    between atoms: C_10  and  C_11 
REMARK    6  A    between atoms: N_16  and  C_17 
ROOT
HETATM    1  C   UNL     1      24.327  46.691  49.850  1.00  0.00     0.098 A 
HETATM    2  C   UNL     1      23.935  48.068  49.386  1.00  0.00     0.205 A 
HETATM    3  O   UNL     1      24.652  49.048  49.565  1.00  0.00    -0.286 OA
HETATM    4  C   UNL     1      22.654  48.126  48.711  1.00  0.00     0.087 A 
HETATM    5  C   UNL     1      21.924  46.991  48.451  1.00  0.00     0.145 A 
HETATM    6  N   UNL     1      20.797  47.374  47.743  1.00  0.00    -0.216 N 
HETATM    7  N   UNL     1      20.703  48.739  47.715  1.00  0.00    -0.170 NA
HETATM    8  C   UNL     1      21.855  49.184  48.241  1.00  0.00     0.069 C 
HETATM    9  C   UNL     1      22.134  50.639  48.314  1.00  0.00     0.073 C 
HETATM   10  N   UNL     1      22.305  45.765  48.882  1.00  0.00    -0.349 N 
HETATM   11  C   UNL     1      23.492  45.661  49.586  1.00  0.00     0.111 A 
HETATM   12  H   UNL     1      21.686  44.956  48.908  1.00  0.00     0.167 HD
ENDROOT
BRANCH   1  13
HETATM   13  C   UNL     1      25.601  46.386  50.570  1.00  0.00     0.261 C 
HETATM   14  N   UNL     1      25.458  46.164  51.923  1.00  0.00    -0.323 N 
HETATM   15  H   UNL     1      24.508  46.170  52.296  1.00  0.00     0.169 HD
HETATM   16  O   UNL     1      26.663  46.387  49.950  1.00  0.00    -0.267 OA
BRANCH  14  17
HETATM   17  C   UNL     1      26.481  46.005  52.882  1.00  0.00     0.035 A 
HETATM   18  C   UNL     1      26.834  46.978  53.817  1.00  0.00     0.030 A 
HETATM   19  C   UNL     1      27.819  46.720  54.776  1.00  0.00     0.009 A 
HETATM   20  C   UNL     1      28.464  45.478  54.823  1.00  0.00    -0.058 A 
HETATM   21  C   UNL     1      28.130  44.512  53.870  1.00  0.00     0.009 A 
HETATM   22  C   UNL     1      27.152  44.777  52.904  1.00  0.00     0.030 A 
BRANCH  20  23
HETATM   23  C   UNL     1      29.473  45.185  55.905  1.00  0.00     0.038 C 
BRANCH  23  24
HETATM   24  C   UNL     1      30.327  43.961  55.558  1.00  0.00     0.004 C 
BRANCH  24  25
HETATM   25  C   UNL     1      31.399  43.704  56.616  1.00  0.00    -0.004 C 
HETATM   26  C   UNL     1      31.112  44.477  57.894  1.00  0.00     0.005 C 
ENDBRANCH  24  25
ENDBRANCH  23  24
ENDBRANCH  20  23
ENDBRANCH  14  17
ENDBRANCH   1  13
BRANCH   6  27
HETATM   27  C   UNL     1      19.831  46.577  47.064  1.00  0.00     0.060 A 
HETATM   28  C   UNL     1      19.942  46.296  45.696  1.00  0.00     0.032 A 
HETATM   29  C   UNL     1      18.968  45.525  45.053  1.00  0.00     0.009 A 
HETATM   30  C   UNL     1      17.871  45.027  45.763  1.00  0.00    -0.062 A 
HETATM   31  C   UNL     1      16.808  44.223  45.073  1.00  0.00     0.048 C 
HETATM   32  C   UNL     1      17.745  45.333  47.122  1.00  0.00     0.009 A 
HETATM   33  C   UNL     1      18.713  46.109  47.768  1.00  0.00     0.032 A 
ENDBRANCH   6  27
TORSDOF 6
ENDMDL
MODEL 8
REMARK VINA RESULT:      -9.2      1.933      3.179
REMARK  6 active torsions:
REMARK  status: ('A' for Active; 'I' for Inactive)
REMARK    1  A    between atoms: C_2  and  C_3 
REMARK    2  A    between atoms: C_3  and  C_4 
REMARK    3  A    between atoms: C_4  and  C_5 
REMARK    4  A    between atoms: C_8  and  N_9 
REMARK       I    between atoms: N_9  and  C_10 
REMARK    5  A    between atoms: C_10  and  C_11 
REMARK    6  A    between atoms: N_16  and  C_17 
ROOT
HETATM    1  C   UNL     1      25.463  46.842  50.253  1.00  0.00     0.098 A 
HETATM    2  C   UNL     1      25.693  46.725  51.736  1.00  0.00     0.205 A 
HETATM    3  O   UNL     1      25.262  47.553  52.533  1.00  0.00    -0.286 OA
HETATM    4  C   UNL     1      26.454  45.556  52.130  1.00  0.00     0.087 A 
HETATM    5  C   UNL     1      26.841  44.606  51.215  1.00  0.00     0.145 A 
HETATM    6  N   UNL     1      27.483  43.596  51.910  1.00  0.00    -0.216 N 
HETATM    7  N   UNL     1      27.678  43.974  53.211  1.00  0.00    -0.170 NA
HETATM    8  C   UNL     1      27.000  45.123  53.352  1.00  0.00     0.069 C 
HETATM    9  C   UNL     1      26.934  45.800  54.670  1.00  0.00     0.073 C 
HETATM   10  N   UNL     1      26.617  44.741  49.886  1.00  0.00    -0.349 N 
HETATM   11  C   UNL     1      25.948  45.870  49.449  1.00  0.00     0.111 A 
HETATM   12  H   UNL     1      27.085  44.182  49.173  1.00  0.00     0.167 HD
ENDROOT
BRANCH   1  13
HETATM   13  C   UNL     1      24.708  47.962  49.613  1.00  0.00     0.261 C 
HETATM   14  N   UNL     1      23.344  47.927  49.818  1.00  0.00    -0.323 N 
HETATM   15  H   UNL     1      22.986  47.187  50.423  1.00  0.00     0.169 HD
HETATM   16  O   UNL     1      25.313  48.794  48.940  1.00  0.00    -0.267 OA
BRANCH  14  17
HETATM   17  C   UNL     1      22.364  48.749  49.223  1.00  0.00     0.035 A 
HETATM   18  C   UNL     1      21.264  48.267  48.513  1.00  0.00     0.030 A 
HETATM   19  C   UNL     1      20.303  49.147  48.006  1.00  0.00     0.009 A 
HETATM   20  C   UNL     1      20.418  50.527  48.208  1.00  0.00    -0.058 A 
HETATM   21  C   UNL     1      21.533  51.014  48.897  1.00  0.00     0.009 A 
HETATM   22  C   UNL     1      22.500  50.132  49.393  1.00  0.00     0.030 A 
BRANCH  20  23
HETATM   23  C   UNL     1      19.339  51.461  47.720  1.00  0.00     0.038 C 
BRANCH  23  24
HETATM   24  C   UNL     1      18.945  52.475  48.799  1.00  0.00     0.004 C 
BRANCH  24  25
HETATM   25  C   UNL     1      17.779  51.971  49.648  1.00  0.00    -0.004 C 
HETATM   26  C   UNL     1      16.896  51.013  48.863  1.00  0.00     0.005 C 
ENDBRANCH  24  25
ENDBRANCH  23  24
ENDBRANCH  20  23
ENDBRANCH  14  17
ENDBRANCH   1  13
BRANCH   6  27
HETATM   27  C   UNL     1      27.892  42.303  51.473  1.00  0.00     0.060 A 
HETATM   28  C   UNL     1      27.503  41.792  50.229  1.00  0.00     0.032 A 
HETATM   29  C   UNL     1      27.905  40.511  49.834  1.00  0.00     0.009 A 
HETATM   30  C   UNL     1      28.697  39.723  50.675  1.00  0.00    -0.062 A 
HETATM   31  C   UNL     1      29.108  38.338  50.270  1.00  0.00     0.048 C 
HETATM   32  C   UNL     1      29.060  40.223  51.930  1.00  0.00     0.009 A 
HETATM   33  C   UNL     1      28.655  41.500  52.331  1.00  0.00     0.032 A 
ENDBRANCH   6  27
TORSDOF 6
ENDMDL
MODEL 9
REMARK VINA RESULT:      -9.2      1.254      1.546
REMARK  6 active torsions:
REMARK  status: ('A' for Active; 'I' for Inactive)
REMARK    1  A    between atoms: C_2  and  C_3 
REMARK    2  A    between atoms: C_3  and  C_4 
REMARK    3  A    between atoms: C_4  and  C_5 
REMARK    4  A    between atoms: C_8  and  N_9 
REMARK       I    between atoms: N_9  and  C_10 
REMARK    5  A    between atoms: C_10  and  C_11 
REMARK    6  A    between atoms: N_16  and  C_17 
ROOT
HETATM    1  C   UNL     1      24.727  44.948  50.096  1.00  0.00     0.098 A 
HETATM    2  C   UNL     1      25.093  43.511  49.838  1.00  0.00     0.205 A 
HETATM    3  O   UNL     1      24.650  42.884  48.879  1.00  0.00    -0.286 OA
HETATM    4  C   UNL     1      26.011  42.946  50.808  1.00  0.00     0.087 A 
HETATM    5  C   UNL     1      26.554  43.708  51.814  1.00  0.00     0.145 A 
HETATM    6  N   UNL     1      27.431  42.902  52.519  1.00  0.00    -0.216 N 
HETATM    7  N   UNL     1      27.313  41.604  52.101  1.00  0.00    -0.170 NA
HETATM    8  C   UNL     1      26.507  41.649  51.029  1.00  0.00     0.069 C 
HETATM    9  C   UNL     1      26.201  40.414  50.267  1.00  0.00     0.073 C 
HETATM   10  N   UNL     1      26.204  45.001  52.020  1.00  0.00    -0.349 N 
HETATM   11  C   UNL     1      25.284  45.572  51.158  1.00  0.00     0.111 A 
HETATM   12  H   UNL     1      26.406  45.513  52.877  1.00  0.00     0.167 HD
ENDROOT
BRANCH   1  13
HETATM   13  C   UNL     1      23.797  45.739  49.233  1.00  0.00     0.261 C 
HETATM   14  N   UNL     1      23.664  47.063  49.595  1.00  0.00    -0.323 N 
HETATM   15  H   UNL     1      24.243  47.392  50.367  1.00  0.00     0.169 HD
HETATM   16  O   UNL     1      23.202  45.181  48.314  1.00  0.00    -0.267 OA
BRANCH  14  17
HETATM   17  C   UNL     1      22.756  48.010  49.074  1.00  0.00     0.035 A 
HETATM   18  C   UNL     1      21.433  47.723  48.740  1.00  0.00     0.030 A 
HETATM   19  C   UNL     1      20.578  48.733  48.287  1.00  0.00     0.009 A 
HETATM   20  C   UNL     1      21.029  50.053  48.167  1.00  0.00    -0.058 A 
HETATM   21  C   UNL     1      22.363  50.336  48.476  1.00  0.00     0.009 A 
HETATM   22  C   UNL     1      23.220  49.321  48.918  1.00  0.00     0.030 A 
BRANCH  20  23
HETATM   23  C   UNL     1      20.081  51.147  47.746  1.00  0.00     0.038 C 
BRANCH  23  24
HETATM   24  C   UNL     1      19.539  51.915  48.956  1.00  0.00     0.004 C 
BRANCH  24  25
HETATM   25  C   UNL     1      18.216  52.610  48.636  1.00  0.00    -0.004 C 
HETATM   26  C   UNL     1      17.265  52.560  49.822  1.00  0.00     0.005 C 
ENDBRANCH  24  25
ENDBRANCH  23  24
ENDBRANCH  20  23
ENDBRANCH  14  17
ENDBRANCH   1  13
BRANCH   6  27
HETATM   27  C   UNL     1      28.390  43.248  53.514  1.00  0.00     0.060 A 
HETATM   28  C   UNL     1      28.194  44.333  54.377  1.00  0.00     0.032 A 
HETATM   29  C   UNL     1      29.162  44.659  55.333  1.00  0.00     0.009 A 
HETATM   30  C   UNL     1      30.338  43.910  55.440  1.00  0.00    -0.062 A 
HETATM   31  C   UNL     1      31.392  44.271  56.443  1.00  0.00     0.048 C 
HETATM   32  C   UNL     1      30.546  42.844  54.557  1.00  0.00     0.009 A 
HETATM   33  C   UNL     1      29.584  42.518  53.596  1.00  0.00     0.032 A 
ENDBRANCH   6  27
TORSDOF 6
ENDMDL
MODEL 10
REMARK VINA RESULT:      -8.9      3.217     10.762
REMARK  6 active torsions:
REMARK  status: ('A' for Active; 'I' for Inactive)
REMARK    1  A    between atoms: C_2  and  C_3 
REMARK    2  A    between atoms: C_3  and  C_4 
REMARK    3  A    between atoms: C_4  and  C_5 
REMARK    4  A    between atoms: C_8  and  N_9 
REMARK       I    between atoms: N_9  and  C_10 
REMARK    5  A    between atoms: C_10  and  C_11 
REMARK    6  A    between atoms: N_16  and  C_17 
ROOT
HETATM    1  C   UNL     1      25.195  45.084  49.828  1.00  0.00     0.098 A 
HETATM    2  C   UNL     1      26.204  46.152  49.501  1.00  0.00     0.205 A 
HETATM    3  O   UNL     1      27.397  45.904  49.359  1.00  0.00    -0.286 OA
HETATM    4  C   UNL     1      25.641  47.481  49.365  1.00  0.00     0.087 A 
HETATM    5  C   UNL     1      24.286  47.701  49.442  1.00  0.00     0.145 A 
HETATM    6  N   UNL     1      24.070  49.048  49.205  1.00  0.00    -0.216 N 
HETATM    7  N   UNL     1      25.264  49.714  49.168  1.00  0.00    -0.170 NA
HETATM    8  C   UNL     1      26.205  48.758  49.198  1.00  0.00     0.069 C 
HETATM    9  C   UNL     1      27.642  49.115  49.109  1.00  0.00     0.073 C 
HETATM   10  N   UNL     1      23.404  46.717  49.738  1.00  0.00    -0.349 N 
HETATM   11  C   UNL     1      23.895  45.439  49.939  1.00  0.00     0.111 A 
HETATM   12  H   UNL     1      22.441  46.887  50.026  1.00  0.00     0.167 HD
ENDROOT
BRANCH   1  13
HETATM   13  C   UNL     1      25.540  43.642  50.018  1.00  0.00     0.261 C 
HETATM   14  N   UNL     1      26.617  43.206  49.274  1.00  0.00    -0.323 N 
HETATM   15  H   UNL     1      27.108  43.905  48.717  1.00  0.00     0.169 HD
HETATM   16  O   UNL     1      24.853  42.948  50.764  1.00  0.00    -0.267 OA
BRANCH  14  17
HETATM   17  C   UNL     1      27.081  41.881  49.127  1.00  0.00     0.035 A 
HETATM   18  C   UNL     1      27.859  41.215  50.074  1.00  0.00     0.030 A 
HETATM   19  C   UNL     1      28.226  39.880  49.880  1.00  0.00     0.009 A 
HETATM   20  C   UNL     1      27.814  39.181  48.739  1.00  0.00    -0.058 A 
HETATM   21  C   UNL     1      27.056  39.856  47.777  1.00  0.00     0.009 A 
HETATM   22  C   UNL     1      26.699  41.196  47.967  1.00  0.00     0.030 A 
BRANCH  20  23
HETATM   23  C   UNL     1      28.155  37.721  48.574  1.00  0.00     0.038 C 
BRANCH  23  24
HETATM   24  C   UNL     1      28.373  37.359  47.102  1.00  0.00     0.004 C 
BRANCH  24  25
HETATM   25  C   UNL     1      27.524  36.159  46.685  1.00  0.00    -0.004 C 
HETATM   26  C   UNL     1      26.111  36.263  47.238  1.00  0.00     0.005 C 
ENDBRANCH  24  25
ENDBRANCH  23  24
ENDBRANCH  20  23
ENDBRANCH  14  17
ENDBRANCH   1  13
BRANCH   6  27
HETATM   27  C   UNL     1      22.852  49.750  48.974  1.00  0.00     0.060 A 
HETATM   28  C   UNL     1      22.228  49.744  47.720  1.00  0.00     0.032 A 
HETATM   29  C   UNL     1      21.042  50.458  47.519  1.00  0.00     0.009 A 
HETATM   30  C   UNL     1      20.464  51.187  48.563  1.00  0.00    -0.062 A 
HETATM   31  C   UNL     1      19.207  51.978  48.346  1.00  0.00     0.048 C 
HETATM   32  C   UNL     1      21.104  51.217  49.806  1.00  0.00     0.009 A 
HETATM   33  C   UNL     1      22.293  50.510  50.011  1.00  0.00     0.032 A 
ENDBRANCH   6  27
TORSDOF 6
ENDMDL
