MODEL 1
REMARK VINA RESULT:      -9.3      0.000      0.000
REMARK  6 active torsions:
REMARK  status: ('A' for Active; 'I' for Inactive)
REMARK    1  A    between atoms: C_2  and  O_3 
REMARK    2  A    between atoms: C_2  and  C_4 
REMARK    3  A    between atoms: C_6  and  N_7 
REMARK       I    between atoms: N_7  and  C_8 
REMARK    4  A    between atoms: C_8  and  C_9 
REMARK    5  A    between atoms: C_12  and  C_13 
REMARK    6  A    between atoms: C_18  and  C_19 
ROOT
HETATM    1  C   UNL     1      26.278  44.035  51.682  1.00  0.00     0.096 A 
HETATM    2  C   UNL     1      25.467  45.010  51.130  1.00  0.00     0.138 A 
HETATM    3  N   UNL     1      25.142  44.561  49.869  1.00  0.00    -0.240 N 
HETATM    4  C   UNL     1      24.347  45.307  48.909  1.00  0.00     0.221 C 
HETATM    5  C   UNL     1      23.627  46.481  49.600  1.00  0.00     0.068 C 
HETATM    6  C   UNL     1      24.557  47.204  50.584  1.00  0.00     0.143 C 
HETATM    7  N   UNL     1      25.031  46.222  51.580  1.00  0.00    -0.363 N 
HETATM    8  N   UNL     1      25.809  43.453  49.513  1.00  0.00    -0.181 NA
HETATM    9  C   UNL     1      26.476  43.120  50.621  1.00  0.00     0.160 A 
HETATM   10  H   UNL     1      25.572  46.677  52.319  1.00  0.00     0.162 HD
ENDROOT
BRANCH   1  11
HETATM   11  C   UNL     1      26.865  43.962  53.010  1.00  0.00     0.261 C 
HETATM   12  N   UNL     1      28.226  44.199  53.020  1.00  0.00    -0.323 N 
HETATM   13  H   UNL     1      28.618  44.523  52.142  1.00  0.00     0.169 HD
HETATM   14  O   UNL     1      26.160  43.748  53.989  1.00  0.00    -0.267 OA
BRANCH  12  15
HETATM   15  C   UNL     1      29.098  44.158  54.126  1.00  0.00     0.035 A 
HETATM   16  C   UNL     1      29.066  45.083  55.173  1.00  0.00     0.039 A 
HETATM   17  C   UNL     1      29.956  44.983  56.260  1.00  0.00    -0.028 A 
HETATM   18  C   UNL     1      30.895  43.944  56.268  1.00  0.00     0.010 A 
HETATM   19  C   UNL     1      30.931  43.014  55.231  1.00  0.00     0.003 A 
HETATM   20  C   UNL     1      30.031  43.117  54.169  1.00  0.00     0.029 A 
BRANCH  17  21
HETATM   21  C   UNL     1      29.898  46.012  57.368  1.00  0.00     0.147 C 
HETATM   22  C   UNL     1      30.692  45.566  58.588  1.00  0.00     0.044 C 
BRANCH  21  23
HETATM   23  O   UNL     1      28.544  46.248  57.751  1.00  0.00    -0.391 OA
HETATM   24  H   UNL     1      28.072  45.404  57.654  1.00  0.00     0.210 HD
ENDBRANCH  21  23
ENDBRANCH  17  21
ENDBRANCH  12  15
ENDBRANCH   1  11
BRANCH   4  25
HETATM   25  C   UNL     1      23.328  44.423  48.223  1.00  0.00     0.409 C 
HETATM   26  F   UNL     1      22.287  45.100  47.698  1.00  0.00    -0.169 F 
HETATM   27  F   UNL     1      23.880  43.668  47.245  1.00  0.00    -0.169 F 
HETATM   28  F   UNL     1      22.796  43.554  49.126  1.00  0.00    -0.169 F 
ENDBRANCH   4  25
BRANCH   6  29
HETATM   29  C   UNL     1      25.640  47.958  49.870  1.00  0.00     0.075 A 
HETATM   30  O   UNL     1      25.244  49.055  49.158  1.00  0.00    -0.325 OA
HETATM   31  C   UNL     1      26.356  49.578  48.579  1.00  0.00     0.142 A 
HETATM   32  C   UNL     1      27.465  48.836  48.910  1.00  0.00     0.027 A 
HETATM   33  C   UNL     1      27.005  47.791  49.747  1.00  0.00     0.037 A 
ENDBRANCH   6  29
TORSDOF 6
ENDMDL
MODEL 2
REMARK VINA RESULT:      -8.6      3.854      8.727
REMARK  6 active torsions:
REMARK  status: ('A' for Active; 'I' for Inactive)
REMARK    1  A    between atoms: C_2  and  O_3 
REMARK    2  A    between atoms: C_2  and  C_4 
REMARK    3  A    between atoms: C_6  and  N_7 
REMARK       I    between atoms: N_7  and  C_8 
REMARK    4  A    between atoms: C_8  and  C_9 
REMARK    5  A    between atoms: C_12  and  C_13 
REMARK    6  A    between atoms: C_18  and  C_19 
ROOT
HETATM    1  C   UNL     1      24.993  45.299  51.539  1.00  0.00     0.096 A 
HETATM    2  C   UNL     1      25.624  44.966  52.724  1.00  0.00     0.138 A 
HETATM    3  N   UNL     1      26.367  46.070  53.078  1.00  0.00    -0.240 N 
HETATM    4  C   UNL     1      27.241  46.137  54.237  1.00  0.00     0.221 C 
HETATM    5  C   UNL     1      26.956  44.965  55.196  1.00  0.00     0.068 C 
HETATM    6  C   UNL     1      26.764  43.649  54.429  1.00  0.00     0.143 C 
HETATM    7  N   UNL     1      25.650  43.829  53.476  1.00  0.00    -0.363 N 
HETATM    8  N   UNL     1      26.386  47.023  52.134  1.00  0.00    -0.181 NA
HETATM    9  C   UNL     1      25.531  46.566  51.214  1.00  0.00     0.160 A 
HETATM   10  H   UNL     1      25.415  42.947  53.014  1.00  0.00     0.162 HD
ENDROOT
BRANCH   1  11
HETATM   11  C   UNL     1      24.046  44.531  50.747  1.00  0.00     0.261 C 
HETATM   12  N   UNL     1      23.781  45.095  49.514  1.00  0.00    -0.323 N 
HETATM   13  H   UNL     1      24.368  45.883  49.260  1.00  0.00     0.169 HD
HETATM   14  O   UNL     1      23.595  43.474  51.172  1.00  0.00    -0.267 OA
BRANCH  12  15
HETATM   15  C   UNL     1      22.882  44.633  48.532  1.00  0.00     0.035 A 
HETATM   16  C   UNL     1      21.540  45.019  48.467  1.00  0.00     0.039 A 
HETATM   17  C   UNL     1      20.692  44.534  47.454  1.00  0.00    -0.028 A 
HETATM   18  C   UNL     1      21.211  43.637  46.512  1.00  0.00     0.010 A 
HETATM   19  C   UNL     1      22.549  43.251  46.566  1.00  0.00     0.003 A 
HETATM   20  C   UNL     1      23.382  43.753  47.566  1.00  0.00     0.029 A 
BRANCH  17  21
HETATM   21  C   UNL     1      19.241  44.965  47.426  1.00  0.00     0.147 C 
HETATM   22  C   UNL     1      19.104  46.444  47.089  1.00  0.00     0.044 C 
BRANCH  21  23
HETATM   23  O   UNL     1      18.628  44.714  48.690  1.00  0.00    -0.391 OA
HETATM   24  H   UNL     1      17.714  45.039  48.629  1.00  0.00     0.210 HD
ENDBRANCH  21  23
ENDBRANCH  17  21
ENDBRANCH  12  15
ENDBRANCH   1  11
BRANCH   4  25
HETATM   25  C   UNL     1      27.084  47.446  54.979  1.00  0.00     0.409 C 
HETATM   26  F   UNL     1      25.880  48.028  54.806  1.00  0.00    -0.169 F 
HETATM   27  F   UNL     1      27.302  47.311  56.308  1.00  0.00    -0.169 F 
HETATM   28  F   UNL     1      28.005  48.341  54.528  1.00  0.00    -0.169 F 
ENDBRANCH   4  25
BRANCH   6  29
HETATM   29  C   UNL     1      28.049  43.170  53.821  1.00  0.00     0.075 A 
HETATM   30  O   UNL     1      27.934  42.313  52.764  1.00  0.00    -0.325 OA
HETATM   31  C   UNL     1      29.194  41.986  52.376  1.00  0.00     0.142 A 
HETATM   32  C   UNL     1      30.121  42.624  53.166  1.00  0.00     0.027 A 
HETATM   33  C   UNL     1      29.384  43.392  54.098  1.00  0.00     0.037 A 
ENDBRANCH   6  29
TORSDOF 6
ENDMDL
MODEL 3
REMARK VINA RESULT:      -8.6      4.706      6.704
REMARK  6 active torsions:
REMARK  status: ('A' for Active; 'I' for Inactive)
REMARK    1  A    between atoms: C_2  and  O_3 
REMARK    2  A    between atoms: C_2  and  C_4 
REMARK    3  A    between atoms: C_6  and  N_7 
REMARK       I    between atoms: N_7  and  C_8 
REMARK    4  A    between atoms: C_8  and  C_9 
REMARK    5  A    between atoms: C_12  and  C_13 
REMARK    6  A    between atoms: C_18  and  C_19 
ROOT
HETATM    1  C   UNL     1      21.726  47.292  48.438  1.00  0.00     0.096 A 
HETATM    2  C   UNL     1      20.508  47.754  48.904  1.00  0.00     0.138 A 
HETATM    3  N   UNL     1      19.606  47.533  47.887  1.00  0.00    -0.240 N 
HETATM    4  C   UNL     1      18.208  47.925  47.926  1.00  0.00     0.221 C 
HETATM    5  C   UNL     1      17.789  48.285  49.365  1.00  0.00     0.068 C 
HETATM    6  C   UNL     1      18.864  49.129  50.064  1.00  0.00     0.143 C 
HETATM    7  N   UNL     1      20.126  48.362  50.063  1.00  0.00    -0.363 N 
HETATM    8  N   UNL     1      20.182  47.111  46.750  1.00  0.00    -0.181 NA
HETATM    9  C   UNL     1      21.461  46.940  47.093  1.00  0.00     0.160 A 
HETATM   10  H   UNL     1      20.847  48.839  50.610  1.00  0.00     0.162 HD
ENDROOT
BRANCH   1  11
HETATM   11  C   UNL     1      23.011  47.227  49.113  1.00  0.00     0.261 C 
HETATM   12  N   UNL     1      23.386  45.941  49.453  1.00  0.00    -0.323 N 
HETATM   13  H   UNL     1      22.799  45.203  49.077  1.00  0.00     0.169 HD
HETATM   14  O   UNL     1      23.668  48.245  49.298  1.00  0.00    -0.267 OA
BRANCH  12  15
HETATM   15  C   UNL     1      24.541  45.537  50.151  1.00  0.00     0.035 A 
HETATM   16  C   UNL     1      24.589  45.367  51.537  1.00  0.00     0.039 A 
HETATM   17  C   UNL     1      25.769  44.948  52.179  1.00  0.00    -0.028 A 
HETATM   18  C   UNL     1      26.913  44.720  51.404  1.00  0.00     0.010 A 
HETATM   19  C   UNL     1      26.874  44.882  50.020  1.00  0.00     0.003 A 
HETATM   20  C   UNL     1      25.691  45.280  49.397  1.00  0.00     0.029 A 
BRANCH  17  21
HETATM   21  C   UNL     1      25.783  44.788  53.684  1.00  0.00     0.147 C 
HETATM   22  C   UNL     1      27.158  44.371  54.190  1.00  0.00     0.044 C 
BRANCH  21  23
HETATM   23  O   UNL     1      24.821  43.814  54.085  1.00  0.00    -0.391 OA
HETATM   24  H   UNL     1      25.318  43.039  54.399  1.00  0.00     0.210 HD
ENDBRANCH  21  23
ENDBRANCH  17  21
ENDBRANCH  12  15
ENDBRANCH   1  11
BRANCH   4  25
HETATM   25  C   UNL     1      17.307  46.829  47.398  1.00  0.00     0.409 C 
HETATM   26  F   UNL     1      17.284  46.746  46.053  1.00  0.00    -0.169 F 
HETATM   27  F   UNL     1      17.636  45.613  47.893  1.00  0.00    -0.169 F 
HETATM   28  F   UNL     1      16.024  47.067  47.784  1.00  0.00    -0.169 F 
ENDBRANCH   4  25
BRANCH   6  29
HETATM   29  C   UNL     1      18.956  50.506  49.476  1.00  0.00     0.075 A 
HETATM   30  O   UNL     1      17.917  51.350  49.749  1.00  0.00    -0.325 OA
HETATM   31  C   UNL     1      18.180  52.524  49.118  1.00  0.00     0.142 A 
HETATM   32  C   UNL     1      19.376  52.450  48.444  1.00  0.00     0.027 A 
HETATM   33  C   UNL     1      19.881  51.149  48.676  1.00  0.00     0.037 A 
ENDBRANCH   6  29
TORSDOF 6
ENDMDL
MODEL 4
REMARK VINA RESULT:      -8.6     12.994     14.099
REMARK  6 active torsions:
REMARK  status: ('A' for Active; 'I' for Inactive)
REMARK    1  A    between atoms: C_2  and  O_3 
REMARK    2  A    between atoms: C_2  and  C_4 
REMARK    3  A    between atoms: C_6  and  N_7 
REMARK       I    between atoms: N_7  and  C_8 
REMARK    4  A    between atoms: C_8  and  C_9 
REMARK    5  A    between atoms: C_12  and  C_13 
REMARK    6  A    between atoms: C_18  and  C_19 
ROOT
HETATM    1  C   UNL     1      32.901  51.441  42.009  1.00  0.00     0.096 A 
HETATM    2  C   UNL     1      32.242  51.252  40.808  1.00  0.00     0.138 A 
HETATM    3  N   UNL     1      30.962  51.721  41.002  1.00  0.00    -0.240 N 
HETATM    4  C   UNL     1      29.903  51.662  40.008  1.00  0.00     0.221 C 
HETATM    5  C   UNL     1      30.486  51.344  38.618  1.00  0.00     0.068 C 
HETATM    6  C   UNL     1      31.554  50.244  38.698  1.00  0.00     0.143 C 
HETATM    7  N   UNL     1      32.616  50.698  39.619  1.00  0.00    -0.363 N 
HETATM    8  N   UNL     1      30.704  52.048  42.277  1.00  0.00    -0.181 NA
HETATM    9  C   UNL     1      31.887  51.904  42.881  1.00  0.00     0.160 A 
HETATM   10  H   UNL     1      33.402  50.043  39.626  1.00  0.00     0.162 HD
ENDROOT
BRANCH   1  11
HETATM   11  C   UNL     1      34.287  51.177  42.355  1.00  0.00     0.261 C 
HETATM   12  N   UNL     1      34.853  52.165  43.139  1.00  0.00    -0.323 N 
HETATM   13  H   UNL     1      34.208  52.870  43.483  1.00  0.00     0.169 HD
HETATM   14  O   UNL     1      34.832  50.142  41.992  1.00  0.00    -0.267 OA
BRANCH  12  15
HETATM   15  C   UNL     1      36.180  52.240  43.605  1.00  0.00     0.035 A 
HETATM   16  C   UNL     1      36.605  53.129  44.596  1.00  0.00     0.039 A 
HETATM   17  C   UNL     1      37.943  53.148  45.032  1.00  0.00    -0.028 A 
HETATM   18  C   UNL     1      38.858  52.268  44.440  1.00  0.00     0.010 A 
HETATM   19  C   UNL     1      38.442  51.374  43.454  1.00  0.00     0.003 A 
HETATM   20  C   UNL     1      37.108  51.354  43.046  1.00  0.00     0.029 A 
BRANCH  17  21
HETATM   21  C   UNL     1      38.366  54.135  46.098  1.00  0.00     0.147 C 
HETATM   22  C   UNL     1      38.489  53.468  47.462  1.00  0.00     0.044 C 
BRANCH  21  23
HETATM   23  O   UNL     1      37.424  55.204  46.182  1.00  0.00    -0.391 OA
HETATM   24  H   UNL     1      37.835  55.901  46.720  1.00  0.00     0.210 HD
ENDBRANCH  21  23
ENDBRANCH  17  21
ENDBRANCH  12  15
ENDBRANCH   1  11
BRANCH   4  25
HETATM   25  C   UNL     1      29.125  52.958  39.945  1.00  0.00     0.409 C 
HETATM   26  F   UNL     1      28.111  53.027  40.830  1.00  0.00    -0.169 F 
HETATM   27  F   UNL     1      29.917  54.041  40.123  1.00  0.00    -0.169 F 
HETATM   28  F   UNL     1      28.561  53.093  38.713  1.00  0.00    -0.169 F 
ENDBRANCH   4  25
BRANCH   6  29
HETATM   29  C   UNL     1      30.952  48.911  39.029  1.00  0.00     0.075 A 
HETATM   30  O   UNL     1      29.823  48.569  38.339  1.00  0.00    -0.325 OA
HETATM   31  C   UNL     1      29.430  47.351  38.794  1.00  0.00     0.142 A 
HETATM   32  C   UNL     1      30.292  46.900  39.766  1.00  0.00     0.027 A 
HETATM   33  C   UNL     1      31.277  47.904  39.918  1.00  0.00     0.037 A 
ENDBRANCH   6  29
TORSDOF 6
ENDMDL
MODEL 5
REMARK VINA RESULT:      -8.5      3.642      8.311
REMARK  6 active torsions:
REMARK  status: ('A' for Active; 'I' for Inactive)
REMARK    1  A    between atoms: C_2  and  O_3 
REMARK    2  A    between atoms: C_2  and  C_4 
REMARK    3  A    between atoms: C_6  and  N_7 
REMARK       I    between atoms: N_7  and  C_8 
REMARK    4  A    between atoms: C_8  and  C_9 
REMARK    5  A    between atoms: C_12  and  C_13 
REMARK    6  A    between atoms: C_18  and  C_19 
ROOT
HETATM    1  C   UNL     1      23.196  45.386  48.946  1.00  0.00     0.096 A 
HETATM    2  C   UNL     1      24.492  45.155  49.371  1.00  0.00     0.138 A 
HETATM    3  N   UNL     1      24.537  43.827  49.736  1.00  0.00    -0.240 N 
HETATM    4  C   UNL     1      25.702  43.168  50.302  1.00  0.00     0.221 C 
HETATM    5  C   UNL     1      26.960  44.036  50.108  1.00  0.00     0.068 C 
HETATM    6  C   UNL     1      26.670  45.514  50.405  1.00  0.00     0.143 C 
HETATM    7  N   UNL     1      25.584  45.960  49.509  1.00  0.00    -0.363 N 
HETATM    8  N   UNL     1      23.335  43.233  49.725  1.00  0.00    -0.181 NA
HETATM    9  C   UNL     1      22.528  44.170  49.220  1.00  0.00     0.160 A 
HETATM   10  H   UNL     1      25.424  46.967  49.596  1.00  0.00     0.162 HD
ENDROOT
BRANCH   1  11
HETATM   11  C   UNL     1      22.604  46.596  48.400  1.00  0.00     0.261 C 
HETATM   12  N   UNL     1      22.473  47.609  49.332  1.00  0.00    -0.323 N 
HETATM   13  H   UNL     1      22.921  47.438  50.226  1.00  0.00     0.169 HD
HETATM   14  O   UNL     1      22.308  46.663  47.213  1.00  0.00    -0.267 OA
BRANCH  12  15
HETATM   15  C   UNL     1      21.900  48.882  49.144  1.00  0.00     0.035 A 
HETATM   16  C   UNL     1      20.559  49.175  49.405  1.00  0.00     0.039 A 
HETATM   17  C   UNL     1      20.046  50.471  49.211  1.00  0.00    -0.028 A 
HETATM   18  C   UNL     1      20.901  51.470  48.730  1.00  0.00     0.010 A 
HETATM   19  C   UNL     1      22.242  51.189  48.472  1.00  0.00     0.003 A 
HETATM   20  C   UNL     1      22.740  49.903  48.686  1.00  0.00     0.029 A 
BRANCH  17  21
HETATM   21  C   UNL     1      18.584  50.744  49.493  1.00  0.00     0.147 C 
HETATM   22  C   UNL     1      18.299  52.238  49.576  1.00  0.00     0.044 C 
BRANCH  21  23
HETATM   23  O   UNL     1      18.194  50.123  50.717  1.00  0.00    -0.391 OA
HETATM   24  H   UNL     1      18.501  49.202  50.677  1.00  0.00     0.210 HD
ENDBRANCH  21  23
ENDBRANCH  17  21
ENDBRANCH  12  15
ENDBRANCH   1  11
BRANCH   4  25
HETATM   25  C   UNL     1      25.928  41.807  49.681  1.00  0.00     0.409 C 
HETATM   26  F   UNL     1      25.321  40.801  50.341  1.00  0.00    -0.169 F 
HETATM   27  F   UNL     1      25.536  41.762  48.386  1.00  0.00    -0.169 F 
HETATM   28  F   UNL     1      27.258  41.516  49.690  1.00  0.00    -0.169 F 
ENDBRANCH   4  25
BRANCH   6  29
HETATM   29  C   UNL     1      26.424  45.748  51.866  1.00  0.00     0.075 A 
HETATM   30  O   UNL     1      27.160  44.989  52.732  1.00  0.00    -0.325 OA
HETATM   31  C   UNL     1      26.780  45.334  53.989  1.00  0.00     0.142 A 
HETATM   32  C   UNL     1      25.811  46.309  53.947  1.00  0.00     0.027 A 
HETATM   33  C   UNL     1      25.582  46.580  52.577  1.00  0.00     0.037 A 
ENDBRANCH   6  29
TORSDOF 6
ENDMDL
MODEL 6
REMARK VINA RESULT:      -8.2      4.246      8.253
REMARK  6 active torsions:
REMARK  status: ('A' for Active; 'I' for Inactive)
REMARK    1  A    between atoms: C_2  and  O_3 
REMARK    2  A    between atoms: C_2  and  C_4 
REMARK    3  A    between atoms: C_6  and  N_7 
REMARK       I    between atoms: N_7  and  C_8 
REMARK    4  A    between atoms: C_8  and  C_9 
REMARK    5  A    between atoms: C_12  and  C_13 
REMARK    6  A    between atoms: C_18  and  C_19 
ROOT
HETATM    1  C   UNL     1      25.566  44.236  51.096  1.00  0.00     0.096 A 
HETATM    2  C   UNL     1      25.958  42.911  51.155  1.00  0.00     0.138 A 
HETATM    3  N   UNL     1      27.206  42.912  51.737  1.00  0.00    -0.240 N 
HETATM    4  C   UNL     1      28.021  41.727  51.941  1.00  0.00     0.221 C 
HETATM    5  C   UNL     1      27.176  40.452  51.754  1.00  0.00     0.068 C 
HETATM    6  C   UNL     1      26.247  40.571  50.537  1.00  0.00     0.143 C 
HETATM    7  N   UNL     1      25.380  41.751  50.732  1.00  0.00    -0.363 N 
HETATM    8  N   UNL     1      27.709  44.144  51.912  1.00  0.00    -0.181 NA
HETATM    9  C   UNL     1      26.704  44.945  51.548  1.00  0.00     0.160 A 
HETATM   10  H   UNL     1      24.673  41.813  49.996  1.00  0.00     0.162 HD
ENDROOT
BRANCH   1  11
HETATM   11  C   UNL     1      24.317  44.812  50.627  1.00  0.00     0.261 C 
HETATM   12  N   UNL     1      24.495  45.887  49.777  1.00  0.00    -0.323 N 
HETATM   13  H   UNL     1      25.452  46.054  49.482  1.00  0.00     0.169 HD
HETATM   14  O   UNL     1      23.244  44.320  50.957  1.00  0.00    -0.267 OA
BRANCH  12  15
HETATM   15  C   UNL     1      23.501  46.693  49.188  1.00  0.00     0.035 A 
HETATM   16  C   UNL     1      23.334  48.050  49.473  1.00  0.00     0.039 A 
HETATM   17  C   UNL     1      22.330  48.808  48.842  1.00  0.00    -0.028 A 
HETATM   18  C   UNL     1      21.478  48.173  47.930  1.00  0.00     0.010 A 
HETATM   19  C   UNL     1      21.640  46.820  47.636  1.00  0.00     0.003 A 
HETATM   20  C   UNL     1      22.652  46.086  48.256  1.00  0.00     0.029 A 
BRANCH  17  21
HETATM   21  C   UNL     1      22.173  50.274  49.188  1.00  0.00     0.147 C 
HETATM   22  C   UNL     1      23.167  51.138  48.422  1.00  0.00     0.044 C 
BRANCH  21  23
HETATM   23  O   UNL     1      22.361  50.473  50.588  1.00  0.00    -0.391 OA
HETATM   24  H   UNL     1      23.210  50.061  50.820  1.00  0.00     0.210 HD
ENDBRANCH  21  23
ENDBRANCH  17  21
ENDBRANCH  12  15
ENDBRANCH   1  11
BRANCH   4  25
HETATM   25  C   UNL     1      28.655  41.715  53.315  1.00  0.00     0.409 C 
HETATM   26  F   UNL     1      28.759  40.484  53.855  1.00  0.00    -0.169 F 
HETATM   27  F   UNL     1      29.883  42.284  53.317  1.00  0.00    -0.169 F 
HETATM   28  F   UNL     1      27.893  42.443  54.176  1.00  0.00    -0.169 F 
ENDBRANCH   4  25
BRANCH   6  29
HETATM   29  C   UNL     1      27.017  40.553  49.250  1.00  0.00     0.075 A 
HETATM   30  O   UNL     1      27.981  39.591  49.136  1.00  0.00    -0.325 OA
HETATM   31  C   UNL     1      28.567  39.756  47.922  1.00  0.00     0.142 A 
HETATM   32  C   UNL     1      27.993  40.808  47.248  1.00  0.00     0.027 A 
HETATM   33  C   UNL     1      26.989  41.323  48.103  1.00  0.00     0.037 A 
ENDBRANCH   6  29
TORSDOF 6
ENDMDL
MODEL 7
REMARK VINA RESULT:      -8.2      4.222      9.256
REMARK  6 active torsions:
REMARK  status: ('A' for Active; 'I' for Inactive)
REMARK    1  A    between atoms: C_2  and  O_3 
REMARK    2  A    between atoms: C_2  and  C_4 
REMARK    3  A    between atoms: C_6  and  N_7 
REMARK       I    between atoms: N_7  and  C_8 
REMARK    4  A    between atoms: C_8  and  C_9 
REMARK    5  A    between atoms: C_12  and  C_13 
REMARK    6  A    between atoms: C_18  and  C_19 
ROOT
HETATM    1  C   UNL     1      24.276  47.003  50.054  1.00  0.00     0.096 A 
HETATM    2  C   UNL     1      24.586  46.070  51.027  1.00  0.00     0.138 A 
HETATM    3  N   UNL     1      25.675  46.575  51.701  1.00  0.00    -0.240 N 
HETATM    4  C   UNL     1      26.372  45.886  52.774  1.00  0.00     0.221 C 
HETATM    5  C   UNL     1      25.531  44.703  53.291  1.00  0.00     0.068 C 
HETATM    6  C   UNL     1      24.896  43.920  52.134  1.00  0.00     0.143 C 
HETATM    7  N   UNL     1      24.062  44.852  51.348  1.00  0.00    -0.363 N 
HETATM    8  N   UNL     1      26.184  47.680  51.135  1.00  0.00    -0.181 NA
HETATM    9  C   UNL     1      25.319  47.953  50.154  1.00  0.00     0.160 A 
HETATM   10  H   UNL     1      23.535  44.355  50.625  1.00  0.00     0.162 HD
ENDROOT
BRANCH   1  11
HETATM   11  C   UNL     1      23.187  47.010  49.092  1.00  0.00     0.261 C 
HETATM   12  N   UNL     1      22.232  47.975  49.354  1.00  0.00    -0.323 N 
HETATM   13  H   UNL     1      22.471  48.634  50.088  1.00  0.00     0.169 HD
HETATM   14  O   UNL     1      23.193  46.238  48.140  1.00  0.00    -0.267 OA
BRANCH  12  15
HETATM   15  C   UNL     1      21.036  48.216  48.650  1.00  0.00     0.035 A 
HETATM   16  C   UNL     1      19.935  47.356  48.675  1.00  0.00     0.039 A 
HETATM   17  C   UNL     1      18.761  47.657  47.961  1.00  0.00    -0.028 A 
HETATM   18  C   UNL     1      18.716  48.833  47.202  1.00  0.00     0.010 A 
HETATM   19  C   UNL     1      19.807  49.700  47.175  1.00  0.00     0.003 A 
HETATM   20  C   UNL     1      20.958  49.396  47.903  1.00  0.00     0.029 A 
BRANCH  17  21
HETATM   21  C   UNL     1      17.594  46.693  48.003  1.00  0.00     0.147 C 
HETATM   22  C   UNL     1      16.455  47.229  48.860  1.00  0.00     0.044 C 
BRANCH  21  23
HETATM   23  O   UNL     1      18.016  45.431  48.520  1.00  0.00    -0.391 OA
HETATM   24  H   UNL     1      18.017  45.510  49.488  1.00  0.00     0.210 HD
ENDBRANCH  21  23
ENDBRANCH  17  21
ENDBRANCH  12  15
ENDBRANCH   1  11
BRANCH   4  25
HETATM   25  C   UNL     1      26.690  46.819  53.922  1.00  0.00     0.409 C 
HETATM   26  F   UNL     1      26.946  46.185  55.083  1.00  0.00    -0.169 F 
HETATM   27  F   UNL     1      27.734  47.635  53.644  1.00  0.00    -0.169 F 
HETATM   28  F   UNL     1      25.623  47.630  54.161  1.00  0.00    -0.169 F 
ENDBRANCH   4  25
BRANCH   6  29
HETATM   29  C   UNL     1      25.927  43.169  51.343  1.00  0.00     0.075 A 
HETATM   30  O   UNL     1      26.871  42.496  52.066  1.00  0.00    -0.325 OA
HETATM   31  C   UNL     1      27.710  41.906  51.176  1.00  0.00     0.142 A 
HETATM   32  C   UNL     1      27.319  42.186  49.888  1.00  0.00     0.027 A 
HETATM   33  C   UNL     1      26.165  42.999  49.993  1.00  0.00     0.037 A 
ENDBRANCH   6  29
TORSDOF 6
ENDMDL
MODEL 8
REMARK VINA RESULT:      -8.1      9.272     13.290
REMARK  6 active torsions:
REMARK  status: ('A' for Active; 'I' for Inactive)
REMARK    1  A    between atoms: C_2  and  O_3 
REMARK    2  A    between atoms: C_2  and  C_4 
REMARK    3  A    between atoms: C_6  and  N_7 
REMARK       I    between atoms: N_7  and  C_8 
REMARK    4  A    between atoms: C_8  and  C_9 
REMARK    5  A    between atoms: C_12  and  C_13 
REMARK    6  A    between atoms: C_18  and  C_19 
ROOT
HETATM    1  C   UNL     1      17.964  51.759  49.050  1.00  0.00     0.096 A 
HETATM    2  C   UNL     1      18.619  50.542  49.102  1.00  0.00     0.138 A 
HETATM    3  N   UNL     1      19.930  50.804  48.771  1.00  0.00    -0.240 N 
HETATM    4  C   UNL     1      20.965  49.792  48.645  1.00  0.00     0.221 C 
HETATM    5  C   UNL     1      20.500  48.463  49.269  1.00  0.00     0.068 C 
HETATM    6  C   UNL     1      19.044  48.150  48.896  1.00  0.00     0.143 C 
HETATM    7  N   UNL     1      18.198  49.270  49.359  1.00  0.00    -0.363 N 
HETATM    8  N   UNL     1      20.131  52.064  48.358  1.00  0.00    -0.181 NA
HETATM    9  C   UNL     1      18.946  52.649  48.554  1.00  0.00     0.160 A 
HETATM   10  H   UNL     1      17.206  49.061  49.226  1.00  0.00     0.162 HD
ENDROOT
BRANCH   1  11
HETATM   11  C   UNL     1      16.581  52.080  49.359  1.00  0.00     0.261 C 
HETATM   12  N   UNL     1      16.381  53.416  49.650  1.00  0.00    -0.323 N 
HETATM   13  H   UNL     1      17.179  54.022  49.483  1.00  0.00     0.169 HD
HETATM   14  O   UNL     1      15.716  51.213  49.309  1.00  0.00    -0.267 OA
BRANCH  12  15
HETATM   15  C   UNL     1      15.180  54.043  50.033  1.00  0.00     0.035 A 
HETATM   16  C   UNL     1      14.997  54.685  51.261  1.00  0.00     0.039 A 
HETATM   17  C   UNL     1      13.776  55.306  51.583  1.00  0.00    -0.028 A 
HETATM   18  C   UNL     1      12.729  55.257  50.655  1.00  0.00     0.010 A 
HETATM   19  C   UNL     1      12.903  54.624  49.425  1.00  0.00     0.003 A 
HETATM   20  C   UNL     1      14.125  54.028  49.113  1.00  0.00     0.029 A 
BRANCH  17  21
HETATM   21  C   UNL     1      13.615  55.979  52.929  1.00  0.00     0.147 C 
HETATM   22  C   UNL     1      14.932  56.559  53.427  1.00  0.00     0.044 C 
BRANCH  21  23
HETATM   23  O   UNL     1      13.120  55.047  53.890  1.00  0.00    -0.391 OA
HETATM   24  H   UNL     1      12.205  54.840  53.638  1.00  0.00     0.210 HD
ENDBRANCH  21  23
ENDBRANCH  17  21
ENDBRANCH  12  15
ENDBRANCH   1  11
BRANCH   4  25
HETATM   25  C   UNL     1      22.257  50.232  49.300  1.00  0.00     0.409 C 
HETATM   26  F   UNL     1      23.045  50.978  48.500  1.00  0.00    -0.169 F 
HETATM   27  F   UNL     1      22.042  50.921  50.445  1.00  0.00    -0.169 F 
HETATM   28  F   UNL     1      22.991  49.138  49.641  1.00  0.00    -0.169 F 
ENDBRANCH   4  25
BRANCH   6  29
HETATM   29  C   UNL     1      18.906  47.808  47.442  1.00  0.00     0.075 A 
HETATM   30  O   UNL     1      19.806  46.909  46.945  1.00  0.00    -0.325 OA
HETATM   31  C   UNL     1      19.527  46.752  45.625  1.00  0.00     0.142 A 
HETATM   32  C   UNL     1      18.455  47.534  45.264  1.00  0.00     0.027 A 
HETATM   33  C   UNL     1      18.051  48.215  46.437  1.00  0.00     0.037 A 
ENDBRANCH   6  29
TORSDOF 6
ENDMDL
MODEL 9
REMARK VINA RESULT:      -8.1     13.139     14.700
REMARK  6 active torsions:
REMARK  status: ('A' for Active; 'I' for Inactive)
REMARK    1  A    between atoms: C_2  and  O_3 
REMARK    2  A    between atoms: C_2  and  C_4 
REMARK    3  A    between atoms: C_6  and  N_7 
REMARK       I    between atoms: N_7  and  C_8 
REMARK    4  A    between atoms: C_8  and  C_9 
REMARK    5  A    between atoms: C_12  and  C_13 
REMARK    6  A    between atoms: C_18  and  C_19 
ROOT
HETATM    1  C   UNL     1      32.898  51.329  41.858  1.00  0.00     0.096 A 
HETATM    2  C   UNL     1      32.193  51.158  40.680  1.00  0.00     0.138 A 
HETATM    3  N   UNL     1      30.931  51.654  40.921  1.00  0.00    -0.240 N 
HETATM    4  C   UNL     1      29.837  51.621  39.966  1.00  0.00     0.221 C 
HETATM    5  C   UNL     1      30.362  51.294  38.555  1.00  0.00     0.068 C 
HETATM    6  C   UNL     1      31.408  50.170  38.595  1.00  0.00     0.143 C 
HETATM    7  N   UNL     1      32.512  50.598  39.478  1.00  0.00    -0.363 N 
HETATM    8  N   UNL     1      30.727  51.984  42.205  1.00  0.00    -0.181 NA
HETATM    9  C   UNL     1      31.927  51.812  42.766  1.00  0.00     0.160 A 
HETATM   10  H   UNL     1      33.283  49.926  39.456  1.00  0.00     0.162 HD
ENDROOT
BRANCH   1  11
HETATM   11  C   UNL     1      34.290  51.033  42.154  1.00  0.00     0.261 C 
HETATM   12  N   UNL     1      34.953  52.080  42.765  1.00  0.00    -0.323 N 
HETATM   13  H   UNL     1      34.368  52.859  43.051  1.00  0.00     0.169 HD
HETATM   14  O   UNL     1      34.759  49.930  41.899  1.00  0.00    -0.267 OA
BRANCH  12  15
HETATM   15  C   UNL     1      36.310  52.138  43.139  1.00  0.00     0.035 A 
HETATM   16  C   UNL     1      37.365  51.812  42.283  1.00  0.00     0.039 A 
HETATM   17  C   UNL     1      38.703  51.902  42.709  1.00  0.00    -0.028 A 
HETATM   18  C   UNL     1      38.967  52.310  44.022  1.00  0.00     0.010 A 
HETATM   19  C   UNL     1      37.921  52.642  44.882  1.00  0.00     0.003 A 
HETATM   20  C   UNL     1      36.600  52.565  44.440  1.00  0.00     0.029 A 
BRANCH  17  21
HETATM   21  C   UNL     1      39.817  51.527  41.754  1.00  0.00     0.147 C 
HETATM   22  C   UNL     1      39.495  51.949  40.326  1.00  0.00     0.044 C 
BRANCH  21  23
HETATM   23  O   UNL     1      40.041  50.119  41.787  1.00  0.00    -0.391 OA
HETATM   24  H   UNL     1      40.849  49.974  42.307  1.00  0.00     0.210 HD
ENDBRANCH  21  23
ENDBRANCH  17  21
ENDBRANCH  12  15
ENDBRANCH   1  11
BRANCH   4  25
HETATM   25  C   UNL     1      29.086  52.934  39.932  1.00  0.00     0.409 C 
HETATM   26  F   UNL     1      28.095  53.017  40.843  1.00  0.00    -0.169 F 
HETATM   27  F   UNL     1      29.906  53.998  40.100  1.00  0.00    -0.169 F 
HETATM   28  F   UNL     1      28.495  53.092  38.716  1.00  0.00    -0.169 F 
ENDBRANCH   4  25
BRANCH   6  29
HETATM   29  C   UNL     1      30.788  48.850  38.945  1.00  0.00     0.075 A 
HETATM   30  O   UNL     1      29.617  48.544  38.311  1.00  0.00    -0.325 OA
HETATM   31  C   UNL     1      29.216  47.333  38.775  1.00  0.00     0.142 A 
HETATM   32  C   UNL     1      30.114  46.850  39.698  1.00  0.00     0.027 A 
HETATM   33  C   UNL     1      31.132  47.826  39.807  1.00  0.00     0.037 A 
ENDBRANCH   6  29
TORSDOF 6
ENDMDL
MODEL 10
REMARK VINA RESULT:      -8.0      3.027      8.015
REMARK  6 active torsions:
REMARK  status: ('A' for Active; 'I' for Inactive)
REMARK    1  A    between atoms: C_2  and  O_3 
REMARK    2  A    between atoms: C_2  and  C_4 
REMARK    3  A    between atoms: C_6  and  N_7 
REMARK       I    between atoms: N_7  and  C_8 
REMARK    4  A    between atoms: C_8  and  C_9 
REMARK    5  A    between atoms: C_12  and  C_13 
REMARK    6  A    between atoms: C_18  and  C_19 
ROOT
HETATM    1  C   UNL     1      26.082  45.554  52.831  1.00  0.00     0.096 A 
HETATM    2  C   UNL     1      27.278  45.040  53.299  1.00  0.00     0.138 A 
HETATM    3  N   UNL     1      26.989  43.776  53.764  1.00  0.00    -0.240 N 
HETATM    4  C   UNL     1      27.951  42.894  54.402  1.00  0.00     0.221 C 
HETATM    5  C   UNL     1      29.387  43.402  54.169  1.00  0.00     0.068 C 
HETATM    6  C   UNL     1      29.476  44.924  54.347  1.00  0.00     0.143 C 
HETATM    7  N   UNL     1      28.537  45.556  53.397  1.00  0.00    -0.363 N 
HETATM    8  N   UNL     1      25.676  43.502  53.774  1.00  0.00    -0.181 NA
HETATM    9  C   UNL     1      25.130  44.568  53.183  1.00  0.00     0.160 A 
HETATM   10  H   UNL     1      28.634  46.574  53.404  1.00  0.00     0.162 HD
ENDROOT
BRANCH   1  11
HETATM   11  C   UNL     1      25.812  46.826  52.183  1.00  0.00     0.261 C 
HETATM   12  N   UNL     1      26.136  46.836  50.840  1.00  0.00    -0.323 N 
HETATM   13  H   UNL     1      26.388  45.935  50.446  1.00  0.00     0.169 HD
HETATM   14  O   UNL     1      25.307  47.749  52.813  1.00  0.00    -0.267 OA
BRANCH  12  15
HETATM   15  C   UNL     1      26.042  47.916  49.940  1.00  0.00     0.035 A 
HETATM   16  C   UNL     1      24.839  48.366  49.391  1.00  0.00     0.039 A 
HETATM   17  C   UNL     1      24.806  49.460  48.506  1.00  0.00    -0.028 A 
HETATM   18  C   UNL     1      26.011  50.087  48.165  1.00  0.00     0.010 A 
HETATM   19  C   UNL     1      27.216  49.649  48.712  1.00  0.00     0.003 A 
HETATM   20  C   UNL     1      27.230  48.574  49.601  1.00  0.00     0.029 A 
BRANCH  17  21
HETATM   21  C   UNL     1      23.483  49.908  47.923  1.00  0.00     0.147 C 
HETATM   22  C   UNL     1      22.742  50.843  48.870  1.00  0.00     0.044 C 
BRANCH  21  23
HETATM   23  O   UNL     1      22.661  48.777  47.641  1.00  0.00    -0.391 OA
HETATM   24  H   UNL     1      21.850  48.880  48.167  1.00  0.00     0.210 HD
ENDBRANCH  21  23
ENDBRANCH  17  21
ENDBRANCH  12  15
ENDBRANCH   1  11
BRANCH   4  25
HETATM   25  C   UNL     1      27.830  41.474  53.891  1.00  0.00     0.409 C 
HETATM   26  F   UNL     1      28.996  40.798  53.883  1.00  0.00    -0.169 F 
HETATM   27  F   UNL     1      26.926  40.752  54.594  1.00  0.00    -0.169 F 
HETATM   28  F   UNL     1      27.391  41.488  52.603  1.00  0.00    -0.169 F 
ENDBRANCH   4  25
BRANCH   6  29
HETATM   29  C   UNL     1      29.295  45.326  55.781  1.00  0.00     0.075 A 
HETATM   30  O   UNL     1      30.278  44.935  56.646  1.00  0.00    -0.325 OA
HETATM   31  C   UNL     1      29.921  45.375  57.880  1.00  0.00     0.142 A 
HETATM   32  C   UNL     1      28.724  46.048  57.824  1.00  0.00     0.027 A 
HETATM   33  C   UNL     1      28.319  46.020  56.468  1.00  0.00     0.037 A 
ENDBRANCH   6  29
TORSDOF 6
ENDMDL
