MODEL 1
REMARK VINA RESULT:      -8.7      0.000      0.000
REMARK  5 active torsions:
REMARK  status: ('A' for Active; 'I' for Inactive)
REMARK    1  A    between atoms: C_8  and  C_9 
REMARK    2  A    between atoms: C_9  and  N_10 
REMARK       I    between atoms: N_10  and  C_11 
REMARK       I    between atoms: C_11  and  N_12 
REMARK    3  A    between atoms: N_12  and  C_13 
REMARK    4  A    between atoms: C_15  and  N_16 
REMARK       I    between atoms: N_16  and  C_17 
REMARK    5  A    between atoms: C_17  and  C_18 
ROOT
HETATM    1  C   UNL     1      25.449  46.193  49.920  1.00  0.00     0.038 A 
HETATM    2  C   UNL     1      24.548  47.255  49.891  1.00  0.00     0.059 A 
HETATM    3  C   UNL     1      24.937  48.538  49.491  1.00  0.00     0.036 A 
HETATM    4  C   UNL     1      26.276  48.793  49.211  1.00  0.00     0.029 A 
HETATM    5  C   UNL     1      27.200  47.748  49.263  1.00  0.00     0.004 A 
HETATM    6  C   UNL     1      26.787  46.455  49.606  1.00  0.00     0.029 A 
ENDROOT
BRANCH   1   7
HETATM    7  N   UNL     1      25.110  44.882  50.314  1.00  0.00    -0.309 N 
HETATM    8  C   UNL     1      25.086  44.271  51.533  1.00  0.00     0.320 C 
HETATM    9  N   UNL     1      25.028  45.057  52.634  1.00  0.00    -0.338 N 
HETATM   10  O   UNL     1      25.117  43.044  51.584  1.00  0.00    -0.247 OA
HETATM   11  H   UNL     1      24.623  45.978  52.544  1.00  0.00     0.164 HD
HETATM   12  H   UNL     1      24.977  44.210  49.568  1.00  0.00     0.170 HD
BRANCH   9  13
HETATM   13  C   UNL     1      25.293  44.580  53.970  1.00  0.00     0.167 C 
BRANCH  13  14
HETATM   14  C   UNL     1      26.706  44.930  54.307  1.00  0.00     0.009 A 
HETATM   15  C   UNL     1      27.810  44.092  54.319  1.00  0.00     0.034 A 
HETATM   16  C   UNL     1      27.961  42.653  54.002  1.00  0.00     0.070 C 
HETATM   17  N   UNL     1      28.871  44.870  54.685  1.00  0.00    -0.282 N 
HETATM   18  H   UNL     1      29.840  44.591  54.799  1.00  0.00     0.189 HD
HETATM   19  N   UNL     1      28.551  46.150  54.910  1.00  0.00    -0.179 NA
HETATM   20  C   UNL     1      27.233  46.200  54.684  1.00  0.00     0.060 A 
HETATM   21  C   UNL     1      26.507  47.486  54.832  1.00  0.00     0.073 C 
ENDBRANCH  13  14
ENDBRANCH   9  13
ENDBRANCH   1   7
BRANCH   3  22
HETATM   22  N   UNL     1      23.992  49.583  49.434  1.00  0.00    -0.327 N 
HETATM   23  C   UNL     1      23.606  50.193  48.249  1.00  0.00     0.226 C 
HETATM   24  O   UNL     1      24.221  50.094  47.188  1.00  0.00    -0.273 OA
HETATM   25  H   UNL     1      23.771  50.054  50.301  1.00  0.00     0.169 HD
BRANCH  23  26
HETATM   26  C   UNL     1      22.274  50.928  48.308  1.00  0.00     0.078 C 
HETATM   27  C   UNL     1      21.111  50.365  47.503  1.00  0.00     0.014 C 
HETATM   28  C   UNL     1      19.915  51.106  48.080  1.00  0.00     0.001 C 
HETATM   29  C   UNL     1      20.213  51.234  49.571  1.00  0.00     0.001 C 
HETATM   30  C   UNL     1      21.710  50.967  49.730  1.00  0.00     0.014 C 
ENDBRANCH  23  26
ENDBRANCH   3  22
TORSDOF 5
ENDMDL
MODEL 2
REMARK VINA RESULT:      -8.5      2.600      8.571
REMARK  5 active torsions:
REMARK  status: ('A' for Active; 'I' for Inactive)
REMARK    1  A    between atoms: C_8  and  C_9 
REMARK    2  A    between atoms: C_9  and  N_10 
REMARK       I    between atoms: N_10  and  C_11 
REMARK       I    between atoms: C_11  and  N_12 
REMARK    3  A    between atoms: N_12  and  C_13 
REMARK    4  A    between atoms: C_15  and  N_16 
REMARK       I    between atoms: N_16  and  C_17 
REMARK    5  A    between atoms: C_17  and  C_18 
ROOT
HETATM    1  C   UNL     1      24.935  47.374  49.945  1.00  0.00     0.038 A 
HETATM    2  C   UNL     1      25.867  47.208  50.968  1.00  0.00     0.059 A 
HETATM    3  C   UNL     1      25.964  46.013  51.687  1.00  0.00     0.036 A 
HETATM    4  C   UNL     1      25.045  44.994  51.452  1.00  0.00     0.029 A 
HETATM    5  C   UNL     1      24.084  45.153  50.451  1.00  0.00     0.004 A 
HETATM    6  C   UNL     1      24.036  46.331  49.697  1.00  0.00     0.029 A 
ENDROOT
BRANCH   1   7
HETATM    7  N   UNL     1      24.797  48.557  49.190  1.00  0.00    -0.309 N 
HETATM    8  C   UNL     1      23.706  49.304  48.852  1.00  0.00     0.320 C 
HETATM    9  N   UNL     1      22.586  49.162  49.599  1.00  0.00    -0.338 N 
HETATM   10  O   UNL     1      23.782  50.068  47.894  1.00  0.00    -0.247 OA
HETATM   11  H   UNL     1      22.684  48.849  50.555  1.00  0.00     0.164 HD
HETATM   12  H   UNL     1      25.618  48.865  48.685  1.00  0.00     0.170 HD
BRANCH   9  13
HETATM   13  C   UNL     1      21.289  49.647  49.194  1.00  0.00     0.167 C 
BRANCH  13  14
HETATM   14  C   UNL     1      20.361  48.478  49.136  1.00  0.00     0.009 A 
HETATM   15  C   UNL     1      19.276  48.211  49.957  1.00  0.00     0.034 A 
HETATM   16  C   UNL     1      18.691  48.959  51.094  1.00  0.00     0.070 C 
HETATM   17  N   UNL     1      18.743  47.036  49.509  1.00  0.00    -0.282 N 
HETATM   18  H   UNL     1      17.940  46.536  49.874  1.00  0.00     0.189 HD
HETATM   19  N   UNL     1      19.389  46.515  48.459  1.00  0.00    -0.179 NA
HETATM   20  C   UNL     1      20.379  47.384  48.222  1.00  0.00     0.060 A 
HETATM   21  C   UNL     1      21.324  47.140  47.103  1.00  0.00     0.073 C 
ENDBRANCH  13  14
ENDBRANCH   9  13
ENDBRANCH   1   7
BRANCH   3  22
HETATM   22  N   UNL     1      26.944  45.862  52.689  1.00  0.00    -0.327 N 
HETATM   23  C   UNL     1      26.663  45.951  54.045  1.00  0.00     0.226 C 
HETATM   24  O   UNL     1      25.628  46.433  54.506  1.00  0.00    -0.273 OA
HETATM   25  H   UNL     1      27.912  45.925  52.403  1.00  0.00     0.169 HD
BRANCH  23  26
HETATM   26  C   UNL     1      27.691  45.301  54.960  1.00  0.00     0.078 C 
HETATM   27  C   UNL     1      28.748  44.407  54.325  1.00  0.00     0.014 C 
HETATM   28  C   UNL     1      29.769  44.253  55.441  1.00  0.00     0.001 C 
HETATM   29  C   UNL     1      29.803  45.612  56.133  1.00  0.00     0.001 C 
HETATM   30  C   UNL     1      28.534  46.343  55.698  1.00  0.00     0.014 C 
ENDBRANCH  23  26
ENDBRANCH   3  22
TORSDOF 5
ENDMDL
MODEL 3
REMARK VINA RESULT:      -8.0      3.392      9.288
REMARK  5 active torsions:
REMARK  status: ('A' for Active; 'I' for Inactive)
REMARK    1  A    between atoms: C_8  and  C_9 
REMARK    2  A    between atoms: C_9  and  N_10 
REMARK       I    between atoms: N_10  and  C_11 
REMARK       I    between atoms: C_11  and  N_12 
REMARK    3  A    between atoms: N_12  and  C_13 
REMARK    4  A    between atoms: C_15  and  N_16 
REMARK       I    between atoms: N_16  and  C_17 
REMARK    5  A    between atoms: C_17  and  C_18 
ROOT
HETATM    1  C   UNL     1      25.720  46.192  52.783  1.00  0.00     0.038 A 
HETATM    2  C   UNL     1      26.995  46.224  53.344  1.00  0.00     0.059 A 
HETATM    3  C   UNL     1      27.476  45.175  54.135  1.00  0.00     0.036 A 
HETATM    4  C   UNL     1      26.632  44.118  54.459  1.00  0.00     0.029 A 
HETATM    5  C   UNL     1      25.340  44.083  53.931  1.00  0.00     0.004 A 
HETATM    6  C   UNL     1      24.891  45.109  53.091  1.00  0.00     0.029 A 
ENDROOT
BRANCH   1   7
HETATM    7  N   UNL     1      25.188  47.221  51.978  1.00  0.00    -0.309 N 
HETATM    8  C   UNL     1      24.696  47.225  50.705  1.00  0.00     0.320 C 
HETATM    9  N   UNL     1      24.294  46.044  50.179  1.00  0.00    -0.338 N 
HETATM   10  O   UNL     1      24.636  48.288  50.094  1.00  0.00    -0.247 OA
HETATM   11  H   UNL     1      24.001  45.313  50.812  1.00  0.00     0.164 HD
HETATM   12  H   UNL     1      25.292  48.165  52.330  1.00  0.00     0.170 HD
BRANCH   9  13
HETATM   13  C   UNL     1      24.037  45.843  48.774  1.00  0.00     0.167 C 
BRANCH  13  14
HETATM   14  C   UNL     1      22.592  45.497  48.618  1.00  0.00     0.009 A 
HETATM   15  C   UNL     1      21.509  46.362  48.585  1.00  0.00     0.034 A 
HETATM   16  C   UNL     1      21.422  47.839  48.670  1.00  0.00     0.070 C 
HETATM   17  N   UNL     1      20.403  45.578  48.423  1.00  0.00    -0.282 N 
HETATM   18  H   UNL     1      19.434  45.870  48.358  1.00  0.00     0.189 HD
HETATM   19  N   UNL     1      20.675  44.270  48.343  1.00  0.00    -0.179 NA
HETATM   20  C   UNL     1      22.007  44.206  48.462  1.00  0.00     0.060 A 
HETATM   21  C   UNL     1      22.690  42.890  48.414  1.00  0.00     0.073 C 
ENDBRANCH  13  14
ENDBRANCH   9  13
ENDBRANCH   1   7
BRANCH   3  22
HETATM   22  N   UNL     1      28.785  45.218  54.656  1.00  0.00    -0.327 N 
HETATM   23  C   UNL     1      29.098  45.802  55.876  1.00  0.00     0.226 C 
HETATM   24  O   UNL     1      28.352  46.566  56.487  1.00  0.00    -0.273 OA
HETATM   25  H   UNL     1      29.544  45.029  54.016  1.00  0.00     0.169 HD
BRANCH  23  26
HETATM   26  C   UNL     1      30.414  45.344  56.489  1.00  0.00     0.078 C 
HETATM   27  C   UNL     1      30.488  45.214  58.005  1.00  0.00     0.014 C 
HETATM   28  C   UNL     1      31.764  44.414  58.209  1.00  0.00     0.001 C 
HETATM   29  C   UNL     1      31.793  43.417  57.054  1.00  0.00     0.001 C 
HETATM   30  C   UNL     1      30.805  43.943  56.014  1.00  0.00     0.014 C 
ENDBRANCH  23  26
ENDBRANCH   3  22
TORSDOF 5
ENDMDL
MODEL 4
REMARK VINA RESULT:      -8.0     11.679     14.715
REMARK  5 active torsions:
REMARK  status: ('A' for Active; 'I' for Inactive)
REMARK    1  A    between atoms: C_8  and  C_9 
REMARK    2  A    between atoms: C_9  and  N_10 
REMARK       I    between atoms: N_10  and  C_11 
REMARK       I    between atoms: C_11  and  N_12 
REMARK    3  A    between atoms: N_12  and  C_13 
REMARK    4  A    between atoms: C_15  and  N_16 
REMARK       I    between atoms: N_16  and  C_17 
REMARK    5  A    between atoms: C_17  and  C_18 
ROOT
HETATM    1  C   UNL     1      32.925  50.147  42.190  1.00  0.00     0.038 A 
HETATM    2  C   UNL     1      34.206  50.656  42.389  1.00  0.00     0.059 A 
HETATM    3  C   UNL     1      34.494  51.532  43.441  1.00  0.00     0.036 A 
HETATM    4  C   UNL     1      33.461  51.992  44.252  1.00  0.00     0.029 A 
HETATM    5  C   UNL     1      32.164  51.517  44.049  1.00  0.00     0.004 A 
HETATM    6  C   UNL     1      31.900  50.594  43.031  1.00  0.00     0.029 A 
ENDROOT
BRANCH   1   7
HETATM    7  N   UNL     1      32.582  49.262  41.147  1.00  0.00    -0.309 N 
HETATM    8  C   UNL     1      31.650  49.336  40.153  1.00  0.00     0.320 C 
HETATM    9  N   UNL     1      31.172  50.559  39.825  1.00  0.00    -0.338 N 
HETATM   10  O   UNL     1      31.287  48.302  39.600  1.00  0.00    -0.247 OA
HETATM   11  H   UNL     1      31.752  51.366  40.010  1.00  0.00     0.164 HD
HETATM   12  H   UNL     1      32.994  48.337  41.190  1.00  0.00     0.170 HD
BRANCH   9  13
HETATM   13  C   UNL     1      29.992  50.766  39.020  1.00  0.00     0.167 C 
BRANCH  13  14
HETATM   14  C   UNL     1      28.908  51.264  39.919  1.00  0.00     0.009 A 
HETATM   15  C   UNL     1      27.825  50.558  40.420  1.00  0.00     0.034 A 
HETATM   16  C   UNL     1      27.408  49.146  40.258  1.00  0.00     0.070 C 
HETATM   17  N   UNL     1      27.123  51.439  41.192  1.00  0.00    -0.282 N 
HETATM   18  H   UNL     1      26.270  51.270  41.713  1.00  0.00     0.189 HD
HETATM   19  N   UNL     1      27.661  52.663  41.240  1.00  0.00    -0.179 NA
HETATM   20  C   UNL     1      28.750  52.571  40.467  1.00  0.00     0.060 A 
HETATM   21  C   UNL     1      29.625  53.756  40.280  1.00  0.00     0.073 C 
ENDBRANCH  13  14
ENDBRANCH   9  13
ENDBRANCH   1   7
BRANCH   3  22
HETATM   22  N   UNL     1      35.809  51.998  43.640  1.00  0.00    -0.327 N 
HETATM   23  C   UNL     1      36.442  52.878  42.773  1.00  0.00     0.226 C 
HETATM   24  O   UNL     1      36.054  53.122  41.631  1.00  0.00    -0.273 OA
HETATM   25  H   UNL     1      36.383  51.495  44.302  1.00  0.00     0.169 HD
BRANCH  23  26
HETATM   26  C   UNL     1      37.622  53.632  43.369  1.00  0.00     0.078 C 
HETATM   27  C   UNL     1      37.954  55.005  42.800  1.00  0.00     0.014 C 
HETATM   28  C   UNL     1      38.899  55.580  43.843  1.00  0.00     0.001 C 
HETATM   29  C   UNL     1      38.355  55.088  45.181  1.00  0.00     0.001 C 
HETATM   30  C   UNL     1      37.414  53.928  44.856  1.00  0.00     0.014 C 
ENDBRANCH  23  26
ENDBRANCH   3  22
TORSDOF 5
ENDMDL
MODEL 5
REMARK VINA RESULT:      -8.0      3.709      8.592
REMARK  5 active torsions:
REMARK  status: ('A' for Active; 'I' for Inactive)
REMARK    1  A    between atoms: C_8  and  C_9 
REMARK    2  A    between atoms: C_9  and  N_10 
REMARK       I    between atoms: N_10  and  C_11 
REMARK       I    between atoms: C_11  and  N_12 
REMARK    3  A    between atoms: N_12  and  C_13 
REMARK    4  A    between atoms: C_15  and  N_16 
REMARK       I    between atoms: N_16  and  C_17 
REMARK    5  A    between atoms: C_17  and  C_18 
ROOT
HETATM    1  C   UNL     1      22.957  49.372  49.359  1.00  0.00     0.038 A 
HETATM    2  C   UNL     1      23.686  48.261  49.777  1.00  0.00     0.059 A 
HETATM    3  C   UNL     1      25.042  48.114  49.470  1.00  0.00     0.036 A 
HETATM    4  C   UNL     1      25.663  49.044  48.643  1.00  0.00     0.029 A 
HETATM    5  C   UNL     1      24.942  50.150  48.189  1.00  0.00     0.004 A 
HETATM    6  C   UNL     1      23.600  50.317  48.552  1.00  0.00     0.029 A 
ENDROOT
BRANCH   1   7
HETATM    7  N   UNL     1      21.589  49.569  49.641  1.00  0.00    -0.309 N 
HETATM    8  C   UNL     1      20.457  49.228  48.960  1.00  0.00     0.320 C 
HETATM    9  N   UNL     1      20.546  48.243  48.037  1.00  0.00    -0.338 N 
HETATM   10  O   UNL     1      19.411  49.821  49.211  1.00  0.00    -0.247 OA
HETATM   11  H   UNL     1      21.277  47.553  48.141  1.00  0.00     0.164 HD
HETATM   12  H   UNL     1      21.375  50.182  50.418  1.00  0.00     0.170 HD
BRANCH   9  13
HETATM   13  C   UNL     1      19.529  47.982  47.047  1.00  0.00     0.167 C 
BRANCH  13  14
HETATM   14  C   UNL     1      18.838  46.712  47.425  1.00  0.00     0.009 A 
HETATM   15  C   UNL     1      17.643  46.566  48.111  1.00  0.00     0.034 A 
HETATM   16  C   UNL     1      16.689  47.560  48.656  1.00  0.00     0.070 C 
HETATM   17  N   UNL     1      17.426  45.221  48.210  1.00  0.00    -0.282 N 
HETATM   18  H   UNL     1      16.647  44.745  48.652  1.00  0.00     0.189 HD
HETATM   19  N   UNL     1      18.381  44.476  47.640  1.00  0.00    -0.179 NA
HETATM   20  C   UNL     1      19.250  45.373  47.158  1.00  0.00     0.060 A 
HETATM   21  C   UNL     1      20.464  44.913  46.439  1.00  0.00     0.073 C 
ENDBRANCH  13  14
ENDBRANCH   9  13
ENDBRANCH   1   7
BRANCH   3  22
HETATM   22  N   UNL     1      25.762  46.997  49.942  1.00  0.00    -0.327 N 
HETATM   23  C   UNL     1      25.963  46.737  51.290  1.00  0.00     0.226 C 
HETATM   24  O   UNL     1      25.789  47.563  52.186  1.00  0.00    -0.273 OA
HETATM   25  H   UNL     1      26.344  46.507  49.276  1.00  0.00     0.169 HD
BRANCH  23  26
HETATM   26  C   UNL     1      26.318  45.295  51.622  1.00  0.00     0.078 C 
HETATM   27  C   UNL     1      27.353  44.595  50.751  1.00  0.00     0.014 C 
HETATM   28  C   UNL     1      27.706  43.367  51.574  1.00  0.00     0.001 C 
HETATM   29  C   UNL     1      27.684  43.844  53.023  1.00  0.00     0.001 C 
HETATM   30  C   UNL     1      26.917  45.166  53.024  1.00  0.00     0.014 C 
ENDBRANCH  23  26
ENDBRANCH   3  22
TORSDOF 5
ENDMDL
MODEL 6
REMARK VINA RESULT:      -7.9      3.016      8.867
REMARK  5 active torsions:
REMARK  status: ('A' for Active; 'I' for Inactive)
REMARK    1  A    between atoms: C_8  and  C_9 
REMARK    2  A    between atoms: C_9  and  N_10 
REMARK       I    between atoms: N_10  and  C_11 
REMARK       I    between atoms: C_11  and  N_12 
REMARK    3  A    between atoms: N_12  and  C_13 
REMARK    4  A    between atoms: C_15  and  N_16 
REMARK       I    between atoms: N_16  and  C_17 
REMARK    5  A    between atoms: C_17  and  C_18 
ROOT
HETATM    1  C   UNL     1      25.367  46.720  51.344  1.00  0.00     0.038 A 
HETATM    2  C   UNL     1      26.145  46.714  52.500  1.00  0.00     0.059 A 
HETATM    3  C   UNL     1      26.292  45.563  53.281  1.00  0.00     0.036 A 
HETATM    4  C   UNL     1      25.567  44.419  52.961  1.00  0.00     0.029 A 
HETATM    5  C   UNL     1      24.758  44.414  51.822  1.00  0.00     0.004 A 
HETATM    6  C   UNL     1      24.666  45.554  51.015  1.00  0.00     0.029 A 
ENDROOT
BRANCH   1   7
HETATM    7  N   UNL     1      25.187  47.850  50.521  1.00  0.00    -0.309 N 
HETATM    8  C   UNL     1      24.306  48.117  49.514  1.00  0.00     0.320 C 
HETATM    9  N   UNL     1      23.170  47.384  49.456  1.00  0.00    -0.338 N 
HETATM   10  O   UNL     1      24.575  49.004  48.708  1.00  0.00    -0.247 OA
HETATM   11  H   UNL     1      22.821  46.972  50.310  1.00  0.00     0.164 HD
HETATM   12  H   UNL     1      25.905  48.562  50.574  1.00  0.00     0.170 HD
BRANCH   9  13
HETATM   13  C   UNL     1      22.302  47.345  48.303  1.00  0.00     0.167 C 
BRANCH  13  14
HETATM   14  C   UNL     1      20.906  47.590  48.774  1.00  0.00     0.009 A 
HETATM   15  C   UNL     1      19.854  46.688  48.825  1.00  0.00     0.034 A 
HETATM   16  C   UNL     1      19.767  45.252  48.468  1.00  0.00     0.070 C 
HETATM   17  N   UNL     1      18.789  47.377  49.329  1.00  0.00    -0.282 N 
HETATM   18  H   UNL     1      17.850  47.035  49.503  1.00  0.00     0.189 HD
HETATM   19  N   UNL     1      19.059  48.656  49.615  1.00  0.00    -0.179 NA
HETATM   20  C   UNL     1      20.347  48.800  49.280  1.00  0.00     0.060 A 
HETATM   21  C   UNL     1      21.016  50.112  49.465  1.00  0.00     0.073 C 
ENDBRANCH  13  14
ENDBRANCH   9  13
ENDBRANCH   1   7
BRANCH   3  22
HETATM   22  N   UNL     1      27.118  45.578  54.423  1.00  0.00    -0.327 N 
HETATM   23  C   UNL     1      28.399  45.043  54.441  1.00  0.00     0.226 C 
HETATM   24  O   UNL     1      28.838  44.274  53.586  1.00  0.00    -0.273 OA
HETATM   25  H   UNL     1      26.676  45.772  55.311  1.00  0.00     0.169 HD
BRANCH  23  26
HETATM   26  C   UNL     1      29.298  45.561  55.555  1.00  0.00     0.078 C 
HETATM   27  C   UNL     1      28.649  45.930  56.882  1.00  0.00     0.014 C 
HETATM   28  C   UNL     1      29.842  46.038  57.818  1.00  0.00     0.001 C 
HETATM   29  C   UNL     1      30.794  44.932  57.372  1.00  0.00     0.001 C 
HETATM   30  C   UNL     1      30.342  44.523  55.970  1.00  0.00     0.014 C 
ENDBRANCH  23  26
ENDBRANCH   3  22
TORSDOF 5
ENDMDL
MODEL 7
REMARK VINA RESULT:      -7.9      2.256      3.128
REMARK  5 active torsions:
REMARK  status: ('A' for Active; 'I' for Inactive)
REMARK    1  A    between atoms: C_8  and  C_9 
REMARK    2  A    between atoms: C_9  and  N_10 
REMARK       I    between atoms: N_10  and  C_11 
REMARK       I    between atoms: C_11  and  N_12 
REMARK    3  A    between atoms: N_12  and  C_13 
REMARK    4  A    between atoms: C_15  and  N_16 
REMARK       I    between atoms: N_16  and  C_17 
REMARK    5  A    between atoms: C_17  and  C_18 
ROOT
HETATM    1  C   UNL     1      25.674  47.414  50.929  1.00  0.00     0.038 A 
HETATM    2  C   UNL     1      24.453  47.805  50.385  1.00  0.00     0.059 A 
HETATM    3  C   UNL     1      24.379  48.576  49.220  1.00  0.00     0.036 A 
HETATM    4  C   UNL     1      25.550  49.055  48.640  1.00  0.00     0.029 A 
HETATM    5  C   UNL     1      26.784  48.699  49.187  1.00  0.00     0.004 A 
HETATM    6  C   UNL     1      26.846  47.877  50.318  1.00  0.00     0.029 A 
ENDROOT
BRANCH   1   7
HETATM    7  N   UNL     1      25.804  46.638  52.098  1.00  0.00    -0.309 N 
HETATM    8  C   UNL     1      25.707  45.295  52.320  1.00  0.00     0.320 C 
HETATM    9  N   UNL     1      25.858  44.466  51.260  1.00  0.00    -0.338 N 
HETATM   10  O   UNL     1      25.491  44.894  53.460  1.00  0.00    -0.247 OA
HETATM   11  H   UNL     1      26.398  44.791  50.471  1.00  0.00     0.164 HD
HETATM   12  H   UNL     1      25.851  47.147  52.972  1.00  0.00     0.170 HD
BRANCH   9  13
HETATM   13  C   UNL     1      25.493  43.070  51.280  1.00  0.00     0.167 C 
BRANCH  13  14
HETATM   14  C   UNL     1      26.752  42.268  51.206  1.00  0.00     0.009 A 
HETATM   15  C   UNL     1      27.328  41.690  50.086  1.00  0.00     0.034 A 
HETATM   16  C   UNL     1      26.925  41.684  48.660  1.00  0.00     0.070 C 
HETATM   17  N   UNL     1      28.464  41.070  50.522  1.00  0.00    -0.282 N 
HETATM   18  H   UNL     1      29.136  40.542  49.976  1.00  0.00     0.189 HD
HETATM   19  N   UNL     1      28.679  41.199  51.836  1.00  0.00    -0.179 NA
HETATM   20  C   UNL     1      27.642  41.927  52.266  1.00  0.00     0.060 A 
HETATM   21  C   UNL     1      27.537  42.286  53.703  1.00  0.00     0.073 C 
ENDBRANCH  13  14
ENDBRANCH   9  13
ENDBRANCH   1   7
BRANCH   3  22
HETATM   22  N   UNL     1      23.127  48.922  48.673  1.00  0.00    -0.327 N 
HETATM   23  C   UNL     1      22.409  50.042  49.068  1.00  0.00     0.226 C 
HETATM   24  O   UNL     1      22.635  50.680  50.096  1.00  0.00    -0.273 OA
HETATM   25  H   UNL     1      22.637  48.209  48.151  1.00  0.00     0.169 HD
BRANCH  23  26
HETATM   26  C   UNL     1      21.361  50.520  48.073  1.00  0.00     0.078 C 
HETATM   27  C   UNL     1      20.368  49.497  47.537  1.00  0.00     0.014 C 
HETATM   28  C   UNL     1      19.300  50.372  46.900  1.00  0.00     0.001 C 
HETATM   29  C   UNL     1      19.185  51.585  47.818  1.00  0.00     0.001 C 
HETATM   30  C   UNL     1      20.448  51.588  48.678  1.00  0.00     0.014 C 
ENDBRANCH  23  26
ENDBRANCH   3  22
TORSDOF 5
ENDMDL
MODEL 8
REMARK VINA RESULT:      -7.8      9.086     14.536
REMARK  5 active torsions:
REMARK  status: ('A' for Active; 'I' for Inactive)
REMARK    1  A    between atoms: C_8  and  C_9 
REMARK    2  A    between atoms: C_9  and  N_10 
REMARK       I    between atoms: N_10  and  C_11 
REMARK       I    between atoms: C_11  and  N_12 
REMARK    3  A    between atoms: N_12  and  C_13 
REMARK    4  A    between atoms: C_15  and  N_16 
REMARK       I    between atoms: N_16  and  C_17 
REMARK    5  A    between atoms: C_17  and  C_18 
ROOT
HETATM    1  C   UNL     1      14.285  56.070  49.736  1.00  0.00     0.038 A 
HETATM    2  C   UNL     1      15.407  55.282  49.984  1.00  0.00     0.059 A 
HETATM    3  C   UNL     1      15.299  53.913  50.249  1.00  0.00     0.036 A 
HETATM    4  C   UNL     1      14.039  53.335  50.371  1.00  0.00     0.029 A 
HETATM    5  C   UNL     1      12.901  54.115  50.156  1.00  0.00     0.004 A 
HETATM    6  C   UNL     1      13.024  55.471  49.832  1.00  0.00     0.029 A 
ENDROOT
BRANCH   1   7
HETATM    7  N   UNL     1      14.338  57.453  49.463  1.00  0.00    -0.309 N 
HETATM    8  C   UNL     1      14.384  58.545  50.280  1.00  0.00     0.320 C 
HETATM    9  N   UNL     1      14.796  58.364  51.556  1.00  0.00    -0.338 N 
HETATM   10  O   UNL     1      14.054  59.639  49.829  1.00  0.00    -0.247 OA
HETATM   11  H   UNL     1      15.401  57.581  51.758  1.00  0.00     0.164 HD
HETATM   12  H   UNL     1      14.189  57.726  48.500  1.00  0.00     0.170 HD
BRANCH   9  13
HETATM   13  C   UNL     1      14.615  59.344  52.600  1.00  0.00     0.167 C 
BRANCH  13  14
HETATM   14  C   UNL     1      14.333  58.611  53.871  1.00  0.00     0.009 A 
HETATM   15  C   UNL     1      13.364  57.647  54.101  1.00  0.00     0.034 A 
HETATM   16  C   UNL     1      12.347  57.039  53.212  1.00  0.00     0.070 C 
HETATM   17  N   UNL     1      13.502  57.275  55.407  1.00  0.00    -0.282 N 
HETATM   18  H   UNL     1      12.958  56.591  55.922  1.00  0.00     0.189 HD
HETATM   19  N   UNL     1      14.487  57.913  56.050  1.00  0.00    -0.179 NA
HETATM   20  C   UNL     1      15.002  58.733  55.125  1.00  0.00     0.060 A 
HETATM   21  C   UNL     1      16.142  59.616  55.474  1.00  0.00     0.073 C 
ENDBRANCH  13  14
ENDBRANCH   9  13
ENDBRANCH   1   7
BRANCH   3  22
HETATM   22  N   UNL     1      16.456  53.134  50.456  1.00  0.00    -0.327 N 
HETATM   23  C   UNL     1      17.093  52.436  49.439  1.00  0.00     0.226 C 
HETATM   24  O   UNL     1      16.586  52.195  48.344  1.00  0.00    -0.273 OA
HETATM   25  H   UNL     1      16.686  52.891  51.409  1.00  0.00     0.169 HD
BRANCH  23  26
HETATM   26  C   UNL     1      18.542  52.067  49.722  1.00  0.00     0.078 C 
HETATM   27  C   UNL     1      18.849  50.627  50.113  1.00  0.00     0.014 C 
HETATM   28  C   UNL     1      20.359  50.553  49.953  1.00  0.00     0.001 C 
HETATM   29  C   UNL     1      20.668  51.410  48.729  1.00  0.00     0.001 C 
HETATM   30  C   UNL     1      19.431  52.276  48.494  1.00  0.00     0.014 C 
ENDBRANCH  23  26
ENDBRANCH   3  22
TORSDOF 5
ENDMDL
MODEL 9
REMARK VINA RESULT:      -7.8      4.625      9.093
REMARK  5 active torsions:
REMARK  status: ('A' for Active; 'I' for Inactive)
REMARK    1  A    between atoms: C_8  and  C_9 
REMARK    2  A    between atoms: C_9  and  N_10 
REMARK       I    between atoms: N_10  and  C_11 
REMARK       I    between atoms: C_11  and  N_12 
REMARK    3  A    between atoms: N_12  and  C_13 
REMARK    4  A    between atoms: C_15  and  N_16 
REMARK       I    between atoms: N_16  and  C_17 
REMARK    5  A    between atoms: C_17  and  C_18 
ROOT
HETATM    1  C   UNL     1      19.557  50.694  47.179  1.00  0.00     0.038 A 
HETATM    2  C   UNL     1      20.779  50.119  47.523  1.00  0.00     0.059 A 
HETATM    3  C   UNL     1      21.385  50.365  48.759  1.00  0.00     0.036 A 
HETATM    4  C   UNL     1      20.813  51.285  49.633  1.00  0.00     0.029 A 
HETATM    5  C   UNL     1      19.603  51.894  49.294  1.00  0.00     0.004 A 
HETATM    6  C   UNL     1      18.976  51.594  48.079  1.00  0.00     0.029 A 
ENDROOT
BRANCH   1   7
HETATM    7  N   UNL     1      18.904  50.479  45.949  1.00  0.00    -0.309 N 
HETATM    8  C   UNL     1      18.093  49.474  45.507  1.00  0.00     0.320 C 
HETATM    9  N   UNL     1      17.485  48.699  46.434  1.00  0.00    -0.338 N 
HETATM   10  O   UNL     1      17.948  49.315  44.298  1.00  0.00    -0.247 OA
HETATM   11  H   UNL     1      17.320  49.088  47.352  1.00  0.00     0.164 HD
HETATM   12  H   UNL     1      19.163  51.097  45.189  1.00  0.00     0.170 HD
BRANCH   9  13
HETATM   13  C   UNL     1      16.851  47.438  46.130  1.00  0.00     0.167 C 
BRANCH  13  14
HETATM   14  C   UNL     1      17.550  46.374  46.912  1.00  0.00     0.009 A 
HETATM   15  C   UNL     1      18.144  46.487  48.159  1.00  0.00     0.034 A 
HETATM   16  C   UNL     1      18.266  47.629  49.095  1.00  0.00     0.070 C 
HETATM   17  N   UNL     1      18.643  45.250  48.453  1.00  0.00    -0.282 N 
HETATM   18  H   UNL     1      19.145  44.962  49.286  1.00  0.00     0.189 HD
HETATM   19  N   UNL     1      18.420  44.337  47.501  1.00  0.00    -0.179 NA
HETATM   20  C   UNL     1      17.755  45.010  46.554  1.00  0.00     0.060 A 
HETATM   21  C   UNL     1      17.322  44.311  45.318  1.00  0.00     0.073 C 
ENDBRANCH  13  14
ENDBRANCH   9  13
ENDBRANCH   1   7
BRANCH   3  22
HETATM   22  N   UNL     1      22.602  49.737  49.094  1.00  0.00    -0.327 N 
HETATM   23  C   UNL     1      23.752  49.853  48.325  1.00  0.00     0.226 C 
HETATM   24  O   UNL     1      23.770  50.264  47.165  1.00  0.00    -0.273 OA
HETATM   25  H   UNL     1      22.567  48.997  49.781  1.00  0.00     0.169 HD
BRANCH  23  26
HETATM   26  C   UNL     1      25.049  49.534  49.055  1.00  0.00     0.078 C 
HETATM   27  C   UNL     1      25.280  48.098  49.507  1.00  0.00     0.014 C 
HETATM   28  C   UNL     1      26.763  48.088  49.841  1.00  0.00     0.001 C 
HETATM   29  C   UNL     1      27.409  48.990  48.793  1.00  0.00     0.001 C 
HETATM   30  C   UNL     1      26.275  49.812  48.183  1.00  0.00     0.014 C 
ENDBRANCH  23  26
ENDBRANCH   3  22
TORSDOF 5
ENDMDL
MODEL 10
REMARK VINA RESULT:      -7.8      1.951      2.862
REMARK  5 active torsions:
REMARK  status: ('A' for Active; 'I' for Inactive)
REMARK    1  A    between atoms: C_8  and  C_9 
REMARK    2  A    between atoms: C_9  and  N_10 
REMARK       I    between atoms: N_10  and  C_11 
REMARK       I    between atoms: C_11  and  N_12 
REMARK    3  A    between atoms: N_12  and  C_13 
REMARK    4  A    between atoms: C_15  and  N_16 
REMARK       I    between atoms: N_16  and  C_17 
REMARK    5  A    between atoms: C_17  and  C_18 
ROOT
HETATM    1  C   UNL     1      26.154  43.820  50.224  1.00  0.00     0.038 A 
HETATM    2  C   UNL     1      25.730  45.140  50.363  1.00  0.00     0.059 A 
HETATM    3  C   UNL     1      24.514  45.581  49.832  1.00  0.00     0.036 A 
HETATM    4  C   UNL     1      23.749  44.715  49.057  1.00  0.00     0.029 A 
HETATM    5  C   UNL     1      24.171  43.395  48.881  1.00  0.00     0.004 A 
HETATM    6  C   UNL     1      25.361  42.949  49.469  1.00  0.00     0.029 A 
ENDROOT
BRANCH   1   7
HETATM    7  N   UNL     1      27.368  43.324  50.740  1.00  0.00    -0.309 N 
HETATM    8  C   UNL     1      27.809  43.133  52.017  1.00  0.00     0.320 C 
HETATM    9  N   UNL     1      26.883  43.049  53.001  1.00  0.00    -0.338 N 
HETATM   10  O   UNL     1      29.017  43.043  52.223  1.00  0.00    -0.247 OA
HETATM   11  H   UNL     1      25.951  42.743  52.757  1.00  0.00     0.164 HD
HETATM   12  H   UNL     1      28.120  43.197  50.074  1.00  0.00     0.170 HD
BRANCH   9  13
HETATM   13  C   UNL     1      27.198  43.146  54.406  1.00  0.00     0.167 C 
BRANCH  13  14
HETATM   14  C   UNL     1      27.742  44.514  54.658  1.00  0.00     0.009 A 
HETATM   15  C   UNL     1      29.012  44.857  55.096  1.00  0.00     0.034 A 
HETATM   16  C   UNL     1      30.198  44.034  55.426  1.00  0.00     0.070 C 
HETATM   17  N   UNL     1      29.031  46.221  55.170  1.00  0.00    -0.282 N 
HETATM   18  H   UNL     1      29.797  46.820  55.456  1.00  0.00     0.189 HD
HETATM   19  N   UNL     1      27.877  46.798  54.812  1.00  0.00    -0.179 NA
HETATM   20  C   UNL     1      27.082  45.767  54.499  1.00  0.00     0.060 A 
HETATM   21  C   UNL     1      25.693  46.020  54.041  1.00  0.00     0.073 C 
ENDBRANCH  13  14
ENDBRANCH   9  13
ENDBRANCH   1   7
BRANCH   3  22
HETATM   22  N   UNL     1      24.094  46.914  50.023  1.00  0.00    -0.327 N 
HETATM   23  C   UNL     1      24.737  48.002  49.448  1.00  0.00     0.226 C 
HETATM   24  O   UNL     1      25.864  47.958  48.958  1.00  0.00    -0.273 OA
HETATM   25  H   UNL     1      23.456  47.093  50.786  1.00  0.00     0.169 HD
BRANCH  23  26
HETATM   26  C   UNL     1      23.899  49.269  49.357  1.00  0.00     0.078 C 
HETATM   27  C   UNL     1      24.185  50.234  48.215  1.00  0.00     0.014 C 
HETATM   28  C   UNL     1      22.965  51.142  48.230  1.00  0.00     0.001 C 
HETATM   29  C   UNL     1      21.797  50.225  48.579  1.00  0.00     0.001 C 
HETATM   30  C   UNL     1      22.413  48.955  49.166  1.00  0.00     0.014 C 
ENDBRANCH  23  26
ENDBRANCH   3  22
TORSDOF 5
ENDMDL
