MODEL 1
REMARK VINA RESULT:     -10.3      0.000      0.000
REMARK  8 active torsions:
REMARK  status: ('A' for Active; 'I' for Inactive)
REMARK    1  A    between atoms: C_4  and  S_5 
REMARK    2  A    between atoms: S_5  and  C_6 
REMARK    3  A    between atoms: C_6  and  C_7 
REMARK       I    between atoms: C_7  and  N_8 
REMARK    4  A    between atoms: N_8  and  C_9 
REMARK    5  A    between atoms: C_11  and  C_12 
REMARK    6  A    between atoms: C_23  and  C_24 
REMARK    7  A    between atoms: C_30  and  C_31 
REMARK       I    between atoms: C_31  and  N_32 
REMARK    8  A    between atoms: N_32  and  C_33 
ROOT
HETATM    1  C   UNL     1      24.026  49.410  48.469  1.00  0.00     0.069 C 
HETATM    2  C   UNL     1      23.702  47.961  48.745  1.00  0.00     0.019 C 
HETATM    3  N   UNL     1      24.751  47.206  49.247  1.00  0.00    -0.353 N 
HETATM    4  C   UNL     1      24.620  45.936  49.778  1.00  0.00     0.087 C 
HETATM    5  C   UNL     1      23.472  45.254  49.564  1.00  0.00     0.055 C 
HETATM    6  C   UNL     1      23.316  43.796  49.966  1.00  0.00     0.019 C 
HETATM    7  N   UNL     1      23.187  42.588  50.298  1.00  0.00    -0.096 N 
HETATM    8  C   UNL     1      22.298  45.893  48.818  1.00  0.00     0.104 C 
HETATM    9  C   UNL     1      22.487  47.389  48.558  1.00  0.00     0.046 C 
HETATM   10  H   UNL     1      25.556  47.725  49.595  1.00  0.00     0.166 HD
ENDROOT
BRANCH   4  11
HETATM   11  S   UNL     1      25.873  45.323  50.835  1.00  0.00    -0.102 SA
BRANCH  11  12
HETATM   12  C   UNL     1      25.088  45.401  52.477  1.00  0.00     0.184 C 
BRANCH  12  13
HETATM   13  C   UNL     1      25.978  44.839  53.594  1.00  0.00     0.231 C 
HETATM   14  N   UNL     1      27.322  45.136  53.481  1.00  0.00    -0.327 N 
HETATM   15  H   UNL     1      27.578  45.641  52.639  1.00  0.00     0.169 HD
HETATM   16  O   UNL     1      25.467  44.189  54.504  1.00  0.00    -0.272 OA
BRANCH  14  17
HETATM   17  C   UNL     1      28.381  44.804  54.347  1.00  0.00     0.035 A 
HETATM   18  C   UNL     1      28.623  45.439  55.567  1.00  0.00     0.045 A 
HETATM   19  C   UNL     1      29.716  45.060  56.368  1.00  0.00     0.050 A 
HETATM   20  C   UNL     1      30.551  44.015  55.942  1.00  0.00     0.016 A 
HETATM   21  C   UNL     1      30.314  43.378  54.727  1.00  0.00     0.003 A 
HETATM   22  C   UNL     1      29.238  43.777  53.933  1.00  0.00     0.029 A 
BRANCH  19  23
HETATM   23  C   UNL     1      29.975  45.740  57.691  1.00  0.00     0.417 C 
HETATM   24  F   UNL     1      28.909  46.440  58.166  1.00  0.00    -0.166 F 
HETATM   25  F   UNL     1      30.314  44.856  58.669  1.00  0.00    -0.166 F 
HETATM   26  F   UNL     1      31.004  46.634  57.627  1.00  0.00    -0.166 F 
ENDBRANCH  19  23
ENDBRANCH  14  17
ENDBRANCH  12  13
ENDBRANCH  11  12
ENDBRANCH   4  11
BRANCH   8  27
HETATM   27  C   UNL     1      21.985  45.100  47.550  1.00  0.00    -0.042 A 
HETATM   28  C   UNL     1      22.975  44.929  46.570  1.00  0.00     0.027 A 
HETATM   29  C   UNL     1      22.665  44.209  45.428  1.00  0.00     0.116 A 
HETATM   30  N   UNL     1      21.459  43.650  45.202  1.00  0.00    -0.273 NA
HETATM   31  C   UNL     1      20.509  43.843  46.141  1.00  0.00     0.116 A 
HETATM   32  C   UNL     1      20.718  44.555  47.312  1.00  0.00     0.027 A 
ENDBRANCH   8  27
BRANCH   9  33
HETATM   33  C   UNL     1      21.282  48.269  48.366  1.00  0.00     0.255 C 
HETATM   34  N   UNL     1      21.032  49.165  49.381  1.00  0.00    -0.323 N 
HETATM   35  H   UNL     1      21.610  49.131  50.209  1.00  0.00     0.169 HD
HETATM   36  O   UNL     1      20.653  48.196  47.314  1.00  0.00    -0.268 OA
BRANCH  34  37
HETATM   37  C   UNL     1      20.051  50.181  49.398  1.00  0.00     0.035 A 
HETATM   38  C   UNL     1      18.842  50.094  50.093  1.00  0.00     0.029 A 
HETATM   39  C   UNL     1      17.916  51.140  50.042  1.00  0.00     0.002 A 
HETATM   40  C   UNL     1      18.184  52.279  49.286  1.00  0.00     0.000 A 
HETATM   41  C   UNL     1      19.385  52.378  48.591  1.00  0.00     0.002 A 
HETATM   42  C   UNL     1      20.318  51.339  48.655  1.00  0.00     0.029 A 
ENDBRANCH  34  37
ENDBRANCH   9  33
TORSDOF 8
ENDMDL
MODEL 2
REMARK VINA RESULT:      -9.7      1.937      2.466
REMARK  8 active torsions:
REMARK  status: ('A' for Active; 'I' for Inactive)
REMARK    1  A    between atoms: C_4  and  S_5 
REMARK    2  A    between atoms: S_5  and  C_6 
REMARK    3  A    between atoms: C_6  and  C_7 
REMARK       I    between atoms: C_7  and  N_8 
REMARK    4  A    between atoms: N_8  and  C_9 
REMARK    5  A    between atoms: C_11  and  C_12 
REMARK    6  A    between atoms: C_23  and  C_24 
REMARK    7  A    between atoms: C_30  and  C_31 
REMARK       I    between atoms: C_31  and  N_32 
REMARK    8  A    between atoms: N_32  and  C_33 
ROOT
HETATM    1  C   UNL     1      23.837  47.660  49.618  1.00  0.00     0.069 C 
HETATM    2  C   UNL     1      23.289  46.458  48.886  1.00  0.00     0.019 C 
HETATM    3  N   UNL     1      24.088  45.325  48.929  1.00  0.00    -0.353 N 
HETATM    4  C   UNL     1      23.684  44.065  48.528  1.00  0.00     0.087 C 
HETATM    5  C   UNL     1      22.552  43.943  47.797  1.00  0.00     0.055 C 
HETATM    6  C   UNL     1      22.134  42.620  47.177  1.00  0.00     0.019 C 
HETATM    7  N   UNL     1      21.787  41.523  46.663  1.00  0.00    -0.096 N 
HETATM    8  C   UNL     1      21.680  45.160  47.480  1.00  0.00     0.104 C 
HETATM    9  C   UNL     1      22.099  46.422  48.237  1.00  0.00     0.046 C 
HETATM   10  H   UNL     1      24.838  45.326  49.618  1.00  0.00     0.166 HD
ENDROOT
BRANCH   4  11
HETATM   11  S   UNL     1      24.558  42.666  49.112  1.00  0.00    -0.102 SA
BRANCH  11  12
HETATM   12  C   UNL     1      24.572  42.923  50.915  1.00  0.00     0.184 C 
BRANCH  12  13
HETATM   13  C   UNL     1      25.910  43.469  51.432  1.00  0.00     0.231 C 
HETATM   14  N   UNL     1      26.262  43.055  52.703  1.00  0.00    -0.327 N 
HETATM   15  H   UNL     1      25.568  42.484  53.174  1.00  0.00     0.169 HD
HETATM   16  O   UNL     1      26.580  44.209  50.714  1.00  0.00    -0.272 OA
BRANCH  14  17
HETATM   17  C   UNL     1      27.426  43.343  53.440  1.00  0.00     0.035 A 
HETATM   18  C   UNL     1      27.626  44.524  54.157  1.00  0.00     0.045 A 
HETATM   19  C   UNL     1      28.828  44.745  54.855  1.00  0.00     0.050 A 
HETATM   20  C   UNL     1      29.820  43.752  54.846  1.00  0.00     0.016 A 
HETATM   21  C   UNL     1      29.625  42.572  54.133  1.00  0.00     0.003 A 
HETATM   22  C   UNL     1      28.437  42.374  53.429  1.00  0.00     0.029 A 
BRANCH  19  23
HETATM   23  C   UNL     1      29.043  46.017  55.638  1.00  0.00     0.417 C 
HETATM   24  F   UNL     1      28.351  46.065  56.809  1.00  0.00    -0.166 F 
HETATM   25  F   UNL     1      30.351  46.211  55.963  1.00  0.00    -0.166 F 
HETATM   26  F   UNL     1      28.667  47.129  54.942  1.00  0.00    -0.166 F 
ENDBRANCH  19  23
ENDBRANCH  14  17
ENDBRANCH  12  13
ENDBRANCH  11  12
ENDBRANCH   4  11
BRANCH   8  27
HETATM   27  C   UNL     1      21.598  45.369  45.968  1.00  0.00    -0.042 A 
HETATM   28  C   UNL     1      20.438  45.917  45.399  1.00  0.00     0.027 A 
HETATM   29  C   UNL     1      20.387  46.093  44.026  1.00  0.00     0.116 A 
HETATM   30  N   UNL     1      21.399  45.773  43.196  1.00  0.00    -0.273 NA
HETATM   31  C   UNL     1      22.499  45.224  43.752  1.00  0.00     0.116 A 
HETATM   32  C   UNL     1      22.643  44.999  45.112  1.00  0.00     0.027 A 
ENDBRANCH   8  27
BRANCH   9  33
HETATM   33  C   UNL     1      21.089  47.506  48.492  1.00  0.00     0.255 C 
HETATM   34  N   UNL     1      21.342  48.711  47.875  1.00  0.00    -0.323 N 
HETATM   35  H   UNL     1      22.204  48.819  47.362  1.00  0.00     0.169 HD
HETATM   36  O   UNL     1      20.087  47.244  49.152  1.00  0.00    -0.268 OA
BRANCH  34  37
HETATM   37  C   UNL     1      20.501  49.846  47.845  1.00  0.00     0.035 A 
HETATM   38  C   UNL     1      20.632  50.943  48.700  1.00  0.00     0.029 A 
HETATM   39  C   UNL     1      19.743  52.019  48.616  1.00  0.00     0.002 A 
HETATM   40  C   UNL     1      18.709  52.005  47.683  1.00  0.00     0.000 A 
HETATM   41  C   UNL     1      18.570  50.919  46.825  1.00  0.00     0.002 A 
HETATM   42  C   UNL     1      19.467  49.849  46.898  1.00  0.00     0.029 A 
ENDBRANCH  34  37
ENDBRANCH   9  33
TORSDOF 8
ENDMDL
MODEL 3
REMARK VINA RESULT:      -9.6      3.233      5.134
REMARK  8 active torsions:
REMARK  status: ('A' for Active; 'I' for Inactive)
REMARK    1  A    between atoms: C_4  and  S_5 
REMARK    2  A    between atoms: S_5  and  C_6 
REMARK    3  A    between atoms: C_6  and  C_7 
REMARK       I    between atoms: C_7  and  N_8 
REMARK    4  A    between atoms: N_8  and  C_9 
REMARK    5  A    between atoms: C_11  and  C_12 
REMARK    6  A    between atoms: C_23  and  C_24 
REMARK    7  A    between atoms: C_30  and  C_31 
REMARK       I    between atoms: C_31  and  N_32 
REMARK    8  A    between atoms: N_32  and  C_33 
ROOT
HETATM    1  C   UNL     1      19.736  44.965  48.024  1.00  0.00     0.069 C 
HETATM    2  C   UNL     1      20.553  46.230  48.126  1.00  0.00     0.019 C 
HETATM    3  N   UNL     1      21.688  46.138  48.919  1.00  0.00    -0.353 N 
HETATM    4  C   UNL     1      22.689  47.091  48.970  1.00  0.00     0.087 C 
HETATM    5  C   UNL     1      22.454  48.314  48.441  1.00  0.00     0.055 C 
HETATM    6  C   UNL     1      23.435  49.463  48.607  1.00  0.00     0.019 C 
HETATM    7  N   UNL     1      24.247  50.416  48.745  1.00  0.00    -0.096 N 
HETATM    8  C   UNL     1      21.138  48.627  47.725  1.00  0.00     0.104 C 
HETATM    9  C   UNL     1      20.263  47.394  47.493  1.00  0.00     0.046 C 
HETATM   10  H   UNL     1      21.990  45.197  49.168  1.00  0.00     0.166 HD
ENDROOT
BRANCH   4  11
HETATM   11  S   UNL     1      24.268  46.634  49.568  1.00  0.00    -0.102 SA
BRANCH  11  12
HETATM   12  C   UNL     1      24.043  44.878  49.998  1.00  0.00     0.184 C 
BRANCH  12  13
HETATM   13  C   UNL     1      24.769  44.480  51.291  1.00  0.00     0.231 C 
HETATM   14  N   UNL     1      25.966  45.131  51.518  1.00  0.00    -0.327 N 
HETATM   15  H   UNL     1      26.260  45.756  50.774  1.00  0.00     0.169 HD
HETATM   16  O   UNL     1      24.262  43.642  52.035  1.00  0.00    -0.272 OA
BRANCH  14  17
HETATM   17  C   UNL     1      26.844  45.020  52.613  1.00  0.00     0.035 A 
HETATM   18  C   UNL     1      27.756  43.976  52.783  1.00  0.00     0.045 A 
HETATM   19  C   UNL     1      28.587  43.928  53.917  1.00  0.00     0.050 A 
HETATM   20  C   UNL     1      28.511  44.956  54.869  1.00  0.00     0.016 A 
HETATM   21  C   UNL     1      27.604  45.999  54.705  1.00  0.00     0.003 A 
HETATM   22  C   UNL     1      26.771  46.025  53.585  1.00  0.00     0.029 A 
BRANCH  19  23
HETATM   23  C   UNL     1      29.579  42.805  54.099  1.00  0.00     0.417 C 
HETATM   24  F   UNL     1      29.046  41.567  53.915  1.00  0.00    -0.166 F 
HETATM   25  F   UNL     1      30.628  42.897  53.236  1.00  0.00    -0.166 F 
HETATM   26  F   UNL     1      30.128  42.788  55.348  1.00  0.00    -0.166 F 
ENDBRANCH  19  23
ENDBRANCH  14  17
ENDBRANCH  12  13
ENDBRANCH  11  12
ENDBRANCH   4  11
BRANCH   8  27
HETATM   27  C   UNL     1      20.402  49.756  48.446  1.00  0.00    -0.042 A 
HETATM   28  C   UNL     1      19.742  49.499  49.658  1.00  0.00     0.027 A 
HETATM   29  C   UNL     1      19.079  50.538  50.290  1.00  0.00     0.116 A 
HETATM   30  N   UNL     1      19.037  51.797  49.810  1.00  0.00    -0.273 NA
HETATM   31  C   UNL     1      19.655  52.026  48.632  1.00  0.00     0.116 A 
HETATM   32  C   UNL     1      20.336  51.052  47.919  1.00  0.00     0.027 A 
ENDBRANCH   8  27
BRANCH   9  33
HETATM   33  C   UNL     1      19.263  47.391  46.371  1.00  0.00     0.255 C 
HETATM   34  N   UNL     1      18.001  47.833  46.699  1.00  0.00    -0.323 N 
HETATM   35  H   UNL     1      17.802  48.056  47.663  1.00  0.00     0.169 HD
HETATM   36  O   UNL     1      19.634  47.079  45.243  1.00  0.00    -0.268 OA
BRANCH  34  37
HETATM   37  C   UNL     1      16.918  48.047  45.818  1.00  0.00     0.035 A 
HETATM   38  C   UNL     1      16.166  47.025  45.233  1.00  0.00     0.029 A 
HETATM   39  C   UNL     1      15.120  47.325  44.355  1.00  0.00     0.002 A 
HETATM   40  C   UNL     1      14.821  48.649  44.045  1.00  0.00     0.000 A 
HETATM   41  C   UNL     1      15.561  49.676  44.624  1.00  0.00     0.002 A 
HETATM   42  C   UNL     1      16.597  49.377  45.513  1.00  0.00     0.029 A 
ENDBRANCH  34  37
ENDBRANCH   9  33
TORSDOF 8
ENDMDL
MODEL 4
REMARK VINA RESULT:      -9.6      6.543     10.882
REMARK  8 active torsions:
REMARK  status: ('A' for Active; 'I' for Inactive)
REMARK    1  A    between atoms: C_4  and  S_5 
REMARK    2  A    between atoms: S_5  and  C_6 
REMARK    3  A    between atoms: C_6  and  C_7 
REMARK       I    between atoms: C_7  and  N_8 
REMARK    4  A    between atoms: N_8  and  C_9 
REMARK    5  A    between atoms: C_11  and  C_12 
REMARK    6  A    between atoms: C_23  and  C_24 
REMARK    7  A    between atoms: C_30  and  C_31 
REMARK       I    between atoms: C_31  and  N_32 
REMARK    8  A    between atoms: N_32  and  C_33 
ROOT
HETATM    1  C   UNL     1      29.048  41.388  51.951  1.00  0.00     0.069 C 
HETATM    2  C   UNL     1      27.734  42.021  51.559  1.00  0.00     0.019 C 
HETATM    3  N   UNL     1      27.169  41.532  50.391  1.00  0.00    -0.353 N 
HETATM    4  C   UNL     1      25.878  41.800  49.972  1.00  0.00     0.087 C 
HETATM    5  C   UNL     1      25.194  42.805  50.565  1.00  0.00     0.055 C 
HETATM    6  C   UNL     1      23.842  43.271  50.050  1.00  0.00     0.019 C 
HETATM    7  N   UNL     1      22.721  43.658  49.623  1.00  0.00    -0.096 N 
HETATM    8  C   UNL     1      25.794  43.588  51.736  1.00  0.00     0.104 C 
HETATM    9  C   UNL     1      27.093  42.982  52.269  1.00  0.00     0.046 C 
HETATM   10  H   UNL     1      27.553  40.659  50.032  1.00  0.00     0.166 HD
ENDROOT
BRANCH   4  11
HETATM   11  S   UNL     1      25.124  40.734  48.807  1.00  0.00    -0.102 SA
BRANCH  11  12
HETATM   12  C   UNL     1      26.504  39.667  48.285  1.00  0.00     0.184 C 
BRANCH  12  13
HETATM   13  C   UNL     1      27.357  40.291  47.173  1.00  0.00     0.231 C 
HETATM   14  N   UNL     1      27.258  39.677  45.939  1.00  0.00    -0.327 N 
HETATM   15  H   UNL     1      26.677  38.845  45.922  1.00  0.00     0.169 HD
HETATM   16  O   UNL     1      28.051  41.275  47.423  1.00  0.00    -0.272 OA
BRANCH  14  17
HETATM   17  C   UNL     1      27.875  40.023  44.722  1.00  0.00     0.035 A 
HETATM   18  C   UNL     1      28.940  39.320  44.157  1.00  0.00     0.045 A 
HETATM   19  C   UNL     1      29.515  39.742  42.943  1.00  0.00     0.050 A 
HETATM   20  C   UNL     1      28.989  40.866  42.289  1.00  0.00     0.016 A 
HETATM   21  C   UNL     1      27.926  41.571  42.848  1.00  0.00     0.003 A 
HETATM   22  C   UNL     1      27.378  41.154  44.061  1.00  0.00     0.029 A 
BRANCH  19  23
HETATM   23  C   UNL     1      30.662  38.979  42.326  1.00  0.00     0.417 C 
HETATM   24  F   UNL     1      30.393  38.495  41.083  1.00  0.00    -0.166 F 
HETATM   25  F   UNL     1      31.783  39.741  42.202  1.00  0.00    -0.166 F 
HETATM   26  F   UNL     1      31.030  37.897  43.070  1.00  0.00    -0.166 F 
ENDBRANCH  19  23
ENDBRANCH  14  17
ENDBRANCH  12  13
ENDBRANCH  11  12
ENDBRANCH   4  11
BRANCH   8  27
HETATM   27  C   UNL     1      25.930  45.064  51.366  1.00  0.00    -0.042 A 
HETATM   28  C   UNL     1      25.432  46.051  52.231  1.00  0.00     0.027 A 
HETATM   29  C   UNL     1      25.564  47.382  51.872  1.00  0.00     0.116 A 
HETATM   30  N   UNL     1      26.156  47.792  50.733  1.00  0.00    -0.273 NA
HETATM   31  C   UNL     1      26.610  46.833  49.898  1.00  0.00     0.116 A 
HETATM   32  C   UNL     1      26.516  45.476  50.163  1.00  0.00     0.027 A 
ENDBRANCH   8  27
BRANCH   9  33
HETATM   33  C   UNL     1      27.510  43.247  53.690  1.00  0.00     0.255 C 
HETATM   34  N   UNL     1      28.618  44.050  53.844  1.00  0.00    -0.323 N 
HETATM   35  H   UNL     1      29.119  44.345  53.019  1.00  0.00     0.169 HD
HETATM   36  O   UNL     1      26.817  42.811  54.605  1.00  0.00    -0.268 OA
BRANCH  34  37
HETATM   37  C   UNL     1      29.143  44.553  55.055  1.00  0.00     0.035 A 
HETATM   38  C   UNL     1      28.546  45.565  55.810  1.00  0.00     0.029 A 
HETATM   39  C   UNL     1      29.143  46.018  56.991  1.00  0.00     0.002 A 
HETATM   40  C   UNL     1      30.348  45.470  57.423  1.00  0.00     0.000 A 
HETATM   41  C   UNL     1      30.951  44.460  56.681  1.00  0.00     0.002 A 
HETATM   42  C   UNL     1      30.347  43.996  55.509  1.00  0.00     0.029 A 
ENDBRANCH  34  37
ENDBRANCH   9  33
TORSDOF 8
ENDMDL
MODEL 5
REMARK VINA RESULT:      -9.5      5.082      9.101
REMARK  8 active torsions:
REMARK  status: ('A' for Active; 'I' for Inactive)
REMARK    1  A    between atoms: C_4  and  S_5 
REMARK    2  A    between atoms: S_5  and  C_6 
REMARK    3  A    between atoms: C_6  and  C_7 
REMARK       I    between atoms: C_7  and  N_8 
REMARK    4  A    between atoms: N_8  and  C_9 
REMARK    5  A    between atoms: C_11  and  C_12 
REMARK    6  A    between atoms: C_23  and  C_24 
REMARK    7  A    between atoms: C_30  and  C_31 
REMARK       I    between atoms: C_31  and  N_32 
REMARK    8  A    between atoms: N_32  and  C_33 
ROOT
HETATM    1  C   UNL     1      26.941  41.337  51.471  1.00  0.00     0.069 C 
HETATM    2  C   UNL     1      26.049  42.441  50.955  1.00  0.00     0.019 C 
HETATM    3  N   UNL     1      25.269  42.106  49.859  1.00  0.00    -0.353 N 
HETATM    4  C   UNL     1      24.229  42.877  49.371  1.00  0.00     0.087 C 
HETATM    5  C   UNL     1      24.113  44.158  49.790  1.00  0.00     0.055 C 
HETATM    6  C   UNL     1      23.106  45.116  49.177  1.00  0.00     0.019 C 
HETATM    7  N   UNL     1      22.271  45.912  48.668  1.00  0.00    -0.096 N 
HETATM    8  C   UNL     1      25.060  44.734  50.846  1.00  0.00     0.104 C 
HETATM    9  C   UNL     1      25.957  43.680  51.497  1.00  0.00     0.046 C 
HETATM   10  H   UNL     1      25.191  41.113  49.644  1.00  0.00     0.166 HD
ENDROOT
BRANCH   4  11
HETATM   11  S   UNL     1      23.015  42.125  48.359  1.00  0.00    -0.102 SA
BRANCH  11  12
HETATM   12  C   UNL     1      23.943  41.728  46.844  1.00  0.00     0.184 C 
BRANCH  12  13
HETATM   13  C   UNL     1      24.744  40.424  46.955  1.00  0.00     0.231 C 
HETATM   14  N   UNL     1      26.111  40.581  47.078  1.00  0.00    -0.327 N 
HETATM   15  H   UNL     1      26.437  41.540  47.021  1.00  0.00     0.169 HD
HETATM   16  O   UNL     1      24.150  39.347  46.941  1.00  0.00    -0.272 OA
BRANCH  14  17
HETATM   17  C   UNL     1      27.108  39.599  47.234  1.00  0.00     0.035 A 
HETATM   18  C   UNL     1      27.792  39.360  48.428  1.00  0.00     0.045 A 
HETATM   19  C   UNL     1      28.789  38.370  48.496  1.00  0.00     0.050 A 
HETATM   20  C   UNL     1      29.075  37.603  47.357  1.00  0.00     0.016 A 
HETATM   21  C   UNL     1      28.396  37.836  46.165  1.00  0.00     0.003 A 
HETATM   22  C   UNL     1      27.423  38.834  46.104  1.00  0.00     0.029 A 
BRANCH  19  23
HETATM   23  C   UNL     1      29.525  38.105  49.788  1.00  0.00     0.417 C 
HETATM   24  F   UNL     1      29.186  36.928  50.381  1.00  0.00    -0.166 F 
HETATM   25  F   UNL     1      30.875  38.067  49.617  1.00  0.00    -0.166 F 
HETATM   26  F   UNL     1      29.298  39.069  50.726  1.00  0.00    -0.166 F 
ENDBRANCH  19  23
ENDBRANCH  14  17
ENDBRANCH  12  13
ENDBRANCH  11  12
ENDBRANCH   4  11
BRANCH   8  27
HETATM   27  C   UNL     1      25.843  45.910  50.264  1.00  0.00    -0.042 A 
HETATM   28  C   UNL     1      27.106  45.695  49.691  1.00  0.00     0.027 A 
HETATM   29  C   UNL     1      27.797  46.778  49.174  1.00  0.00     0.116 A 
HETATM   30  N   UNL     1      27.321  48.039  49.181  1.00  0.00    -0.273 NA
HETATM   31  C   UNL     1      26.117  48.237  49.757  1.00  0.00     0.116 A 
HETATM   32  C   UNL     1      25.353  47.222  50.309  1.00  0.00     0.027 A 
ENDBRANCH   8  27
BRANCH   9  33
HETATM   33  C   UNL     1      26.514  43.924  52.873  1.00  0.00     0.255 C 
HETATM   34  N   UNL     1      27.875  44.128  52.935  1.00  0.00    -0.323 N 
HETATM   35  H   UNL     1      28.417  44.030  52.089  1.00  0.00     0.169 HD
HETATM   36  O   UNL     1      25.741  44.004  53.823  1.00  0.00    -0.268 OA
BRANCH  34  37
HETATM   37  C   UNL     1      28.629  44.498  54.071  1.00  0.00     0.035 A 
HETATM   38  C   UNL     1      28.438  45.680  54.790  1.00  0.00     0.029 A 
HETATM   39  C   UNL     1      29.242  45.978  55.894  1.00  0.00     0.002 A 
HETATM   40  C   UNL     1      30.253  45.103  56.283  1.00  0.00     0.000 A 
HETATM   41  C   UNL     1      30.452  43.922  55.576  1.00  0.00     0.002 A 
HETATM   42  C   UNL     1      29.638  43.615  54.481  1.00  0.00     0.029 A 
ENDBRANCH  34  37
ENDBRANCH   9  33
TORSDOF 8
ENDMDL
MODEL 6
REMARK VINA RESULT:      -9.3      5.232      9.779
REMARK  8 active torsions:
REMARK  status: ('A' for Active; 'I' for Inactive)
REMARK    1  A    between atoms: C_4  and  S_5 
REMARK    2  A    between atoms: S_5  and  C_6 
REMARK    3  A    between atoms: C_6  and  C_7 
REMARK       I    between atoms: C_7  and  N_8 
REMARK    4  A    between atoms: N_8  and  C_9 
REMARK    5  A    between atoms: C_11  and  C_12 
REMARK    6  A    between atoms: C_23  and  C_24 
REMARK    7  A    between atoms: C_30  and  C_31 
REMARK       I    between atoms: C_31  and  N_32 
REMARK    8  A    between atoms: N_32  and  C_33 
ROOT
HETATM    1  C   UNL     1      23.986  42.872  50.931  1.00  0.00     0.069 C 
HETATM    2  C   UNL     1      24.692  42.256  49.746  1.00  0.00     0.019 C 
HETATM    3  N   UNL     1      23.860  41.815  48.728  1.00  0.00    -0.353 N 
HETATM    4  C   UNL     1      24.293  41.433  47.471  1.00  0.00     0.087 C 
HETATM    5  C   UNL     1      25.612  41.206  47.276  1.00  0.00     0.055 C 
HETATM    6  C   UNL     1      26.144  40.622  45.977  1.00  0.00     0.019 C 
HETATM    7  N   UNL     1      26.586  40.138  44.900  1.00  0.00    -0.096 N 
HETATM    8  C   UNL     1      26.630  41.441  48.395  1.00  0.00     0.104 C 
HETATM    9  C   UNL     1      26.036  42.139  49.619  1.00  0.00     0.046 C 
HETATM   10  H   UNL     1      22.895  42.140  48.758  1.00  0.00     0.166 HD
ENDROOT
BRANCH   4  11
HETATM   11  S   UNL     1      23.149  41.413  46.147  1.00  0.00    -0.102 SA
BRANCH  11  12
HETATM   12  C   UNL     1      21.941  42.683  46.639  1.00  0.00     0.184 C 
BRANCH  12  13
HETATM   13  C   UNL     1      22.561  44.081  46.775  1.00  0.00     0.231 C 
HETATM   14  N   UNL     1      22.262  44.746  47.948  1.00  0.00    -0.327 N 
HETATM   15  H   UNL     1      21.616  44.260  48.562  1.00  0.00     0.169 HD
HETATM   16  O   UNL     1      23.275  44.515  45.872  1.00  0.00    -0.272 OA
BRANCH  14  17
HETATM   17  C   UNL     1      22.697  46.011  48.387  1.00  0.00     0.035 A 
HETATM   18  C   UNL     1      22.146  47.220  47.960  1.00  0.00     0.045 A 
HETATM   19  C   UNL     1      22.651  48.446  48.434  1.00  0.00     0.050 A 
HETATM   20  C   UNL     1      23.701  48.441  49.365  1.00  0.00     0.016 A 
HETATM   21  C   UNL     1      24.254  47.238  49.795  1.00  0.00     0.003 A 
HETATM   22  C   UNL     1      23.757  46.031  49.302  1.00  0.00     0.029 A 
BRANCH  19  23
HETATM   23  C   UNL     1      22.052  49.754  47.979  1.00  0.00     0.417 C 
HETATM   24  F   UNL     1      21.740  50.599  48.999  1.00  0.00    -0.166 F 
HETATM   25  F   UNL     1      22.887  50.447  47.157  1.00  0.00    -0.166 F 
HETATM   26  F   UNL     1      20.897  49.584  47.275  1.00  0.00    -0.166 F 
ENDBRANCH  19  23
ENDBRANCH  14  17
ENDBRANCH  12  13
ENDBRANCH  11  12
ENDBRANCH   4  11
BRANCH   8  27
HETATM   27  C   UNL     1      27.344  40.134  48.739  1.00  0.00    -0.042 A 
HETATM   28  C   UNL     1      28.736  40.035  48.584  1.00  0.00     0.027 A 
HETATM   29  C   UNL     1      29.359  38.839  48.899  1.00  0.00     0.116 A 
HETATM   30  N   UNL     1      28.703  37.755  49.359  1.00  0.00    -0.273 NA
HETATM   31  C   UNL     1      27.363  37.855  49.481  1.00  0.00     0.116 A 
HETATM   32  C   UNL     1      26.647  39.003  49.182  1.00  0.00     0.027 A 
ENDBRANCH   8  27
BRANCH   9  33
HETATM   33  C   UNL     1      26.932  42.928  50.534  1.00  0.00     0.255 C 
HETATM   34  N   UNL     1      27.210  42.339  51.747  1.00  0.00    -0.323 N 
HETATM   35  H   UNL     1      26.750  41.472  51.979  1.00  0.00     0.169 HD
HETATM   36  O   UNL     1      27.414  43.984  50.130  1.00  0.00    -0.268 OA
BRANCH  34  37
HETATM   37  C   UNL     1      28.113  42.801  52.730  1.00  0.00     0.035 A 
HETATM   38  C   UNL     1      27.774  43.690  53.753  1.00  0.00     0.029 A 
HETATM   39  C   UNL     1      28.735  44.112  54.677  1.00  0.00     0.002 A 
HETATM   40  C   UNL     1      30.048  43.657  54.581  1.00  0.00     0.000 A 
HETATM   41  C   UNL     1      30.397  42.769  53.568  1.00  0.00     0.002 A 
HETATM   42  C   UNL     1      29.433  42.336  52.653  1.00  0.00     0.029 A 
ENDBRANCH  34  37
ENDBRANCH   9  33
TORSDOF 8
ENDMDL
MODEL 7
REMARK VINA RESULT:      -9.3      4.748     10.466
REMARK  8 active torsions:
REMARK  status: ('A' for Active; 'I' for Inactive)
REMARK    1  A    between atoms: C_4  and  S_5 
REMARK    2  A    between atoms: S_5  and  C_6 
REMARK    3  A    between atoms: C_6  and  C_7 
REMARK       I    between atoms: C_7  and  N_8 
REMARK    4  A    between atoms: N_8  and  C_9 
REMARK    5  A    between atoms: C_11  and  C_12 
REMARK    6  A    between atoms: C_23  and  C_24 
REMARK    7  A    between atoms: C_30  and  C_31 
REMARK       I    between atoms: C_31  and  N_32 
REMARK    8  A    between atoms: N_32  and  C_33 
ROOT
HETATM    1  C   UNL     1      28.407  41.085  51.037  1.00  0.00     0.069 C 
HETATM    2  C   UNL     1      27.132  41.884  50.914  1.00  0.00     0.019 C 
HETATM    3  N   UNL     1      26.339  41.567  49.821  1.00  0.00    -0.353 N 
HETATM    4  C   UNL     1      25.040  42.005  49.640  1.00  0.00     0.087 C 
HETATM    5  C   UNL     1      24.578  43.015  50.412  1.00  0.00     0.055 C 
HETATM    6  C   UNL     1      23.226  43.664  50.162  1.00  0.00     0.019 C 
HETATM    7  N   UNL     1      22.106  44.204  49.956  1.00  0.00    -0.096 N 
HETATM    8  C   UNL     1      25.438  43.619  51.525  1.00  0.00     0.104 C 
HETATM    9  C   UNL     1      26.725  42.835  51.791  1.00  0.00     0.046 C 
HETATM   10  H   UNL     1      26.560  40.697  49.338  1.00  0.00     0.166 HD
ENDROOT
BRANCH   4  11
HETATM   11  S   UNL     1      23.995  41.136  48.537  1.00  0.00    -0.102 SA
BRANCH  11  12
HETATM   12  C   UNL     1      24.017  42.187  47.050  1.00  0.00     0.184 C 
BRANCH  12  13
HETATM   13  C   UNL     1      22.689  42.920  46.813  1.00  0.00     0.231 C 
HETATM   14  N   UNL     1      22.808  44.242  46.431  1.00  0.00    -0.327 N 
HETATM   15  H   UNL     1      23.758  44.597  46.408  1.00  0.00     0.169 HD
HETATM   16  O   UNL     1      21.630  42.313  46.959  1.00  0.00    -0.272 OA
BRANCH  14  17
HETATM   17  C   UNL     1      21.796  45.167  46.107  1.00  0.00     0.035 A 
HETATM   18  C   UNL     1      21.322  46.147  46.981  1.00  0.00     0.045 A 
HETATM   19  C   UNL     1      20.294  47.023  46.587  1.00  0.00     0.050 A 
HETATM   20  C   UNL     1      19.763  46.920  45.293  1.00  0.00     0.016 A 
HETATM   21  C   UNL     1      20.232  45.945  44.417  1.00  0.00     0.003 A 
HETATM   22  C   UNL     1      21.238  45.070  44.826  1.00  0.00     0.029 A 
BRANCH  19  23
HETATM   23  C   UNL     1      19.786  48.089  47.528  1.00  0.00     0.417 C 
HETATM   24  F   UNL     1      18.742  48.808  47.031  1.00  0.00    -0.166 F 
HETATM   25  F   UNL     1      19.359  47.572  48.713  1.00  0.00    -0.166 F 
HETATM   26  F   UNL     1      20.745  49.005  47.848  1.00  0.00    -0.166 F 
ENDBRANCH  19  23
ENDBRANCH  14  17
ENDBRANCH  12  13
ENDBRANCH  11  12
ENDBRANCH   4  11
BRANCH   8  27
HETATM   27  C   UNL     1      25.687  45.102  51.252  1.00  0.00    -0.042 A 
HETATM   28  C   UNL     1      26.276  45.502  50.042  1.00  0.00     0.027 A 
HETATM   29  C   UNL     1      26.494  46.851  49.820  1.00  0.00     0.116 A 
HETATM   30  N   UNL     1      26.164  47.815  50.703  1.00  0.00    -0.273 NA
HETATM   31  C   UNL     1      25.620  47.416  51.872  1.00  0.00     0.116 A 
HETATM   32  C   UNL     1      25.371  46.091  52.192  1.00  0.00     0.027 A 
ENDBRANCH   8  27
BRANCH   9  33
HETATM   33  C   UNL     1      27.384  42.921  53.140  1.00  0.00     0.255 C 
HETATM   34  N   UNL     1      28.405  43.838  53.244  1.00  0.00    -0.323 N 
HETATM   35  H   UNL     1      28.697  44.333  52.414  1.00  0.00     0.169 HD
HETATM   36  O   UNL     1      26.938  42.247  54.065  1.00  0.00    -0.268 OA
BRANCH  34  37
HETATM   37  C   UNL     1      29.102  44.207  54.417  1.00  0.00     0.035 A 
HETATM   38  C   UNL     1      28.803  45.333  55.187  1.00  0.00     0.029 A 
HETATM   39  C   UNL     1      29.556  45.636  56.326  1.00  0.00     0.002 A 
HETATM   40  C   UNL     1      30.622  44.821  56.699  1.00  0.00     0.000 A 
HETATM   41  C   UNL     1      30.928  43.695  55.941  1.00  0.00     0.002 A 
HETATM   42  C   UNL     1      30.166  43.384  54.812  1.00  0.00     0.029 A 
ENDBRANCH  34  37
ENDBRANCH   9  33
TORSDOF 8
ENDMDL
MODEL 8
REMARK VINA RESULT:      -9.2      7.354     11.681
REMARK  8 active torsions:
REMARK  status: ('A' for Active; 'I' for Inactive)
REMARK    1  A    between atoms: C_4  and  S_5 
REMARK    2  A    between atoms: S_5  and  C_6 
REMARK    3  A    between atoms: C_6  and  C_7 
REMARK       I    between atoms: C_7  and  N_8 
REMARK    4  A    between atoms: N_8  and  C_9 
REMARK    5  A    between atoms: C_11  and  C_12 
REMARK    6  A    between atoms: C_23  and  C_24 
REMARK    7  A    between atoms: C_30  and  C_31 
REMARK       I    between atoms: C_31  and  N_32 
REMARK    8  A    between atoms: N_32  and  C_33 
ROOT
HETATM    1  C   UNL     1      23.985  42.859  50.675  1.00  0.00     0.069 C 
HETATM    2  C   UNL     1      24.733  42.200  49.541  1.00  0.00     0.019 C 
HETATM    3  N   UNL     1      23.939  41.726  48.507  1.00  0.00    -0.353 N 
HETATM    4  C   UNL     1      24.419  41.298  47.282  1.00  0.00     0.087 C 
HETATM    5  C   UNL     1      25.743  41.060  47.146  1.00  0.00     0.055 C 
HETATM    6  C   UNL     1      26.322  40.429  45.890  1.00  0.00     0.019 C 
HETATM    7  N   UNL     1      26.803  39.906  44.849  1.00  0.00    -0.096 N 
HETATM    8  C   UNL     1      26.718  41.330  48.295  1.00  0.00     0.104 C 
HETATM    9  C   UNL     1      26.081  42.074  49.470  1.00  0.00     0.046 C 
HETATM   10  H   UNL     1      22.975  42.055  48.488  1.00  0.00     0.166 HD
ENDROOT
BRANCH   4  11
HETATM   11  S   UNL     1      23.326  41.236  45.916  1.00  0.00    -0.102 SA
BRANCH  11  12
HETATM   12  C   UNL     1      22.879  39.472  45.839  1.00  0.00     0.184 C 
BRANCH  12  13
HETATM   13  C   UNL     1      21.686  39.117  46.737  1.00  0.00     0.231 C 
HETATM   14  N   UNL     1      21.075  37.910  46.453  1.00  0.00    -0.327 N 
HETATM   15  H   UNL     1      21.447  37.423  45.644  1.00  0.00     0.169 HD
HETATM   16  O   UNL     1      21.354  39.888  47.635  1.00  0.00    -0.272 OA
BRANCH  14  17
HETATM   17  C   UNL     1      19.993  37.288  47.104  1.00  0.00     0.035 A 
HETATM   18  C   UNL     1      20.110  36.149  47.903  1.00  0.00     0.045 A 
HETATM   19  C   UNL     1      18.975  35.576  48.506  1.00  0.00     0.050 A 
HETATM   20  C   UNL     1      17.721  36.176  48.317  1.00  0.00     0.016 A 
HETATM   21  C   UNL     1      17.598  37.311  47.522  1.00  0.00     0.003 A 
HETATM   22  C   UNL     1      18.728  37.858  46.914  1.00  0.00     0.029 A 
BRANCH  19  23
HETATM   23  C   UNL     1      19.101  34.350  49.377  1.00  0.00     0.417 C 
HETATM   24  F   UNL     1      18.930  34.599  50.704  1.00  0.00    -0.166 F 
HETATM   25  F   UNL     1      18.193  33.389  49.053  1.00  0.00    -0.166 F 
HETATM   26  F   UNL     1      20.323  33.754  49.269  1.00  0.00    -0.166 F 
ENDBRANCH  19  23
ENDBRANCH  14  17
ENDBRANCH  12  13
ENDBRANCH  11  12
ENDBRANCH   4  11
BRANCH   8  27
HETATM   27  C   UNL     1      27.412  40.035  48.712  1.00  0.00    -0.042 A 
HETATM   28  C   UNL     1      28.807  39.922  48.606  1.00  0.00     0.027 A 
HETATM   29  C   UNL     1      29.412  38.735  48.987  1.00  0.00     0.116 A 
HETATM   30  N   UNL     1      28.734  37.674  49.467  1.00  0.00    -0.273 NA
HETATM   31  C   UNL     1      27.391  37.786  49.542  1.00  0.00     0.116 A 
HETATM   32  C   UNL     1      26.693  38.926  49.177  1.00  0.00     0.027 A 
ENDBRANCH   8  27
BRANCH   9  33
HETATM   33  C   UNL     1      26.945  42.892  50.390  1.00  0.00     0.255 C 
HETATM   34  N   UNL     1      27.249  42.304  51.598  1.00  0.00    -0.323 N 
HETATM   35  H   UNL     1      26.826  41.416  51.823  1.00  0.00     0.169 HD
HETATM   36  O   UNL     1      27.381  43.970  49.996  1.00  0.00    -0.268 OA
BRANCH  34  37
HETATM   37  C   UNL     1      28.133  42.795  52.584  1.00  0.00     0.035 A 
HETATM   38  C   UNL     1      29.483  42.446  52.672  1.00  0.00     0.029 A 
HETATM   39  C   UNL     1      30.286  42.964  53.693  1.00  0.00     0.002 A 
HETATM   40  C   UNL     1      29.745  43.827  54.642  1.00  0.00     0.000 A 
HETATM   41  C   UNL     1      28.402  44.184  54.564  1.00  0.00     0.002 A 
HETATM   42  C   UNL     1      27.603  43.678  53.534  1.00  0.00     0.029 A 
ENDBRANCH  34  37
ENDBRANCH   9  33
TORSDOF 8
ENDMDL
MODEL 9
REMARK VINA RESULT:      -9.2      2.798      5.655
REMARK  8 active torsions:
REMARK  status: ('A' for Active; 'I' for Inactive)
REMARK    1  A    between atoms: C_4  and  S_5 
REMARK    2  A    between atoms: S_5  and  C_6 
REMARK    3  A    between atoms: C_6  and  C_7 
REMARK       I    between atoms: C_7  and  N_8 
REMARK    4  A    between atoms: N_8  and  C_9 
REMARK    5  A    between atoms: C_11  and  C_12 
REMARK    6  A    between atoms: C_23  and  C_24 
REMARK    7  A    between atoms: C_30  and  C_31 
REMARK       I    between atoms: C_31  and  N_32 
REMARK    8  A    between atoms: N_32  and  C_33 
ROOT
HETATM    1  C   UNL     1      20.283  45.150  48.595  1.00  0.00     0.069 C 
HETATM    2  C   UNL     1      20.892  46.528  48.495  1.00  0.00     0.019 C 
HETATM    3  N   UNL     1      22.078  46.701  49.192  1.00  0.00    -0.353 N 
HETATM    4  C   UNL     1      22.915  47.794  49.058  1.00  0.00     0.087 C 
HETATM    5  C   UNL     1      22.452  48.898  48.428  1.00  0.00     0.055 C 
HETATM    6  C   UNL     1      23.245  50.194  48.389  1.00  0.00     0.019 C 
HETATM    7  N   UNL     1      23.902  51.269  48.357  1.00  0.00    -0.096 N 
HETATM    8  C   UNL     1      21.057  48.923  47.798  1.00  0.00     0.104 C 
HETATM    9  C   UNL     1      20.377  47.553  47.772  1.00  0.00     0.046 C 
HETATM   10  H   UNL     1      22.544  45.853  49.511  1.00  0.00     0.166 HD
ENDROOT
BRANCH   4  11
HETATM   11  S   UNL     1      24.585  47.654  49.564  1.00  0.00    -0.102 SA
BRANCH  11  12
HETATM   12  C   UNL     1      24.622  46.029  50.383  1.00  0.00     0.184 C 
BRANCH  12  13
HETATM   13  C   UNL     1      25.959  45.740  51.081  1.00  0.00     0.231 C 
HETATM   14  N   UNL     1      25.932  45.824  52.459  1.00  0.00    -0.327 N 
HETATM   15  H   UNL     1      25.047  46.127  52.852  1.00  0.00     0.169 HD
HETATM   16  O   UNL     1      26.943  45.448  50.404  1.00  0.00    -0.272 OA
BRANCH  14  17
HETATM   17  C   UNL     1      26.968  45.586  53.384  1.00  0.00     0.035 A 
HETATM   18  C   UNL     1      27.754  44.433  53.398  1.00  0.00     0.045 A 
HETATM   19  C   UNL     1      28.759  44.262  54.369  1.00  0.00     0.050 A 
HETATM   20  C   UNL     1      28.983  45.277  55.311  1.00  0.00     0.016 A 
HETATM   21  C   UNL     1      28.202  46.429  55.301  1.00  0.00     0.003 A 
HETATM   22  C   UNL     1      27.196  46.578  54.346  1.00  0.00     0.029 A 
BRANCH  19  23
HETATM   23  C   UNL     1      29.616  43.020  54.381  1.00  0.00     0.417 C 
HETATM   24  F   UNL     1      30.570  43.001  53.411  1.00  0.00    -0.166 F 
HETATM   25  F   UNL     1      30.273  42.856  55.562  1.00  0.00    -0.166 F 
HETATM   26  F   UNL     1      28.887  41.880  54.203  1.00  0.00    -0.166 F 
ENDBRANCH  19  23
ENDBRANCH  14  17
ENDBRANCH  12  13
ENDBRANCH  11  12
ENDBRANCH   4  11
BRANCH   8  27
HETATM   27  C   UNL     1      20.201  50.003  48.458  1.00  0.00    -0.042 A 
HETATM   28  C   UNL     1      19.638  49.774  49.723  1.00  0.00     0.027 A 
HETATM   29  C   UNL     1      18.863  50.767  50.299  1.00  0.00     0.116 A 
HETATM   30  N   UNL     1      18.621  51.957  49.714  1.00  0.00    -0.273 NA
HETATM   31  C   UNL     1      19.148  52.156  48.488  1.00  0.00     0.116 A 
HETATM   32  C   UNL     1      19.928  51.222  47.825  1.00  0.00     0.027 A 
ENDBRANCH   8  27
BRANCH   9  33
HETATM   33  C   UNL     1      19.315  47.268  46.745  1.00  0.00     0.255 C 
HETATM   34  N   UNL     1      19.764  46.730  45.560  1.00  0.00    -0.323 N 
HETATM   35  H   UNL     1      20.759  46.630  45.421  1.00  0.00     0.169 HD
HETATM   36  O   UNL     1      18.138  47.452  47.040  1.00  0.00    -0.268 OA
BRANCH  34  37
HETATM   37  C   UNL     1      18.976  46.258  44.487  1.00  0.00     0.035 A 
HETATM   38  C   UNL     1      18.583  47.038  43.398  1.00  0.00     0.029 A 
HETATM   39  C   UNL     1      17.785  46.496  42.385  1.00  0.00     0.002 A 
HETATM   40  C   UNL     1      17.364  45.171  42.457  1.00  0.00     0.000 A 
HETATM   41  C   UNL     1      17.751  44.382  43.537  1.00  0.00     0.002 A 
HETATM   42  C   UNL     1      18.561  44.920  44.541  1.00  0.00     0.029 A 
ENDBRANCH  34  37
ENDBRANCH   9  33
TORSDOF 8
ENDMDL
MODEL 10
REMARK VINA RESULT:      -9.2      4.645      9.282
REMARK  8 active torsions:
REMARK  status: ('A' for Active; 'I' for Inactive)
REMARK    1  A    between atoms: C_4  and  S_5 
REMARK    2  A    between atoms: S_5  and  C_6 
REMARK    3  A    between atoms: C_6  and  C_7 
REMARK       I    between atoms: C_7  and  N_8 
REMARK    4  A    between atoms: N_8  and  C_9 
REMARK    5  A    between atoms: C_11  and  C_12 
REMARK    6  A    between atoms: C_23  and  C_24 
REMARK    7  A    between atoms: C_30  and  C_31 
REMARK       I    between atoms: C_31  and  N_32 
REMARK    8  A    between atoms: N_32  and  C_33 
ROOT
HETATM    1  C   UNL     1      23.907  42.253  50.598  1.00  0.00     0.069 C 
HETATM    2  C   UNL     1      24.690  41.568  49.503  1.00  0.00     0.019 C 
HETATM    3  N   UNL     1      23.923  40.957  48.522  1.00  0.00    -0.353 N 
HETATM    4  C   UNL     1      24.420  40.476  47.325  1.00  0.00     0.087 C 
HETATM    5  C   UNL     1      25.757  40.329  47.184  1.00  0.00     0.055 C 
HETATM    6  C   UNL     1      26.368  39.651  45.969  1.00  0.00     0.019 C 
HETATM    7  N   UNL     1      26.875  39.088  44.961  1.00  0.00    -0.096 N 
HETATM    8  C   UNL     1      26.722  40.760  48.291  1.00  0.00     0.104 C 
HETATM    9  C   UNL     1      26.043  41.540  49.419  1.00  0.00     0.046 C 
HETATM   10  H   UNL     1      22.936  41.210  48.496  1.00  0.00     0.166 HD
ENDROOT
BRANCH   4  11
HETATM   11  S   UNL     1      23.319  40.226  45.987  1.00  0.00    -0.102 SA
BRANCH  11  12
HETATM   12  C   UNL     1      22.982  41.924  45.421  1.00  0.00     0.184 C 
BRANCH  12  13
HETATM   13  C   UNL     1      22.635  42.881  46.570  1.00  0.00     0.231 C 
HETATM   14  N   UNL     1      23.504  43.943  46.734  1.00  0.00    -0.327 N 
HETATM   15  H   UNL     1      24.308  43.937  46.114  1.00  0.00     0.169 HD
HETATM   16  O   UNL     1      21.635  42.669  47.252  1.00  0.00    -0.272 OA
BRANCH  14  17
HETATM   17  C   UNL     1      23.448  45.002  47.659  1.00  0.00     0.035 A 
HETATM   18  C   UNL     1      24.263  45.100  48.788  1.00  0.00     0.045 A 
HETATM   19  C   UNL     1      24.132  46.185  49.676  1.00  0.00     0.050 A 
HETATM   20  C   UNL     1      23.186  47.185  49.403  1.00  0.00     0.016 A 
HETATM   21  C   UNL     1      22.371  47.092  48.279  1.00  0.00     0.003 A 
HETATM   22  C   UNL     1      22.498  46.003  47.417  1.00  0.00     0.029 A 
BRANCH  19  23
HETATM   23  C   UNL     1      25.018  46.297  50.892  1.00  0.00     0.417 C 
HETATM   24  F   UNL     1      24.891  45.257  51.762  1.00  0.00    -0.166 F 
HETATM   25  F   UNL     1      26.338  46.358  50.567  1.00  0.00    -0.166 F 
HETATM   26  F   UNL     1      24.764  47.420  51.623  1.00  0.00    -0.166 F 
ENDBRANCH  19  23
ENDBRANCH  14  17
ENDBRANCH  12  13
ENDBRANCH  11  12
ENDBRANCH   4  11
BRANCH   8  27
HETATM   27  C   UNL     1      27.519  39.556  48.792  1.00  0.00    -0.042 A 
HETATM   28  C   UNL     1      28.921  39.568  48.725  1.00  0.00     0.027 A 
HETATM   29  C   UNL     1      29.620  38.463  49.182  1.00  0.00     0.116 A 
HETATM   30  N   UNL     1      29.028  37.368  49.701  1.00  0.00    -0.273 NA
HETATM   31  C   UNL     1      27.679  37.359  49.738  1.00  0.00     0.116 A 
HETATM   32  C   UNL     1      26.891  38.410  49.297  1.00  0.00     0.027 A 
ENDBRANCH   8  27
BRANCH   9  33
HETATM   33  C   UNL     1      26.852  42.489  50.260  1.00  0.00     0.255 C 
HETATM   34  N   UNL     1      27.156  42.047  51.528  1.00  0.00    -0.323 N 
HETATM   35  H   UNL     1      26.766  41.170  51.841  1.00  0.00     0.169 HD
HETATM   36  O   UNL     1      27.250  43.537  49.759  1.00  0.00    -0.268 OA
BRANCH  34  37
HETATM   37  C   UNL     1      27.998  42.679  52.470  1.00  0.00     0.035 A 
HETATM   38  C   UNL     1      29.354  42.388  52.631  1.00  0.00     0.029 A 
HETATM   39  C   UNL     1      30.113  43.048  53.602  1.00  0.00     0.002 A 
HETATM   40  C   UNL     1      29.521  43.999  54.429  1.00  0.00     0.000 A 
HETATM   41  C   UNL     1      28.171  44.300  54.277  1.00  0.00     0.002 A 
HETATM   42  C   UNL     1      27.416  43.651  53.295  1.00  0.00     0.029 A 
ENDBRANCH  34  37
ENDBRANCH   9  33
TORSDOF 8
ENDMDL
