MODEL 1
REMARK VINA RESULT:      -7.8      0.000      0.000
REMARK  4 active torsions:
REMARK  status: ('A' for Active; 'I' for Inactive)
REMARK    1  A    between atoms: O_2  and  C_3 
REMARK    2  A    between atoms: C_4  and  O_5 
REMARK    3  A    between atoms: C_9  and  N_10 
REMARK    4  A    between atoms: N_10  and  C_11 
ROOT
HETATM    1  C   UNL     1      29.183  44.733  55.001  1.00  0.00     0.102 A 
HETATM    2  C   UNL     1      28.251  45.775  55.142  1.00  0.00     0.118 A 
HETATM    3  C   UNL     1      27.233  45.837  54.195  1.00  0.00     0.086 A 
HETATM    4  C   UNL     1      27.140  44.925  53.149  1.00  0.00     0.010 A 
HETATM    5  C   UNL     1      25.987  45.265  52.286  1.00  0.00     0.267 C 
HETATM    6  O   UNL     1      25.383  46.371  52.966  1.00  0.00    -0.287 OA
HETATM    7  C   UNL     1      26.145  46.799  54.020  1.00  0.00     0.299 C 
HETATM    8  O   UNL     1      25.891  47.817  54.624  1.00  0.00    -0.259 OA
HETATM    9  C   UNL     1      28.061  43.900  53.006  1.00  0.00     0.015 A 
HETATM   10  C   UNL     1      29.092  43.816  53.939  1.00  0.00     0.040 A 
ENDROOT
BRANCH   5  11
HETATM   11  N   UNL     1      26.423  45.680  50.964  1.00  0.00    -0.346 N 
HETATM   12  H   UNL     1      26.602  44.872  50.368  1.00  0.00     0.164 HD
BRANCH  11  13
HETATM   13  C   UNL     1      25.813  46.721  50.274  1.00  0.00     0.102 A 
HETATM   14  N   UNL     1      24.474  46.858  50.231  1.00  0.00    -0.351 N 
HETATM   15  H   UNL     1      23.911  46.151  50.709  1.00  0.00     0.166 HD
HETATM   16  C   UNL     1      23.844  47.889  49.650  1.00  0.00     0.109 A 
HETATM   17  C   UNL     1      24.582  48.907  49.067  1.00  0.00     0.026 A 
HETATM   18 BR   UNL     1      23.708  50.361  48.248  1.00  0.00    -0.050 Br
HETATM   19  C   UNL     1      25.966  48.850  49.113  1.00  0.00     0.024 A 
HETATM   20  C   UNL     1      26.583  47.761  49.733  1.00  0.00     0.050 A 
ENDBRANCH  11  13
ENDBRANCH   5  11
BRANCH   2  21
HETATM   21  O   UNL     1      28.494  46.723  56.091  1.00  0.00    -0.352 OA
HETATM   22  C   UNL     1      28.304  46.324  57.446  1.00  0.00     0.210 C 
ENDBRANCH   2  21
BRANCH   1  23
HETATM   23  O   UNL     1      30.275  44.556  55.812  1.00  0.00    -0.353 OA
HETATM   24  C   UNL     1      30.789  43.225  55.797  1.00  0.00     0.210 C 
ENDBRANCH   1  23
TORSDOF 4
ENDMDL
MODEL 2
REMARK VINA RESULT:      -7.6      4.437      5.579
REMARK  4 active torsions:
REMARK  status: ('A' for Active; 'I' for Inactive)
REMARK    1  A    between atoms: O_2  and  C_3 
REMARK    2  A    between atoms: C_4  and  O_5 
REMARK    3  A    between atoms: C_9  and  N_10 
REMARK    4  A    between atoms: N_10  and  C_11 
ROOT
HETATM    1  C   UNL     1      29.764  45.177  55.948  1.00  0.00     0.102 A 
HETATM    2  C   UNL     1      28.441  45.447  55.555  1.00  0.00     0.118 A 
HETATM    3  C   UNL     1      27.822  44.498  54.748  1.00  0.00     0.086 A 
HETATM    4  C   UNL     1      28.473  43.341  54.334  1.00  0.00     0.010 A 
HETATM    5  C   UNL     1      27.582  42.548  53.458  1.00  0.00     0.267 C 
HETATM    6  O   UNL     1      26.357  43.288  53.480  1.00  0.00    -0.287 OA
HETATM    7  C   UNL     1      26.496  44.485  54.131  1.00  0.00     0.299 C 
HETATM    8  O   UNL     1      25.624  45.324  54.124  1.00  0.00    -0.259 OA
HETATM    9  C   UNL     1      29.778  43.075  54.718  1.00  0.00     0.015 A 
HETATM   10  C   UNL     1      30.423  44.010  55.524  1.00  0.00     0.040 A 
ENDROOT
BRANCH   5  11
HETATM   11  N   UNL     1      28.095  42.489  52.100  1.00  0.00    -0.346 N 
HETATM   12  H   UNL     1      29.065  42.803  52.062  1.00  0.00     0.164 HD
BRANCH  11  13
HETATM   13  C   UNL     1      27.858  41.406  51.263  1.00  0.00     0.102 A 
HETATM   14  N   UNL     1      28.819  40.509  50.971  1.00  0.00    -0.351 N 
HETATM   15  H   UNL     1      29.748  40.664  51.370  1.00  0.00     0.166 HD
HETATM   16  C   UNL     1      28.617  39.404  50.238  1.00  0.00     0.109 A 
HETATM   17  C   UNL     1      27.349  39.122  49.753  1.00  0.00     0.026 A 
HETATM   18 BR   UNL     1      27.052  37.574  48.722  1.00  0.00    -0.050 Br
HETATM   19  C   UNL     1      26.304  39.982  50.054  1.00  0.00     0.024 A 
HETATM   20  C   UNL     1      26.557  41.119  50.825  1.00  0.00     0.050 A 
ENDBRANCH  11  13
ENDBRANCH   5  11
BRANCH   2  21
HETATM   21  O   UNL     1      27.923  46.670  55.863  1.00  0.00    -0.352 OA
HETATM   22  C   UNL     1      28.021  47.671  54.852  1.00  0.00     0.210 C 
ENDBRANCH   2  21
BRANCH   1  23
HETATM   23  O   UNL     1      30.537  46.026  56.697  1.00  0.00    -0.353 OA
HETATM   24  C   UNL     1      30.495  45.753  58.097  1.00  0.00     0.210 C 
ENDBRANCH   1  23
TORSDOF 4
ENDMDL
MODEL 3
REMARK VINA RESULT:      -7.4      2.257      3.694
REMARK  4 active torsions:
REMARK  status: ('A' for Active; 'I' for Inactive)
REMARK    1  A    between atoms: O_2  and  C_3 
REMARK    2  A    between atoms: C_4  and  O_5 
REMARK    3  A    between atoms: C_9  and  N_10 
REMARK    4  A    between atoms: N_10  and  C_11 
ROOT
HETATM    1  C   UNL     1      26.937  45.374  53.714  1.00  0.00     0.102 A 
HETATM    2  C   UNL     1      27.208  44.603  52.570  1.00  0.00     0.118 A 
HETATM    3  C   UNL     1      26.725  45.089  51.359  1.00  0.00     0.086 A 
HETATM    4  C   UNL     1      25.997  46.272  51.274  1.00  0.00     0.010 A 
HETATM    5  C   UNL     1      25.586  46.509  49.873  1.00  0.00     0.267 C 
HETATM    6  O   UNL     1      26.206  45.434  49.161  1.00  0.00    -0.287 OA
HETATM    7  C   UNL     1      26.785  44.528  50.010  1.00  0.00     0.299 C 
HETATM    8  O   UNL     1      27.223  43.470  49.618  1.00  0.00    -0.259 OA
HETATM    9  C   UNL     1      25.726  47.030  52.402  1.00  0.00     0.015 A 
HETATM   10  C   UNL     1      26.196  46.565  53.628  1.00  0.00     0.040 A 
ENDROOT
BRANCH   5  11
HETATM   11  N   UNL     1      24.143  46.427  49.727  1.00  0.00    -0.346 N 
HETATM   12  H   UNL     1      23.727  45.901  50.496  1.00  0.00     0.164 HD
BRANCH  11  13
HETATM   13  C   UNL     1      23.370  47.521  49.357  1.00  0.00     0.102 A 
HETATM   14  N   UNL     1      22.036  47.429  49.201  1.00  0.00    -0.351 N 
HETATM   15  H   UNL     1      21.605  46.513  49.342  1.00  0.00     0.166 HD
HETATM   16  C   UNL     1      21.239  48.473  48.927  1.00  0.00     0.109 A 
HETATM   17  C   UNL     1      21.783  49.743  48.812  1.00  0.00     0.026 A 
HETATM   18 BR   UNL     1      20.674  51.216  48.428  1.00  0.00    -0.050 Br
HETATM   19  C   UNL     1      23.145  49.914  49.004  1.00  0.00     0.024 A 
HETATM   20  C   UNL     1      23.939  48.802  49.293  1.00  0.00     0.050 A 
ENDBRANCH  11  13
ENDBRANCH   5  11
BRANCH   2  21
HETATM   21  O   UNL     1      27.784  43.380  52.748  1.00  0.00    -0.352 OA
HETATM   22  C   UNL     1      29.199  43.319  52.589  1.00  0.00     0.210 C 
ENDBRANCH   2  21
BRANCH   1  23
HETATM   23  O   UNL     1      27.293  45.017  54.990  1.00  0.00    -0.353 OA
HETATM   24  C   UNL     1      28.179  45.943  55.616  1.00  0.00     0.210 C 
ENDBRANCH   1  23
TORSDOF 4
ENDMDL
MODEL 4
REMARK VINA RESULT:      -7.3     12.636     14.762
REMARK  4 active torsions:
REMARK  status: ('A' for Active; 'I' for Inactive)
REMARK    1  A    between atoms: O_2  and  C_3 
REMARK    2  A    between atoms: C_4  and  O_5 
REMARK    3  A    between atoms: C_9  and  N_10 
REMARK    4  A    between atoms: N_10  and  C_11 
ROOT
HETATM    1  C   UNL     1      31.667  52.199  41.599  1.00  0.00     0.102 A 
HETATM    2  C   UNL     1      31.854  51.772  40.273  1.00  0.00     0.118 A 
HETATM    3  C   UNL     1      30.792  51.969  39.396  1.00  0.00     0.086 A 
HETATM    4  C   UNL     1      29.594  52.547  39.803  1.00  0.00     0.010 A 
HETATM    5  C   UNL     1      28.645  52.588  38.669  1.00  0.00     0.267 C 
HETATM    6  O   UNL     1      29.416  52.080  37.576  1.00  0.00    -0.287 OA
HETATM    7  C   UNL     1      30.634  51.608  37.988  1.00  0.00     0.299 C 
HETATM    8  O   UNL     1      31.369  50.996  37.246  1.00  0.00    -0.259 OA
HETATM    9  C   UNL     1      29.407  52.964  41.111  1.00  0.00     0.015 A 
HETATM   10  C   UNL     1      30.454  52.777  42.011  1.00  0.00     0.040 A 
ENDROOT
BRANCH   5  11
HETATM   11  N   UNL     1      27.503  51.722  38.908  1.00  0.00    -0.346 N 
HETATM   12  H   UNL     1      26.748  51.923  38.251  1.00  0.00     0.164 HD
BRANCH  11  13
HETATM   13  C   UNL     1      27.640  50.362  39.154  1.00  0.00     0.102 A 
HETATM   14  N   UNL     1      28.163  49.523  38.239  1.00  0.00    -0.351 N 
HETATM   15  H   UNL     1      28.438  49.919  37.337  1.00  0.00     0.166 HD
HETATM   16  C   UNL     1      28.393  48.221  38.459  1.00  0.00     0.109 A 
HETATM   17  C   UNL     1      28.109  47.672  39.700  1.00  0.00     0.026 A 
HETATM   18 BR   UNL     1      28.428  45.844  40.023  1.00  0.00    -0.050 Br
HETATM   19  C   UNL     1      27.610  48.490  40.702  1.00  0.00     0.024 A 
HETATM   20  C   UNL     1      27.390  49.843  40.432  1.00  0.00     0.050 A 
ENDBRANCH  11  13
ENDBRANCH   5  11
BRANCH   2  21
HETATM   21  O   UNL     1      32.987  51.071  39.984  1.00  0.00    -0.352 OA
HETATM   22  C   UNL     1      34.068  51.816  39.429  1.00  0.00     0.210 C 
ENDBRANCH   2  21
BRANCH   1  23
HETATM   23  O   UNL     1      32.588  52.035  42.603  1.00  0.00    -0.353 OA
HETATM   24  C   UNL     1      32.300  50.938  43.469  1.00  0.00     0.210 C 
ENDBRANCH   1  23
TORSDOF 4
ENDMDL
MODEL 5
REMARK VINA RESULT:      -7.3      4.913      6.621
REMARK  4 active torsions:
REMARK  status: ('A' for Active; 'I' for Inactive)
REMARK    1  A    between atoms: O_2  and  C_3 
REMARK    2  A    between atoms: C_4  and  O_5 
REMARK    3  A    between atoms: C_9  and  N_10 
REMARK    4  A    between atoms: N_10  and  C_11 
ROOT
HETATM    1  C   UNL     1      28.668  44.834  54.541  1.00  0.00     0.102 A 
HETATM    2  C   UNL     1      27.679  44.625  53.564  1.00  0.00     0.118 A 
HETATM    3  C   UNL     1      27.576  43.339  53.044  1.00  0.00     0.086 A 
HETATM    4  C   UNL     1      28.412  42.306  53.453  1.00  0.00     0.010 A 
HETATM    5  C   UNL     1      28.094  41.072  52.700  1.00  0.00     0.267 C 
HETATM    6  O   UNL     1      26.965  41.453  51.908  1.00  0.00    -0.287 OA
HETATM    7  C   UNL     1      26.706  42.795  52.001  1.00  0.00     0.299 C 
HETATM    8  O   UNL     1      25.895  43.343  51.289  1.00  0.00    -0.259 OA
HETATM    9  C   UNL     1      29.390  42.512  54.413  1.00  0.00     0.015 A 
HETATM   10  C   UNL     1      29.517  43.791  54.949  1.00  0.00     0.040 A 
ENDROOT
BRANCH   5  11
HETATM   11  N   UNL     1      29.194  40.686  51.834  1.00  0.00    -0.346 N 
HETATM   12  H   UNL     1      30.003  40.390  52.381  1.00  0.00     0.164 HD
BRANCH  11  13
HETATM   13  C   UNL     1      29.008  39.904  50.701  1.00  0.00     0.102 A 
HETATM   14  N   UNL     1      28.594  40.431  49.533  1.00  0.00    -0.351 N 
HETATM   15  H   UNL     1      28.396  41.434  49.511  1.00  0.00     0.166 HD
HETATM   16  C   UNL     1      28.479  39.734  48.393  1.00  0.00     0.109 A 
HETATM   17  C   UNL     1      28.821  38.391  48.371  1.00  0.00     0.026 A 
HETATM   18 BR   UNL     1      28.665  37.400  46.776  1.00  0.00    -0.050 Br
HETATM   19  C   UNL     1      29.296  37.795  49.529  1.00  0.00     0.024 A 
HETATM   20  C   UNL     1      29.405  38.559  50.694  1.00  0.00     0.050 A 
ENDBRANCH  11  13
ENDBRANCH   5  11
BRANCH   2  21
HETATM   21  O   UNL     1      27.006  45.714  53.096  1.00  0.00    -0.352 OA
HETATM   22  C   UNL     1      25.764  46.010  53.730  1.00  0.00     0.210 C 
ENDBRANCH   2  21
BRANCH   1  23
HETATM   23  O   UNL     1      28.940  46.048  55.119  1.00  0.00    -0.353 OA
HETATM   24  C   UNL     1      29.722  45.952  56.309  1.00  0.00     0.210 C 
ENDBRANCH   1  23
TORSDOF 4
ENDMDL
MODEL 6
REMARK VINA RESULT:      -7.3      3.889      7.408
REMARK  4 active torsions:
REMARK  status: ('A' for Active; 'I' for Inactive)
REMARK    1  A    between atoms: O_2  and  C_3 
REMARK    2  A    between atoms: C_4  and  O_5 
REMARK    3  A    between atoms: C_9  and  N_10 
REMARK    4  A    between atoms: N_10  and  C_11 
ROOT
HETATM    1  C   UNL     1      24.482  47.341  49.660  1.00  0.00     0.102 A 
HETATM    2  C   UNL     1      23.958  46.062  49.915  1.00  0.00     0.118 A 
HETATM    3  C   UNL     1      24.558  45.331  50.936  1.00  0.00     0.086 A 
HETATM    4  C   UNL     1      25.633  45.826  51.666  1.00  0.00     0.010 A 
HETATM    5  C   UNL     1      26.081  44.815  52.649  1.00  0.00     0.267 C 
HETATM    6  O   UNL     1      25.132  43.757  52.488  1.00  0.00    -0.287 OA
HETATM    7  C   UNL     1      24.298  43.977  51.424  1.00  0.00     0.299 C 
HETATM    8  O   UNL     1      23.531  43.131  51.023  1.00  0.00    -0.259 OA
HETATM    9  C   UNL     1      26.153  47.085  51.412  1.00  0.00     0.015 A 
HETATM   10  C   UNL     1      25.573  47.838  50.394  1.00  0.00     0.040 A 
ENDROOT
BRANCH   5  11
HETATM   11  N   UNL     1      27.414  44.331  52.336  1.00  0.00    -0.346 N 
HETATM   12  H   UNL     1      27.764  44.755  51.476  1.00  0.00     0.164 HD
BRANCH  11  13
HETATM   13  C   UNL     1      28.404  44.204  53.302  1.00  0.00     0.102 A 
HETATM   14  N   UNL     1      28.398  44.942  54.428  1.00  0.00    -0.351 N 
HETATM   15  H   UNL     1      27.646  45.625  54.542  1.00  0.00     0.166 HD
HETATM   16  C   UNL     1      29.282  44.796  55.426  1.00  0.00     0.109 A 
HETATM   17  C   UNL     1      30.264  43.822  55.339  1.00  0.00     0.026 A 
HETATM   18 BR   UNL     1      31.512  43.607  56.734  1.00  0.00    -0.050 Br
HETATM   19  C   UNL     1      30.301  42.998  54.225  1.00  0.00     0.024 A 
HETATM   20  C   UNL     1      29.358  43.179  53.211  1.00  0.00     0.050 A 
ENDBRANCH  11  13
ENDBRANCH   5  11
BRANCH   2  21
HETATM   21  O   UNL     1      23.013  45.579  49.058  1.00  0.00    -0.352 OA
HETATM   22  C   UNL     1      23.486  44.758  47.994  1.00  0.00     0.210 C 
ENDBRANCH   2  21
BRANCH   1  23
HETATM   23  O   UNL     1      24.046  48.171  48.659  1.00  0.00    -0.353 OA
HETATM   24  C   UNL     1      24.787  49.387  48.561  1.00  0.00     0.210 C 
ENDBRANCH   1  23
TORSDOF 4
ENDMDL
MODEL 7
REMARK VINA RESULT:      -7.2     12.311     14.680
REMARK  4 active torsions:
REMARK  status: ('A' for Active; 'I' for Inactive)
REMARK    1  A    between atoms: O_2  and  C_3 
REMARK    2  A    between atoms: C_4  and  O_5 
REMARK    3  A    between atoms: C_9  and  N_10 
REMARK    4  A    between atoms: N_10  and  C_11 
ROOT
HETATM    1  C   UNL     1      29.033  51.963  39.497  1.00  0.00     0.102 A 
HETATM    2  C   UNL     1      29.651  50.809  38.985  1.00  0.00     0.118 A 
HETATM    3  C   UNL     1      29.748  49.718  39.843  1.00  0.00     0.086 A 
HETATM    4  C   UNL     1      29.273  49.759  41.149  1.00  0.00     0.010 A 
HETATM    5  C   UNL     1      29.551  48.473  41.826  1.00  0.00     0.267 C 
HETATM    6  O   UNL     1      30.131  47.675  40.790  1.00  0.00    -0.287 OA
HETATM    7  C   UNL     1      30.361  48.403  39.654  1.00  0.00     0.299 C 
HETATM    8  O   UNL     1      30.988  47.955  38.720  1.00  0.00    -0.259 OA
HETATM    9  C   UNL     1      28.667  50.898  41.656  1.00  0.00     0.015 A 
HETATM   10  C   UNL     1      28.559  52.006  40.820  1.00  0.00     0.040 A 
ENDROOT
BRANCH   5  11
HETATM   11  N   UNL     1      30.506  48.644  42.908  1.00  0.00    -0.346 N 
HETATM   12  H   UNL     1      30.577  47.796  43.470  1.00  0.00     0.164 HD
BRANCH  11  13
HETATM   13  C   UNL     1      31.738  49.258  42.719  1.00  0.00     0.102 A 
HETATM   14  N   UNL     1      32.662  48.757  41.878  1.00  0.00    -0.351 N 
HETATM   15  H   UNL     1      32.436  47.886  41.393  1.00  0.00     0.166 HD
HETATM   16  C   UNL     1      33.829  49.356  41.601  1.00  0.00     0.109 A 
HETATM   17  C   UNL     1      34.128  50.580  42.179  1.00  0.00     0.026 A 
HETATM   18 BR   UNL     1      35.764  51.433  41.796  1.00  0.00    -0.050 Br
HETATM   19  C   UNL     1      33.202  51.174  43.021  1.00  0.00     0.024 A 
HETATM   20  C   UNL     1      31.996  50.518  43.280  1.00  0.00     0.050 A 
ENDBRANCH  11  13
ENDBRANCH   5  11
BRANCH   2  21
HETATM   21  O   UNL     1      30.235  50.892  37.756  1.00  0.00    -0.352 OA
HETATM   22  C   UNL     1      31.600  51.303  37.731  1.00  0.00     0.210 C 
ENDBRANCH   2  21
BRANCH   1  23
HETATM   23  O   UNL     1      28.901  53.141  38.808  1.00  0.00    -0.353 OA
HETATM   24  C   UNL     1      29.237  54.295  39.578  1.00  0.00     0.210 C 
ENDBRANCH   1  23
TORSDOF 4
ENDMDL
MODEL 8
REMARK VINA RESULT:      -7.1     12.486     14.935
REMARK  4 active torsions:
REMARK  status: ('A' for Active; 'I' for Inactive)
REMARK    1  A    between atoms: O_2  and  C_3 
REMARK    2  A    between atoms: C_4  and  O_5 
REMARK    3  A    between atoms: C_9  and  N_10 
REMARK    4  A    between atoms: N_10  and  C_11 
ROOT
HETATM    1  C   UNL     1      29.073  50.054  39.237  1.00  0.00     0.102 A 
HETATM    2  C   UNL     1      29.992  49.008  39.430  1.00  0.00     0.118 A 
HETATM    3  C   UNL     1      30.674  48.990  40.643  1.00  0.00     0.086 A 
HETATM    4  C   UNL     1      30.475  49.962  41.618  1.00  0.00     0.010 A 
HETATM    5  C   UNL     1      31.363  49.705  42.773  1.00  0.00     0.267 C 
HETATM    6  O   UNL     1      32.009  48.477  42.424  1.00  0.00    -0.287 OA
HETATM    7  C   UNL     1      31.713  48.091  41.144  1.00  0.00     0.299 C 
HETATM    8  O   UNL     1      32.279  47.167  40.604  1.00  0.00    -0.259 OA
HETATM    9  C   UNL     1      29.572  50.996  41.426  1.00  0.00     0.015 A 
HETATM   10  C   UNL     1      28.877  51.039  40.220  1.00  0.00     0.040 A 
ENDROOT
BRANCH   5  11
HETATM   11  N   UNL     1      32.355  50.757  42.917  1.00  0.00    -0.346 N 
HETATM   12  H   UNL     1      32.629  50.870  43.893  1.00  0.00     0.164 HD
BRANCH  11  13
HETATM   13  C   UNL     1      33.432  50.886  42.049  1.00  0.00     0.102 A 
HETATM   14  N   UNL     1      34.542  50.135  42.176  1.00  0.00    -0.351 N 
HETATM   15  H   UNL     1      34.579  49.474  42.955  1.00  0.00     0.166 HD
HETATM   16  C   UNL     1      35.571  50.164  41.315  1.00  0.00     0.109 A 
HETATM   17  C   UNL     1      35.514  50.989  40.203  1.00  0.00     0.026 A 
HETATM   18 BR   UNL     1      36.953  51.038  38.987  1.00  0.00    -0.050 Br
HETATM   19  C   UNL     1      34.381  51.757  39.988  1.00  0.00     0.024 A 
HETATM   20  C   UNL     1      33.330  51.693  40.906  1.00  0.00     0.050 A 
ENDBRANCH  11  13
ENDBRANCH   5  11
BRANCH   2  21
HETATM   21  O   UNL     1      30.253  48.187  38.374  1.00  0.00    -0.352 OA
HETATM   22  C   UNL     1      29.537  46.955  38.337  1.00  0.00     0.210 C 
ENDBRANCH   2  21
BRANCH   1  23
HETATM   23  O   UNL     1      28.356  50.251  38.084  1.00  0.00    -0.353 OA
HETATM   24  C   UNL     1      26.967  50.488  38.309  1.00  0.00     0.210 C 
ENDBRANCH   1  23
TORSDOF 4
ENDMDL
MODEL 9
REMARK VINA RESULT:      -7.0      3.489      5.559
REMARK  4 active torsions:
REMARK  status: ('A' for Active; 'I' for Inactive)
REMARK    1  A    between atoms: O_2  and  C_3 
REMARK    2  A    between atoms: C_4  and  O_5 
REMARK    3  A    between atoms: C_9  and  N_10 
REMARK    4  A    between atoms: N_10  and  C_11 
ROOT
HETATM    1  C   UNL     1      25.344  44.847  51.993  1.00  0.00     0.102 A 
HETATM    2  C   UNL     1      24.383  44.605  50.996  1.00  0.00     0.118 A 
HETATM    3  C   UNL     1      24.061  45.673  50.165  1.00  0.00     0.086 A 
HETATM    4  C   UNL     1      24.644  46.927  50.311  1.00  0.00     0.010 A 
HETATM    5  C   UNL     1      24.078  47.865  49.317  1.00  0.00     0.267 C 
HETATM    6  O   UNL     1      23.207  47.035  48.542  1.00  0.00    -0.287 OA
HETATM    7  C   UNL     1      23.089  45.780  49.077  1.00  0.00     0.299 C 
HETATM    8  O   UNL     1      22.280  44.980  48.664  1.00  0.00    -0.259 OA
HETATM    9  C   UNL     1      25.589  47.168  51.297  1.00  0.00     0.015 A 
HETATM   10  C   UNL     1      25.928  46.117  52.145  1.00  0.00     0.040 A 
ENDROOT
BRANCH   5  11
HETATM   11  N   UNL     1      23.311  48.916  49.962  1.00  0.00    -0.346 N 
HETATM   12  H   UNL     1      23.923  49.656  50.308  1.00  0.00     0.164 HD
BRANCH  11  13
HETATM   13  C   UNL     1      22.134  49.416  49.419  1.00  0.00     0.102 A 
HETATM   14  N   UNL     1      20.967  48.752  49.517  1.00  0.00    -0.351 N 
HETATM   15  H   UNL     1      20.977  47.845  49.989  1.00  0.00     0.166 HD
HETATM   16  C   UNL     1      19.792  49.231  49.083  1.00  0.00     0.109 A 
HETATM   17  C   UNL     1      19.731  50.493  48.514  1.00  0.00     0.026 A 
HETATM   18 BR   UNL     1      18.086  51.177  47.902  1.00  0.00    -0.050 Br
HETATM   19  C   UNL     1      20.889  51.249  48.422  1.00  0.00     0.024 A 
HETATM   20  C   UNL     1      22.091  50.715  48.891  1.00  0.00     0.050 A 
ENDBRANCH  11  13
ENDBRANCH   5  11
BRANCH   2  21
HETATM   21  O   UNL     1      23.737  43.404  51.013  1.00  0.00    -0.352 OA
HETATM   22  C   UNL     1      24.253  42.397  50.147  1.00  0.00     0.210 C 
ENDBRANCH   2  21
BRANCH   1  23
HETATM   23  O   UNL     1      25.739  43.925  52.928  1.00  0.00    -0.353 OA
HETATM   24  C   UNL     1      25.399  44.285  54.266  1.00  0.00     0.210 C 
ENDBRANCH   1  23
TORSDOF 4
ENDMDL
MODEL 10
REMARK VINA RESULT:      -6.9      3.974      7.479
REMARK  4 active torsions:
REMARK  status: ('A' for Active; 'I' for Inactive)
REMARK    1  A    between atoms: O_2  and  C_3 
REMARK    2  A    between atoms: C_4  and  O_5 
REMARK    3  A    between atoms: C_9  and  N_10 
REMARK    4  A    between atoms: N_10  and  C_11 
ROOT
HETATM    1  C   UNL     1      24.760  46.358  50.090  1.00  0.00     0.102 A 
HETATM    2  C   UNL     1      25.206  45.040  50.295  1.00  0.00     0.118 A 
HETATM    3  C   UNL     1      25.754  44.751  51.540  1.00  0.00     0.086 A 
HETATM    4  C   UNL     1      25.873  45.713  52.538  1.00  0.00     0.010 A 
HETATM    5  C   UNL     1      26.526  45.125  53.728  1.00  0.00     0.267 C 
HETATM    6  O   UNL     1      26.684  43.749  53.370  1.00  0.00    -0.287 OA
HETATM    7  C   UNL     1      26.346  43.520  52.063  1.00  0.00     0.299 C 
HETATM    8  O   UNL     1      26.558  42.458  51.522  1.00  0.00    -0.259 OA
HETATM    9  C   UNL     1      25.437  47.013  52.336  1.00  0.00     0.015 A 
HETATM   10  C   UNL     1      24.886  47.331  51.097  1.00  0.00     0.040 A 
ENDROOT
BRANCH   5  11
HETATM   11  N   UNL     1      27.828  45.724  53.964  1.00  0.00    -0.346 N 
HETATM   12  H   UNL     1      27.745  46.728  54.126  1.00  0.00     0.164 HD
BRANCH  11  13
HETATM   13  C   UNL     1      28.780  45.133  54.786  1.00  0.00     0.102 A 
HETATM   14  N   UNL     1      29.277  43.908  54.531  1.00  0.00    -0.351 N 
HETATM   15  H   UNL     1      28.912  43.409  53.717  1.00  0.00     0.166 HD
HETATM   16  C   UNL     1      30.254  43.332  55.246  1.00  0.00     0.109 A 
HETATM   17  C   UNL     1      30.829  44.017  56.305  1.00  0.00     0.026 A 
HETATM   18 BR   UNL     1      32.203  43.218  57.316  1.00  0.00    -0.050 Br
HETATM   19  C   UNL     1      30.393  45.301  56.594  1.00  0.00     0.024 A 
HETATM   20  C   UNL     1      29.376  45.866  55.822  1.00  0.00     0.050 A 
ENDBRANCH  11  13
ENDBRANCH   5  11
BRANCH   2  21
HETATM   21  O   UNL     1      25.207  44.195  49.224  1.00  0.00    -0.352 OA
HETATM   22  C   UNL     1      24.069  43.349  49.086  1.00  0.00     0.210 C 
ENDBRANCH   2  21
BRANCH   1  23
HETATM   23  O   UNL     1      24.244  46.826  48.909  1.00  0.00    -0.353 OA
HETATM   24  C   UNL     1      22.915  47.332  49.027  1.00  0.00     0.210 C 
ENDBRANCH   1  23
TORSDOF 4
ENDMDL
