MODEL 1
REMARK VINA RESULT:      -9.4      0.000      0.000
REMARK  5 active torsions:
REMARK  status: ('A' for Active; 'I' for Inactive)
REMARK    1  A    between atoms: C_9  and  N_10 
REMARK       I    between atoms: N_10  and  C_11 
REMARK    2  A    between atoms: C_11  and  C_12 
REMARK    3  A    between atoms: C_14  and  C_15 
REMARK    4  A    between atoms: C_15  and  O_16 
REMARK    5  A    between atoms: O_16  and  C_17 
ROOT
HETATM    1  N   UNL     1      26.699  44.726  52.645  1.00  0.00    -0.321 N 
HETATM    2  C   UNL     1      25.363  44.363  52.763  1.00  0.00     0.279 C 
HETATM    3  O   UNL     1      24.824  44.028  53.813  1.00  0.00    -0.265 OA
HETATM    4  H   UNL     1      27.051  44.829  51.704  1.00  0.00     0.169 HD
ENDROOT
BRANCH   2   5
HETATM    5  C   UNL     1      24.652  44.361  51.493  1.00  0.00     0.143 A 
HETATM    6  O   UNL     1      24.382  45.572  50.913  1.00  0.00    -0.307 OA
HETATM    7  C   UNL     1      23.696  45.341  49.759  1.00  0.00     0.078 A 
HETATM    8  C   UNL     1      23.533  43.984  49.574  1.00  0.00     0.038 A 
HETATM    9  C   UNL     1      24.142  43.354  50.689  1.00  0.00     0.045 A 
BRANCH   7  10
HETATM   10  C   UNL     1      23.267  46.541  48.996  1.00  0.00     0.240 C 
BRANCH  10  11
HETATM   11  O   UNL     1      23.638  47.682  49.767  1.00  0.00    -0.345 OA
BRANCH  11  12
HETATM   12  C   UNL     1      24.730  48.379  49.327  1.00  0.00     0.069 A 
HETATM   13  C   UNL     1      26.059  48.126  49.676  1.00  0.00     0.037 A 
HETATM   14  C   UNL     1      27.085  48.918  49.152  1.00  0.00     0.003 A 
HETATM   15  C   UNL     1      26.790  49.966  48.282  1.00  0.00     0.000 A 
HETATM   16  C   UNL     1      25.465  50.227  47.938  1.00  0.00     0.003 A 
HETATM   17  C   UNL     1      24.441  49.437  48.462  1.00  0.00     0.037 A 
ENDBRANCH  11  12
ENDBRANCH  10  11
ENDBRANCH   7  10
ENDBRANCH   2   5
BRANCH   1  18
HETATM   18  C   UNL     1      27.660  44.816  53.677  1.00  0.00     0.037 A 
HETATM   19  C   UNL     1      28.584  43.804  53.970  1.00  0.00     0.063 A 
HETATM   20  C   UNL     1      29.504  43.999  55.013  1.00  0.00     0.087 A 
HETATM   21  N   UNL     1      30.488  43.165  55.485  1.00  0.00    -0.234 NA
HETATM   22  C   UNL     1      29.482  45.189  55.730  1.00  0.00     0.062 A 
HETATM   23  C   UNL     1      31.074  43.820  56.464  1.00  0.00     0.101 A 
HETATM   24  C   UNL     1      32.207  43.348  57.293  1.00  0.00     0.091 C 
HETATM   25  N   UNL     1      30.498  45.053  56.642  1.00  0.00    -0.343 N 
HETATM   26  H   UNL     1      30.774  45.739  57.327  1.00  0.00     0.167 HD
HETATM   27  C   UNL     1      28.575  46.216  55.477  1.00  0.00     0.034 A 
HETATM   28  C   UNL     1      27.659  45.997  54.438  1.00  0.00     0.032 A 
ENDBRANCH   1  18
TORSDOF 5
ENDMDL
MODEL 2
REMARK VINA RESULT:      -9.4      2.885      8.624
REMARK  5 active torsions:
REMARK  status: ('A' for Active; 'I' for Inactive)
REMARK    1  A    between atoms: C_9  and  N_10 
REMARK       I    between atoms: N_10  and  C_11 
REMARK    2  A    between atoms: C_11  and  C_12 
REMARK    3  A    between atoms: C_14  and  C_15 
REMARK    4  A    between atoms: C_15  and  O_16 
REMARK    5  A    between atoms: O_16  and  C_17 
ROOT
HETATM    1  N   UNL     1      26.575  45.556  50.980  1.00  0.00    -0.321 N 
HETATM    2  C   UNL     1      26.951  44.355  50.393  1.00  0.00     0.279 C 
HETATM    3  O   UNL     1      26.882  44.117  49.191  1.00  0.00    -0.265 OA
HETATM    4  H   UNL     1      26.535  45.566  51.989  1.00  0.00     0.169 HD
ENDROOT
BRANCH   2   5
HETATM    5  C   UNL     1      27.392  43.356  51.355  1.00  0.00     0.143 A 
HETATM    6  O   UNL     1      28.318  43.737  52.288  1.00  0.00    -0.307 OA
HETATM    7  C   UNL     1      28.605  42.653  53.062  1.00  0.00     0.078 A 
HETATM    8  C   UNL     1      27.855  41.572  52.650  1.00  0.00     0.038 A 
HETATM    9  C   UNL     1      27.079  42.020  51.551  1.00  0.00     0.045 A 
BRANCH   7  10
HETATM   10  C   UNL     1      29.632  42.850  54.117  1.00  0.00     0.240 C 
BRANCH  10  11
HETATM   11  O   UNL     1      29.504  44.192  54.581  1.00  0.00    -0.345 OA
BRANCH  11  12
HETATM   12  C   UNL     1      30.065  44.465  55.800  1.00  0.00     0.069 A 
HETATM   13  C   UNL     1      29.773  45.566  56.608  1.00  0.00     0.037 A 
HETATM   14  C   UNL     1      30.421  45.727  57.836  1.00  0.00     0.003 A 
HETATM   15  C   UNL     1      31.364  44.793  58.260  1.00  0.00     0.000 A 
HETATM   16  C   UNL     1      31.665  43.698  57.454  1.00  0.00     0.003 A 
HETATM   17  C   UNL     1      31.019  43.538  56.227  1.00  0.00     0.037 A 
ENDBRANCH  11  12
ENDBRANCH  10  11
ENDBRANCH   7  10
ENDBRANCH   2   5
BRANCH   1  18
HETATM   18  C   UNL     1      26.094  46.717  50.333  1.00  0.00     0.037 A 
HETATM   19  C   UNL     1      24.752  47.120  50.355  1.00  0.00     0.063 A 
HETATM   20  C   UNL     1      24.380  48.297  49.684  1.00  0.00     0.087 A 
HETATM   21  N   UNL     1      23.145  48.886  49.561  1.00  0.00    -0.234 NA
HETATM   22  C   UNL     1      25.347  49.038  49.017  1.00  0.00     0.062 A 
HETATM   23  C   UNL     1      23.336  49.972  48.844  1.00  0.00     0.101 A 
HETATM   24  C   UNL     1      22.309  50.959  48.440  1.00  0.00     0.091 C 
HETATM   25  N   UNL     1      24.658  50.105  48.499  1.00  0.00    -0.343 N 
HETATM   26  H   UNL     1      25.053  50.856  47.955  1.00  0.00     0.167 HD
HETATM   27  C   UNL     1      26.689  48.668  48.963  1.00  0.00     0.034 A 
HETATM   28  C   UNL     1      27.038  47.485  49.631  1.00  0.00     0.032 A 
ENDBRANCH   1  18
TORSDOF 5
ENDMDL
MODEL 3
REMARK VINA RESULT:      -9.1      3.185      4.195
REMARK  5 active torsions:
REMARK  status: ('A' for Active; 'I' for Inactive)
REMARK    1  A    between atoms: C_9  and  N_10 
REMARK       I    between atoms: N_10  and  C_11 
REMARK    2  A    between atoms: C_11  and  C_12 
REMARK    3  A    between atoms: C_14  and  C_15 
REMARK    4  A    between atoms: C_15  and  O_16 
REMARK    5  A    between atoms: O_16  and  C_17 
ROOT
HETATM    1  N   UNL     1      25.628  46.231  52.039  1.00  0.00    -0.321 N 
HETATM    2  C   UNL     1      25.666  47.196  51.041  1.00  0.00     0.279 C 
HETATM    3  O   UNL     1      26.557  48.029  50.913  1.00  0.00    -0.265 OA
HETATM    4  H   UNL     1      24.766  45.710  52.124  1.00  0.00     0.169 HD
ENDROOT
BRANCH   2   5
HETATM    5  C   UNL     1      24.500  47.170  50.169  1.00  0.00     0.143 A 
HETATM    6  O   UNL     1      23.909  48.366  49.861  1.00  0.00    -0.307 OA
HETATM    7  C   UNL     1      22.835  48.110  49.064  1.00  0.00     0.078 A 
HETATM    8  C   UNL     1      22.733  46.754  48.836  1.00  0.00     0.038 A 
HETATM    9  C   UNL     1      23.799  46.148  49.549  1.00  0.00     0.045 A 
BRANCH   7  10
HETATM   10  C   UNL     1      22.025  49.285  48.652  1.00  0.00     0.240 C 
BRANCH  10  11
HETATM   11  O   UNL     1      20.922  49.370  49.553  1.00  0.00    -0.345 OA
BRANCH  11  12
HETATM   12  C   UNL     1      20.051  50.405  49.344  1.00  0.00     0.069 A 
HETATM   13  C   UNL     1      20.268  51.503  48.510  1.00  0.00     0.037 A 
HETATM   14  C   UNL     1      19.291  52.496  48.386  1.00  0.00     0.003 A 
HETATM   15  C   UNL     1      18.096  52.397  49.097  1.00  0.00     0.000 A 
HETATM   16  C   UNL     1      17.879  51.307  49.937  1.00  0.00     0.003 A 
HETATM   17  C   UNL     1      18.855  50.318  50.061  1.00  0.00     0.037 A 
ENDBRANCH  11  12
ENDBRANCH  10  11
ENDBRANCH   7  10
ENDBRANCH   2   5
BRANCH   1  18
HETATM   18  C   UNL     1      26.591  45.997  53.046  1.00  0.00     0.037 A 
HETATM   19  C   UNL     1      27.449  44.890  53.060  1.00  0.00     0.063 A 
HETATM   20  C   UNL     1      28.377  44.757  54.106  1.00  0.00     0.087 A 
HETATM   21  N   UNL     1      29.307  43.772  54.337  1.00  0.00    -0.234 NA
HETATM   22  C   UNL     1      28.430  45.725  55.101  1.00  0.00     0.062 A 
HETATM   23  C   UNL     1      29.931  44.119  55.441  1.00  0.00     0.101 A 
HETATM   24  C   UNL     1      31.031  43.385  56.107  1.00  0.00     0.091 C 
HETATM   25  N   UNL     1      29.434  45.301  55.934  1.00  0.00    -0.343 N 
HETATM   26  H   UNL     1      29.751  45.773  56.766  1.00  0.00     0.167 HD
HETATM   27  C   UNL     1      27.589  46.836  55.129  1.00  0.00     0.034 A 
HETATM   28  C   UNL     1      26.663  46.945  54.081  1.00  0.00     0.032 A 
ENDBRANCH   1  18
TORSDOF 5
ENDMDL
MODEL 4
REMARK VINA RESULT:      -9.1      1.327      1.974
REMARK  5 active torsions:
REMARK  status: ('A' for Active; 'I' for Inactive)
REMARK    1  A    between atoms: C_9  and  N_10 
REMARK       I    between atoms: N_10  and  C_11 
REMARK    2  A    between atoms: C_11  and  C_12 
REMARK    3  A    between atoms: C_14  and  C_15 
REMARK    4  A    between atoms: C_15  and  O_16 
REMARK    5  A    between atoms: O_16  and  C_17 
ROOT
HETATM    1  N   UNL     1      26.631  44.761  52.508  1.00  0.00    -0.321 N 
HETATM    2  C   UNL     1      25.278  44.467  52.619  1.00  0.00     0.279 C 
HETATM    3  O   UNL     1      24.708  44.199  53.673  1.00  0.00    -0.265 OA
HETATM    4  H   UNL     1      27.001  44.810  51.570  1.00  0.00     0.169 HD
ENDROOT
BRANCH   2   5
HETATM    5  C   UNL     1      24.585  44.447  51.339  1.00  0.00     0.143 A 
HETATM    6  O   UNL     1      24.314  45.650  50.744  1.00  0.00    -0.307 OA
HETATM    7  C   UNL     1      23.647  45.402  49.582  1.00  0.00     0.078 A 
HETATM    8  C   UNL     1      23.498  44.043  49.408  1.00  0.00     0.038 A 
HETATM    9  C   UNL     1      24.096  43.428  50.538  1.00  0.00     0.045 A 
BRANCH   7  10
HETATM   10  C   UNL     1      23.219  46.592  48.802  1.00  0.00     0.240 C 
BRANCH  10  11
HETATM   11  O   UNL     1      23.461  47.736  49.617  1.00  0.00    -0.345 OA
BRANCH  11  12
HETATM   12  C   UNL     1      22.878  48.905  49.206  1.00  0.00     0.069 A 
HETATM   13  C   UNL     1      23.551  50.080  48.866  1.00  0.00     0.037 A 
HETATM   14  C   UNL     1      22.833  51.208  48.459  1.00  0.00     0.003 A 
HETATM   15  C   UNL     1      21.441  51.168  48.393  1.00  0.00     0.000 A 
HETATM   16  C   UNL     1      20.765  50.000  48.739  1.00  0.00     0.003 A 
HETATM   17  C   UNL     1      21.483  48.875  49.147  1.00  0.00     0.037 A 
ENDBRANCH  11  12
ENDBRANCH  10  11
ENDBRANCH   7  10
ENDBRANCH   2   5
BRANCH   1  18
HETATM   18  C   UNL     1      27.580  44.848  53.551  1.00  0.00     0.037 A 
HETATM   19  C   UNL     1      28.517  43.845  53.835  1.00  0.00     0.063 A 
HETATM   20  C   UNL     1      29.424  44.036  54.891  1.00  0.00     0.087 A 
HETATM   21  N   UNL     1      30.417  43.209  55.357  1.00  0.00    -0.234 NA
HETATM   22  C   UNL     1      29.377  45.212  55.628  1.00  0.00     0.062 A 
HETATM   23  C   UNL     1      30.983  43.855  56.354  1.00  0.00     0.101 A 
HETATM   24  C   UNL     1      32.115  43.386  57.185  1.00  0.00     0.091 C 
HETATM   25  N   UNL     1      30.386  45.076  56.547  1.00  0.00    -0.343 N 
HETATM   26  H   UNL     1      30.645  45.754  57.247  1.00  0.00     0.167 HD
HETATM   27  C   UNL     1      28.456  46.229  55.384  1.00  0.00     0.034 A 
HETATM   28  C   UNL     1      27.554  46.016  54.332  1.00  0.00     0.032 A 
ENDBRANCH   1  18
TORSDOF 5
ENDMDL
MODEL 5
REMARK VINA RESULT:      -9.1      2.889      8.718
REMARK  5 active torsions:
REMARK  status: ('A' for Active; 'I' for Inactive)
REMARK    1  A    between atoms: C_9  and  N_10 
REMARK       I    between atoms: N_10  and  C_11 
REMARK    2  A    between atoms: C_11  and  C_12 
REMARK    3  A    between atoms: C_14  and  C_15 
REMARK    4  A    between atoms: C_15  and  O_16 
REMARK    5  A    between atoms: O_16  and  C_17 
ROOT
HETATM    1  N   UNL     1      25.578  44.871  50.440  1.00  0.00    -0.321 N 
HETATM    2  C   UNL     1      25.537  44.221  51.666  1.00  0.00     0.279 C 
HETATM    3  O   UNL     1      24.682  44.410  52.526  1.00  0.00    -0.265 OA
HETATM    4  H   UNL     1      26.416  44.738  49.892  1.00  0.00     0.169 HD
ENDROOT
BRANCH   2   5
HETATM    5  C   UNL     1      26.655  43.312  51.874  1.00  0.00     0.143 A 
HETATM    6  O   UNL     1      27.605  43.671  52.793  1.00  0.00    -0.307 OA
HETATM    7  C   UNL     1      28.561  42.701  52.810  1.00  0.00     0.078 A 
HETATM    8  C   UNL     1      28.231  41.702  51.918  1.00  0.00     0.038 A 
HETATM    9  C   UNL     1      27.010  42.095  51.314  1.00  0.00     0.045 A 
BRANCH   7  10
HETATM   10  C   UNL     1      29.714  42.928  53.719  1.00  0.00     0.240 C 
BRANCH  10  11
HETATM   11  O   UNL     1      29.453  44.134  54.432  1.00  0.00    -0.345 OA
BRANCH  11  12
HETATM   12  C   UNL     1      30.097  44.277  55.632  1.00  0.00     0.069 A 
HETATM   13  C   UNL     1      31.058  43.409  56.155  1.00  0.00     0.037 A 
HETATM   14  C   UNL     1      31.641  43.672  57.397  1.00  0.00     0.003 A 
HETATM   15  C   UNL     1      31.266  44.801  58.124  1.00  0.00     0.000 A 
HETATM   16  C   UNL     1      30.302  45.666  57.610  1.00  0.00     0.003 A 
HETATM   17  C   UNL     1      29.719  45.401  56.370  1.00  0.00     0.037 A 
ENDBRANCH  11  12
ENDBRANCH  10  11
ENDBRANCH   7  10
ENDBRANCH   2   5
BRANCH   1  18
HETATM   18  C   UNL     1      24.656  45.816  49.937  1.00  0.00     0.037 A 
HETATM   19  C   UNL     1      24.770  47.198  50.141  1.00  0.00     0.063 A 
HETATM   20  C   UNL     1      23.801  48.053  49.589  1.00  0.00     0.087 A 
HETATM   21  N   UNL     1      23.697  49.421  49.655  1.00  0.00    -0.234 NA
HETATM   22  C   UNL     1      22.755  47.515  48.852  1.00  0.00     0.062 A 
HETATM   23  C   UNL     1      22.619  49.732  48.968  1.00  0.00     0.101 A 
HETATM   24  C   UNL     1      22.077  51.090  48.733  1.00  0.00     0.091 C 
HETATM   25  N   UNL     1      22.021  48.605  48.459  1.00  0.00    -0.343 N 
HETATM   26  H   UNL     1      21.185  48.584  47.896  1.00  0.00     0.167 HD
HETATM   27  C   UNL     1      22.600  46.147  48.633  1.00  0.00     0.034 A 
HETATM   28  C   UNL     1      23.572  45.310  49.200  1.00  0.00     0.032 A 
ENDBRANCH   1  18
TORSDOF 5
ENDMDL
MODEL 6
REMARK VINA RESULT:      -9.0      5.109     10.205
REMARK  5 active torsions:
REMARK  status: ('A' for Active; 'I' for Inactive)
REMARK    1  A    between atoms: C_9  and  N_10 
REMARK       I    between atoms: N_10  and  C_11 
REMARK    2  A    between atoms: C_11  and  C_12 
REMARK    3  A    between atoms: C_14  and  C_15 
REMARK    4  A    between atoms: C_15  and  O_16 
REMARK    5  A    between atoms: O_16  and  C_17 
ROOT
HETATM    1  N   UNL     1      21.866  48.991  49.801  1.00  0.00    -0.321 N 
HETATM    2  C   UNL     1      22.657  48.313  48.882  1.00  0.00     0.279 C 
HETATM    3  O   UNL     1      22.576  48.443  47.665  1.00  0.00    -0.265 OA
HETATM    4  H   UNL     1      21.928  48.678  50.760  1.00  0.00     0.169 HD
ENDROOT
BRANCH   2   5
HETATM    5  C   UNL     1      23.577  47.369  49.500  1.00  0.00     0.143 A 
HETATM    6  O   UNL     1      24.306  47.801  50.575  1.00  0.00    -0.307 OA
HETATM    7  C   UNL     1      25.110  46.777  50.976  1.00  0.00     0.078 A 
HETATM    8  C   UNL     1      24.897  45.673  50.177  1.00  0.00     0.038 A 
HETATM    9  C   UNL     1      23.916  46.053  49.226  1.00  0.00     0.045 A 
BRANCH   7  10
HETATM   10  C   UNL     1      26.022  47.061  52.113  1.00  0.00     0.240 C 
BRANCH  10  11
HETATM   11  O   UNL     1      25.885  45.985  53.038  1.00  0.00    -0.345 OA
BRANCH  11  12
HETATM   12  C   UNL     1      26.983  45.705  53.806  1.00  0.00     0.069 A 
HETATM   13  C   UNL     1      27.650  44.480  53.867  1.00  0.00     0.037 A 
HETATM   14  C   UNL     1      28.765  44.327  54.697  1.00  0.00     0.003 A 
HETATM   15  C   UNL     1      29.216  45.396  55.470  1.00  0.00     0.000 A 
HETATM   16  C   UNL     1      28.550  46.618  55.418  1.00  0.00     0.003 A 
HETATM   17  C   UNL     1      27.436  46.769  54.591  1.00  0.00     0.037 A 
ENDBRANCH  11  12
ENDBRANCH  10  11
ENDBRANCH   7  10
ENDBRANCH   2   5
BRANCH   1  18
HETATM   18  C   UNL     1      20.873  49.959  49.532  1.00  0.00     0.037 A 
HETATM   19  C   UNL     1      19.592  49.938  50.098  1.00  0.00     0.063 A 
HETATM   20  C   UNL     1      18.682  50.956  49.769  1.00  0.00     0.087 A 
HETATM   21  N   UNL     1      17.386  51.146  50.186  1.00  0.00    -0.234 NA
HETATM   22  C   UNL     1      19.069  51.963  48.894  1.00  0.00     0.062 A 
HETATM   23  C   UNL     1      16.978  52.248  49.596  1.00  0.00     0.101 A 
HETATM   24  C   UNL     1      15.647  52.884  49.728  1.00  0.00     0.091 C 
HETATM   25  N   UNL     1      17.970  52.778  48.808  1.00  0.00    -0.343 N 
HETATM   26  H   UNL     1      17.899  53.621  48.259  1.00  0.00     0.167 HD
HETATM   27  C   UNL     1      20.330  52.017  48.303  1.00  0.00     0.034 A 
HETATM   28  C   UNL     1      21.220  50.986  48.637  1.00  0.00     0.032 A 
ENDBRANCH   1  18
TORSDOF 5
ENDMDL
MODEL 7
REMARK VINA RESULT:      -9.0      5.028     10.495
REMARK  5 active torsions:
REMARK  status: ('A' for Active; 'I' for Inactive)
REMARK    1  A    between atoms: C_9  and  N_10 
REMARK       I    between atoms: N_10  and  C_11 
REMARK    2  A    between atoms: C_11  and  C_12 
REMARK    3  A    between atoms: C_14  and  C_15 
REMARK    4  A    between atoms: C_15  and  O_16 
REMARK    5  A    between atoms: O_16  and  C_17 
ROOT
HETATM    1  N   UNL     1      22.417  49.451  49.005  1.00  0.00    -0.321 N 
HETATM    2  C   UNL     1      23.637  49.596  48.358  1.00  0.00     0.279 C 
HETATM    3  O   UNL     1      23.793  50.182  47.291  1.00  0.00    -0.265 OA
HETATM    4  H   UNL     1      22.401  48.818  49.792  1.00  0.00     0.169 HD
ENDROOT
BRANCH   2   5
HETATM    5  C   UNL     1      24.735  48.928  49.041  1.00  0.00     0.143 A 
HETATM    6  O   UNL     1      24.425  48.105  50.090  1.00  0.00    -0.307 OA
HETATM    7  C   UNL     1      25.589  47.609  50.593  1.00  0.00     0.078 A 
HETATM    8  C   UNL     1      26.657  48.091  49.866  1.00  0.00     0.038 A 
HETATM    9  C   UNL     1      26.110  48.942  48.872  1.00  0.00     0.045 A 
BRANCH   7  10
HETATM   10  C   UNL     1      25.470  46.720  51.777  1.00  0.00     0.240 C 
BRANCH  10  11
HETATM   11  O   UNL     1      25.887  47.476  52.912  1.00  0.00    -0.345 OA
BRANCH  11  12
HETATM   12  C   UNL     1      26.765  46.857  53.760  1.00  0.00     0.069 A 
HETATM   13  C   UNL     1      27.549  47.487  54.730  1.00  0.00     0.037 A 
HETATM   14  C   UNL     1      28.410  46.734  55.534  1.00  0.00     0.003 A 
HETATM   15  C   UNL     1      28.493  45.352  55.372  1.00  0.00     0.000 A 
HETATM   16  C   UNL     1      27.720  44.721  54.400  1.00  0.00     0.003 A 
HETATM   17  C   UNL     1      26.862  45.473  53.597  1.00  0.00     0.037 A 
ENDBRANCH  11  12
ENDBRANCH  10  11
ENDBRANCH   7  10
ENDBRANCH   2   5
BRANCH   1  18
HETATM   18  C   UNL     1      21.163  49.965  48.603  1.00  0.00     0.037 A 
HETATM   19  C   UNL     1      20.167  49.192  47.991  1.00  0.00     0.063 A 
HETATM   20  C   UNL     1      18.951  49.800  47.637  1.00  0.00     0.087 A 
HETATM   21  N   UNL     1      17.841  49.261  47.033  1.00  0.00    -0.234 NA
HETATM   22  C   UNL     1      18.759  51.150  47.902  1.00  0.00     0.062 A 
HETATM   23  C   UNL     1      16.974  50.245  46.931  1.00  0.00     0.101 A 
HETATM   24  C   UNL     1      15.613  50.171  46.353  1.00  0.00     0.091 C 
HETATM   25  N   UNL     1      17.489  51.406  47.452  1.00  0.00    -0.343 N 
HETATM   26  H   UNL     1      17.014  52.295  47.493  1.00  0.00     0.167 HD
HETATM   27  C   UNL     1      19.727  51.956  48.500  1.00  0.00     0.034 A 
HETATM   28  C   UNL     1      20.936  51.331  48.837  1.00  0.00     0.032 A 
ENDBRANCH   1  18
TORSDOF 5
ENDMDL
MODEL 8
REMARK VINA RESULT:      -8.9      1.983      2.770
REMARK  5 active torsions:
REMARK  status: ('A' for Active; 'I' for Inactive)
REMARK    1  A    between atoms: C_9  and  N_10 
REMARK       I    between atoms: N_10  and  C_11 
REMARK    2  A    between atoms: C_11  and  C_12 
REMARK    3  A    between atoms: C_14  and  C_15 
REMARK    4  A    between atoms: C_15  and  O_16 
REMARK    5  A    between atoms: O_16  and  C_17 
ROOT
HETATM    1  N   UNL     1      26.652  45.493  52.687  1.00  0.00    -0.321 N 
HETATM    2  C   UNL     1      25.360  44.985  52.657  1.00  0.00     0.279 C 
HETATM    3  O   UNL     1      24.848  44.332  53.561  1.00  0.00    -0.265 OA
HETATM    4  H   UNL     1      27.001  45.876  51.820  1.00  0.00     0.169 HD
ENDROOT
BRANCH   2   5
HETATM    5  C   UNL     1      24.665  45.250  51.405  1.00  0.00     0.143 A 
HETATM    6  O   UNL     1      24.671  46.536  50.935  1.00  0.00    -0.307 OA
HETATM    7  C   UNL     1      23.951  46.563  49.779  1.00  0.00     0.078 A 
HETATM    8  C   UNL     1      23.489  45.298  49.484  1.00  0.00     0.038 A 
HETATM    9  C   UNL     1      23.943  44.454  50.531  1.00  0.00     0.045 A 
BRANCH   7  10
HETATM   10  C   UNL     1      23.799  47.890  49.128  1.00  0.00     0.240 C 
BRANCH  10  11
HETATM   11  O   UNL     1      22.522  47.901  48.494  1.00  0.00    -0.345 OA
BRANCH  11  12
HETATM   12  C   UNL     1      21.585  48.738  49.039  1.00  0.00     0.069 A 
HETATM   13  C   UNL     1      20.247  48.421  49.284  1.00  0.00     0.037 A 
HETATM   14  C   UNL     1      19.392  49.373  49.847  1.00  0.00     0.003 A 
HETATM   15  C   UNL     1      19.868  50.644  50.164  1.00  0.00     0.000 A 
HETATM   16  C   UNL     1      21.200  50.967  49.914  1.00  0.00     0.003 A 
HETATM   17  C   UNL     1      22.052  50.017  49.350  1.00  0.00     0.037 A 
ENDBRANCH  11  12
ENDBRANCH  10  11
ENDBRANCH   7  10
ENDBRANCH   2   5
BRANCH   1  18
HETATM   18  C   UNL     1      27.588  45.400  53.741  1.00  0.00     0.037 A 
HETATM   19  C   UNL     1      28.491  44.338  53.887  1.00  0.00     0.063 A 
HETATM   20  C   UNL     1      29.388  44.347  54.969  1.00  0.00     0.087 A 
HETATM   21  N   UNL     1      30.349  43.432  55.321  1.00  0.00    -0.234 NA
HETATM   22  C   UNL     1      29.364  45.406  55.868  1.00  0.00     0.062 A 
HETATM   23  C   UNL     1      30.919  43.909  56.406  1.00  0.00     0.101 A 
HETATM   24  C   UNL     1      32.025  43.291  57.173  1.00  0.00     0.091 C 
HETATM   25  N   UNL     1      30.355  45.108  56.768  1.00  0.00    -0.343 N 
HETATM   26  H   UNL     1      30.623  45.670  57.561  1.00  0.00     0.167 HD
HETATM   27  C   UNL     1      28.477  46.476  55.763  1.00  0.00     0.034 A 
HETATM   28  C   UNL     1      27.584  46.443  54.682  1.00  0.00     0.032 A 
ENDBRANCH   1  18
TORSDOF 5
ENDMDL
MODEL 9
REMARK VINA RESULT:      -8.8      3.743      9.534
REMARK  5 active torsions:
REMARK  status: ('A' for Active; 'I' for Inactive)
REMARK    1  A    between atoms: C_9  and  N_10 
REMARK       I    between atoms: N_10  and  C_11 
REMARK    2  A    between atoms: C_11  and  C_12 
REMARK    3  A    between atoms: C_14  and  C_15 
REMARK    4  A    between atoms: C_15  and  O_16 
REMARK    5  A    between atoms: O_16  and  C_17 
ROOT
HETATM    1  N   UNL     1      23.758  46.920  49.489  1.00  0.00    -0.321 N 
HETATM    2  C   UNL     1      25.031  47.308  49.889  1.00  0.00     0.279 C 
HETATM    3  O   UNL     1      25.458  48.457  49.829  1.00  0.00    -0.265 OA
HETATM    4  H   UNL     1      23.589  45.925  49.446  1.00  0.00     0.169 HD
ENDROOT
BRANCH   2   5
HETATM    5  C   UNL     1      25.856  46.199  50.345  1.00  0.00     0.143 A 
HETATM    6  O   UNL     1      25.770  45.842  51.663  1.00  0.00    -0.307 OA
HETATM    7  C   UNL     1      26.634  44.810  51.876  1.00  0.00     0.078 A 
HETATM    8  C   UNL     1      27.270  44.481  50.698  1.00  0.00     0.038 A 
HETATM    9  C   UNL     1      26.775  45.375  49.714  1.00  0.00     0.045 A 
BRANCH   7  10
HETATM   10  C   UNL     1      26.724  44.302  53.269  1.00  0.00     0.240 C 
BRANCH  10  11
HETATM   11  O   UNL     1      27.939  43.562  53.367  1.00  0.00    -0.345 OA
BRANCH  11  12
HETATM   12  C   UNL     1      28.821  43.976  54.329  1.00  0.00     0.069 A 
HETATM   13  C   UNL     1      28.799  45.208  54.985  1.00  0.00     0.037 A 
HETATM   14  C   UNL     1      29.764  45.507  55.952  1.00  0.00     0.003 A 
HETATM   15  C   UNL     1      30.756  44.578  56.264  1.00  0.00     0.000 A 
HETATM   16  C   UNL     1      30.787  43.351  55.605  1.00  0.00     0.003 A 
HETATM   17  C   UNL     1      29.824  43.055  54.639  1.00  0.00     0.037 A 
ENDBRANCH  11  12
ENDBRANCH  10  11
ENDBRANCH   7  10
ENDBRANCH   2   5
BRANCH   1  18
HETATM   18  C   UNL     1      22.725  47.744  48.990  1.00  0.00     0.037 A 
HETATM   19  C   UNL     1      22.440  49.022  49.488  1.00  0.00     0.063 A 
HETATM   20  C   UNL     1      21.395  49.763  48.913  1.00  0.00     0.087 A 
HETATM   21  N   UNL     1      20.930  51.018  49.226  1.00  0.00    -0.234 NA
HETATM   22  C   UNL     1      20.667  49.218  47.863  1.00  0.00     0.062 A 
HETATM   23  C   UNL     1      19.944  51.255  48.388  1.00  0.00     0.101 A 
HETATM   24  C   UNL     1      19.120  52.482  48.314  1.00  0.00     0.091 C 
HETATM   25  N   UNL     1      19.756  50.191  47.540  1.00  0.00    -0.343 N 
HETATM   26  H   UNL     1      19.065  50.136  46.809  1.00  0.00     0.167 HD
HETATM   27  C   UNL     1      20.912  47.948  47.344  1.00  0.00     0.034 A 
HETATM   28  C   UNL     1      21.954  47.221  47.938  1.00  0.00     0.032 A 
ENDBRANCH   1  18
TORSDOF 5
ENDMDL
MODEL 10
REMARK VINA RESULT:      -8.8      3.597      5.416
REMARK  5 active torsions:
REMARK  status: ('A' for Active; 'I' for Inactive)
REMARK    1  A    between atoms: C_9  and  N_10 
REMARK       I    between atoms: N_10  and  C_11 
REMARK    2  A    between atoms: C_11  and  C_12 
REMARK    3  A    between atoms: C_14  and  C_15 
REMARK    4  A    between atoms: C_15  and  O_16 
REMARK    5  A    between atoms: O_16  and  C_17 
ROOT
HETATM    1  N   UNL     1      25.187  47.119  50.869  1.00  0.00    -0.321 N 
HETATM    2  C   UNL     1      25.721  47.847  49.814  1.00  0.00     0.279 C 
HETATM    3  O   UNL     1      26.900  47.819  49.476  1.00  0.00    -0.265 OA
HETATM    4  H   UNL     1      24.241  47.350  51.137  1.00  0.00     0.169 HD
ENDROOT
BRANCH   2   5
HETATM    5  C   UNL     1      24.749  48.711  49.160  1.00  0.00     0.143 A 
HETATM    6  O   UNL     1      23.422  48.433  49.348  1.00  0.00    -0.307 OA
HETATM    7  C   UNL     1      22.698  49.340  48.635  1.00  0.00     0.078 A 
HETATM    8  C   UNL     1      23.546  50.219  47.996  1.00  0.00     0.038 A 
HETATM    9  C   UNL     1      24.864  49.813  48.328  1.00  0.00     0.045 A 
BRANCH   7  10
HETATM   10  C   UNL     1      21.221  49.180  48.673  1.00  0.00     0.240 C 
BRANCH  10  11
HETATM   11  O   UNL     1      20.741  49.984  49.748  1.00  0.00    -0.345 OA
BRANCH  11  12
HETATM   12  C   UNL     1      19.730  50.856  49.445  1.00  0.00     0.069 A 
HETATM   13  C   UNL     1      19.813  51.928  48.554  1.00  0.00     0.037 A 
HETATM   14  C   UNL     1      18.701  52.747  48.334  1.00  0.00     0.003 A 
HETATM   15  C   UNL     1      17.504  52.500  49.005  1.00  0.00     0.000 A 
HETATM   16  C   UNL     1      17.420  51.437  49.901  1.00  0.00     0.003 A 
HETATM   17  C   UNL     1      18.531  50.622  50.121  1.00  0.00     0.037 A 
ENDBRANCH  11  12
ENDBRANCH  10  11
ENDBRANCH   7  10
ENDBRANCH   2   5
BRANCH   1  18
HETATM   18  C   UNL     1      25.860  46.204  51.710  1.00  0.00     0.037 A 
HETATM   19  C   UNL     1      26.163  44.887  51.341  1.00  0.00     0.063 A 
HETATM   20  C   UNL     1      26.844  44.061  52.251  1.00  0.00     0.087 A 
HETATM   21  N   UNL     1      27.243  42.753  52.122  1.00  0.00    -0.234 NA
HETATM   22  C   UNL     1      27.205  44.566  53.494  1.00  0.00     0.062 A 
HETATM   23  C   UNL     1      27.847  42.449  53.251  1.00  0.00     0.101 A 
HETATM   24  C   UNL     1      28.464  41.151  53.605  1.00  0.00     0.091 C 
HETATM   25  N   UNL     1      27.851  43.523  54.108  1.00  0.00    -0.343 N 
HETATM   26  H   UNL     1      28.257  43.539  55.030  1.00  0.00     0.167 HD
HETATM   27  C   UNL     1      26.915  45.866  53.903  1.00  0.00     0.034 A 
HETATM   28  C   UNL     1      26.227  46.671  52.984  1.00  0.00     0.032 A 
ENDBRANCH   1  18
TORSDOF 5
ENDMDL
