MODEL 1
REMARK VINA RESULT:      -8.8      0.000      0.000
REMARK  2 active torsions:
REMARK  status: ('A' for Active; 'I' for Inactive)
REMARK    1  A    between atoms: C_8  and  N_9 
REMARK       I    between atoms: N_9  and  C_10 
REMARK       I    between atoms: C_10  and  N_11 
REMARK    2  A    between atoms: N_11  and  C_12 
ROOT
HETATM    1  C   UNL     1      31.346  43.481  57.017  1.00  0.00     0.044 A 
HETATM    2  C   UNL     1      30.937  44.666  57.612  1.00  0.00     0.117 A 
HETATM    3  F   UNL     1      31.380  44.976  58.836  1.00  0.00    -0.206 F 
HETATM    4  C   UNL     1      30.052  45.521  56.968  1.00  0.00     0.067 A 
HETATM    5  C   UNL     1      29.572  45.201  55.689  1.00  0.00     0.074 A 
HETATM    6  C   UNL     1      28.539  46.040  55.148  1.00  0.00     0.102 C 
HETATM    7  N   UNL     1      27.674  46.694  54.728  1.00  0.00    -0.191 NA
HETATM    8  C   UNL     1      30.020  44.022  55.050  1.00  0.00     0.057 A 
HETATM    9  C   UNL     1      30.881  43.154  55.742  1.00  0.00     0.034 A 
ENDROOT
BRANCH   8  10
HETATM   10  N   UNL     1      29.620  43.600  53.756  1.00  0.00    -0.308 N 
HETATM   11  C   UNL     1      28.568  42.753  53.508  1.00  0.00     0.321 C 
HETATM   12  N   UNL     1      28.587  42.283  52.214  1.00  0.00    -0.336 N 
HETATM   13  O   UNL     1      27.697  42.435  54.305  1.00  0.00    -0.247 OA
HETATM   14  H   UNL     1      29.500  42.334  51.777  1.00  0.00     0.164 HD
HETATM   15  H   UNL     1      29.835  44.228  52.991  1.00  0.00     0.170 HD
BRANCH  12  16
HETATM   16  C   UNL     1      27.726  41.190  51.789  1.00  0.00     0.118 C 
HETATM   17  C   UNL     1      28.289  40.196  50.759  1.00  0.00     0.210 C 
HETATM   18  N   UNL     1      27.027  39.490  50.300  1.00  0.00    -0.065 N 
HETATM   19  C   UNL     1      29.258  39.146  51.278  1.00  0.00     0.035 C 
HETATM   20  H   UNL     1      26.668  38.910  51.071  1.00  0.00     0.280 HD
HETATM   21  C   UNL     1      27.278  38.584  49.136  1.00  0.00     0.235 C 
HETATM   22  C   UNL     1      26.046  40.612  50.084  1.00  0.00     0.237 C 
HETATM   23  C   UNL     1      28.281  37.519  49.578  1.00  0.00     0.028 C 
HETATM   24  C   UNL     1      29.557  38.122  50.178  1.00  0.00     0.004 C 
HETATM   25  C   UNL     1      26.415  41.660  51.135  1.00  0.00     0.055 C 
ENDBRANCH  12  16
ENDBRANCH   8  10
TORSDOF 2
ENDMDL
MODEL 2
REMARK VINA RESULT:      -8.4      1.949      3.182
REMARK  2 active torsions:
REMARK  status: ('A' for Active; 'I' for Inactive)
REMARK    1  A    between atoms: C_8  and  N_9 
REMARK       I    between atoms: N_9  and  C_10 
REMARK       I    between atoms: C_10  and  N_11 
REMARK    2  A    between atoms: N_11  and  C_12 
ROOT
HETATM    1  C   UNL     1      30.008  45.819  57.538  1.00  0.00     0.044 A 
HETATM    2  C   UNL     1      30.907  44.763  57.522  1.00  0.00     0.117 A 
HETATM    3  F   UNL     1      31.749  44.599  58.549  1.00  0.00    -0.206 F 
HETATM    4  C   UNL     1      30.966  43.890  56.443  1.00  0.00     0.067 A 
HETATM    5  C   UNL     1      30.095  44.059  55.356  1.00  0.00     0.074 A 
HETATM    6  C   UNL     1      30.316  43.226  54.205  1.00  0.00     0.102 C 
HETATM    7  N   UNL     1      30.520  42.583  53.259  1.00  0.00    -0.191 NA
HETATM    8  C   UNL     1      29.140  45.100  55.380  1.00  0.00     0.057 A 
HETATM    9  C   UNL     1      29.131  45.994  56.465  1.00  0.00     0.034 A 
ENDROOT
BRANCH   8  10
HETATM   10  N   UNL     1      28.199  45.361  54.351  1.00  0.00    -0.308 N 
HETATM   11  C   UNL     1      27.128  44.554  54.057  1.00  0.00     0.321 C 
HETATM   12  N   UNL     1      26.563  44.880  52.845  1.00  0.00    -0.336 N 
HETATM   13  O   UNL     1      26.693  43.652  54.759  1.00  0.00    -0.247 OA
HETATM   14  H   UNL     1      27.188  45.382  52.228  1.00  0.00     0.164 HD
HETATM   15  H   UNL     1      28.067  46.333  54.098  1.00  0.00     0.170 HD
BRANCH  12  16
HETATM   16  C   UNL     1      25.579  44.018  52.209  1.00  0.00     0.118 C 
HETATM   17  C   UNL     1      26.063  43.093  51.081  1.00  0.00     0.210 C 
HETATM   18  N   UNL     1      24.749  42.681  50.444  1.00  0.00    -0.065 N 
HETATM   19  C   UNL     1      26.804  41.833  51.497  1.00  0.00     0.035 C 
HETATM   20  H   UNL     1      24.237  42.070  51.096  1.00  0.00     0.280 HD
HETATM   21  C   UNL     1      24.952  41.913  49.175  1.00  0.00     0.235 C 
HETATM   22  C   UNL     1      23.981  43.972  50.336  1.00  0.00     0.237 C 
HETATM   23  C   UNL     1      25.731  40.643  49.516  1.00  0.00     0.028 C 
HETATM   24  C   UNL     1      27.030  40.932  50.277  1.00  0.00     0.004 C 
HETATM   25  C   UNL     1      24.421  44.789  51.552  1.00  0.00     0.055 C 
ENDBRANCH  12  16
ENDBRANCH   8  10
TORSDOF 2
ENDMDL
MODEL 3
REMARK VINA RESULT:      -8.3      1.957      2.567
REMARK  2 active torsions:
REMARK  status: ('A' for Active; 'I' for Inactive)
REMARK    1  A    between atoms: C_8  and  N_9 
REMARK       I    between atoms: N_9  and  C_10 
REMARK       I    between atoms: C_10  and  N_11 
REMARK    2  A    between atoms: N_11  and  C_12 
ROOT
HETATM    1  C   UNL     1      30.180  43.698  55.045  1.00  0.00     0.044 A 
HETATM    2  C   UNL     1      29.509  44.874  55.346  1.00  0.00     0.117 A 
HETATM    3  F   UNL     1      30.173  45.882  55.923  1.00  0.00    -0.206 F 
HETATM    4  C   UNL     1      28.152  45.010  55.084  1.00  0.00     0.067 A 
HETATM    5  C   UNL     1      27.443  43.956  54.490  1.00  0.00     0.074 A 
HETATM    6  C   UNL     1      26.016  44.097  54.395  1.00  0.00     0.102 C 
HETATM    7  N   UNL     1      24.858  44.194  54.357  1.00  0.00    -0.191 NA
HETATM    8  C   UNL     1      28.124  42.770  54.132  1.00  0.00     0.057 A 
HETATM    9  C   UNL     1      29.487  42.643  54.447  1.00  0.00     0.034 A 
ENDROOT
BRANCH   8  10
HETATM   10  N   UNL     1      27.521  41.645  53.513  1.00  0.00    -0.308 N 
HETATM   11  C   UNL     1      27.527  41.407  52.161  1.00  0.00     0.321 C 
HETATM   12  N   UNL     1      26.631  40.422  51.813  1.00  0.00    -0.336 N 
HETATM   13  O   UNL     1      28.229  41.973  51.335  1.00  0.00    -0.247 OA
HETATM   14  H   UNL     1      25.896  40.282  52.495  1.00  0.00     0.164 HD
HETATM   15  H   UNL     1      27.441  40.809  54.080  1.00  0.00     0.170 HD
BRANCH  12  16
HETATM   16  C   UNL     1      26.282  40.168  50.424  1.00  0.00     0.118 C 
HETATM   17  C   UNL     1      27.414  39.765  49.465  1.00  0.00     0.210 C 
HETATM   18  N   UNL     1      26.755  39.972  48.115  1.00  0.00    -0.065 N 
HETATM   19  C   UNL     1      27.899  38.326  49.541  1.00  0.00     0.035 C 
HETATM   20  H   UNL     1      26.022  39.259  47.986  1.00  0.00     0.280 HD
HETATM   21  C   UNL     1      27.724  39.828  46.984  1.00  0.00     0.235 C 
HETATM   22  C   UNL     1      26.068  41.305  48.251  1.00  0.00     0.237 C 
HETATM   23  C   UNL     1      28.284  38.407  47.024  1.00  0.00     0.028 C 
HETATM   24  C   UNL     1      28.872  38.041  48.391  1.00  0.00     0.004 C 
HETATM   25  C   UNL     1      25.646  41.378  49.719  1.00  0.00     0.055 C 
ENDBRANCH  12  16
ENDBRANCH   8  10
TORSDOF 2
ENDMDL
MODEL 4
REMARK VINA RESULT:      -8.3      9.742     11.750
REMARK  2 active torsions:
REMARK  status: ('A' for Active; 'I' for Inactive)
REMARK    1  A    between atoms: C_8  and  N_9 
REMARK       I    between atoms: N_9  and  C_10 
REMARK       I    between atoms: C_10  and  N_11 
REMARK    2  A    between atoms: N_11  and  C_12 
ROOT
HETATM    1  C   UNL     1      26.093  49.757  48.515  1.00  0.00     0.044 A 
HETATM    2  C   UNL     1      27.125  49.011  49.065  1.00  0.00     0.117 A 
HETATM    3  F   UNL     1      28.393  49.362  48.823  1.00  0.00    -0.206 F 
HETATM    4  C   UNL     1      26.862  47.889  49.840  1.00  0.00     0.067 A 
HETATM    5  C   UNL     1      25.536  47.505  50.091  1.00  0.00     0.074 A 
HETATM    6  C   UNL     1      25.334  46.249  50.760  1.00  0.00     0.102 C 
HETATM    7  N   UNL     1      25.169  45.214  51.262  1.00  0.00    -0.191 NA
HETATM    8  C   UNL     1      24.474  48.284  49.579  1.00  0.00     0.057 A 
HETATM    9  C   UNL     1      24.769  49.390  48.764  1.00  0.00     0.034 A 
ENDROOT
BRANCH   8  10
HETATM   10  N   UNL     1      23.097  48.007  49.778  1.00  0.00    -0.308 N 
HETATM   11  C   UNL     1      22.125  48.187  48.825  1.00  0.00     0.321 C 
HETATM   12  N   UNL     1      20.862  48.126  49.369  1.00  0.00    -0.336 N 
HETATM   13  O   UNL     1      22.314  48.373  47.631  1.00  0.00    -0.247 OA
HETATM   14  H   UNL     1      20.839  48.309  50.364  1.00  0.00     0.164 HD
HETATM   15  H   UNL     1      22.875  47.300  50.467  1.00  0.00     0.170 HD
BRANCH  12  16
HETATM   16  C   UNL     1      19.687  48.527  48.610  1.00  0.00     0.118 C 
HETATM   17  C   UNL     1      19.104  49.924  48.881  1.00  0.00     0.210 C 
HETATM   18  N   UNL     1      17.738  49.812  48.230  1.00  0.00    -0.065 N 
HETATM   19  C   UNL     1      19.832  51.103  48.257  1.00  0.00     0.035 C 
HETATM   20  H   UNL     1      17.856  49.760  47.209  1.00  0.00     0.280 HD
HETATM   21  C   UNL     1      16.875  50.999  48.522  1.00  0.00     0.235 C 
HETATM   22  C   UNL     1      17.227  48.474  48.695  1.00  0.00     0.237 C 
HETATM   23  C   UNL     1      17.570  52.236  47.953  1.00  0.00     0.028 C 
HETATM   24  C   UNL     1      19.012  52.385  48.450  1.00  0.00     0.004 C 
HETATM   25  C   UNL     1      18.476  47.601  48.817  1.00  0.00     0.055 C 
ENDBRANCH  12  16
ENDBRANCH   8  10
TORSDOF 2
ENDMDL
MODEL 5
REMARK VINA RESULT:      -8.1      3.803      5.333
REMARK  2 active torsions:
REMARK  status: ('A' for Active; 'I' for Inactive)
REMARK    1  A    between atoms: C_8  and  N_9 
REMARK       I    between atoms: N_9  and  C_10 
REMARK       I    between atoms: C_10  and  N_11 
REMARK    2  A    between atoms: N_11  and  C_12 
ROOT
HETATM    1  C   UNL     1      29.910  42.996  54.854  1.00  0.00     0.044 A 
HETATM    2  C   UNL     1      30.075  44.274  55.370  1.00  0.00     0.117 A 
HETATM    3  F   UNL     1      31.198  44.579  56.029  1.00  0.00    -0.206 F 
HETATM    4  C   UNL     1      29.078  45.232  55.237  1.00  0.00     0.067 A 
HETATM    5  C   UNL     1      27.892  44.921  54.557  1.00  0.00     0.074 A 
HETATM    6  C   UNL     1      26.839  45.898  54.595  1.00  0.00     0.102 C 
HETATM    7  N   UNL     1      25.973  46.671  54.661  1.00  0.00    -0.191 NA
HETATM    8  C   UNL     1      27.731  43.639  53.983  1.00  0.00     0.057 A 
HETATM    9  C   UNL     1      28.737  42.676  54.169  1.00  0.00     0.034 A 
ENDROOT
BRANCH   8  10
HETATM   10  N   UNL     1      26.587  43.212  53.261  1.00  0.00    -0.308 N 
HETATM   11  C   UNL     1      26.382  43.446  51.923  1.00  0.00     0.321 C 
HETATM   12  N   UNL     1      25.081  43.190  51.555  1.00  0.00    -0.336 N 
HETATM   13  O   UNL     1      27.224  43.828  51.123  1.00  0.00    -0.247 OA
HETATM   14  H   UNL     1      24.428  43.216  52.328  1.00  0.00     0.164 HD
HETATM   15  H   UNL     1      26.112  42.391  53.614  1.00  0.00     0.170 HD
BRANCH  12  16
HETATM   16  C   UNL     1      24.564  43.594  50.256  1.00  0.00     0.118 C 
HETATM   17  C   UNL     1      23.874  44.964  50.158  1.00  0.00     0.210 C 
HETATM   18  N   UNL     1      23.161  44.847  48.823  1.00  0.00    -0.065 N 
HETATM   19  C   UNL     1      24.777  46.186  50.108  1.00  0.00     0.035 C 
HETATM   20  H   UNL     1      23.862  44.840  48.069  1.00  0.00     0.280 HD
HETATM   21  C   UNL     1      22.241  46.000  48.571  1.00  0.00     0.235 C 
HETATM   22  C   UNL     1      22.533  43.480  48.869  1.00  0.00     0.237 C 
HETATM   23  C   UNL     1      23.083  47.276  48.548  1.00  0.00     0.028 C 
HETATM   24  C   UNL     1      23.946  47.438  49.804  1.00  0.00     0.004 C 
HETATM   25  C   UNL     1      23.507  42.632  49.689  1.00  0.00     0.055 C 
ENDBRANCH  12  16
ENDBRANCH   8  10
TORSDOF 2
ENDMDL
MODEL 6
REMARK VINA RESULT:      -7.9      9.673     11.469
REMARK  2 active torsions:
REMARK  status: ('A' for Active; 'I' for Inactive)
REMARK    1  A    between atoms: C_8  and  N_9 
REMARK       I    between atoms: N_9  and  C_10 
REMARK       I    between atoms: C_10  and  N_11 
REMARK    2  A    between atoms: N_11  and  C_12 
ROOT
HETATM    1  C   UNL     1      26.707  47.803  49.741  1.00  0.00     0.044 A 
HETATM    2  C   UNL     1      27.022  48.964  49.050  1.00  0.00     0.117 A 
HETATM    3  F   UNL     1      28.306  49.295  48.869  1.00  0.00    -0.206 F 
HETATM    4  C   UNL     1      26.025  49.802  48.568  1.00  0.00     0.067 A 
HETATM    5  C   UNL     1      24.676  49.471  48.760  1.00  0.00     0.074 A 
HETATM    6  C   UNL     1      23.700  50.456  48.383  1.00  0.00     0.102 C 
HETATM    7  N   UNL     1      22.912  51.269  48.117  1.00  0.00    -0.191 NA
HETATM    8  C   UNL     1      24.339  48.267  49.419  1.00  0.00     0.057 A 
HETATM    9  C   UNL     1      25.367  47.459  49.934  1.00  0.00     0.034 A 
ENDROOT
BRANCH   8  10
HETATM   10  N   UNL     1      23.016  47.817  49.660  1.00  0.00    -0.308 N 
HETATM   11  C   UNL     1      22.119  47.484  48.674  1.00  0.00     0.321 C 
HETATM   12  N   UNL     1      20.839  47.370  49.168  1.00  0.00    -0.336 N 
HETATM   13  O   UNL     1      22.384  47.295  47.495  1.00  0.00    -0.247 OA
HETATM   14  H   UNL     1      20.695  47.866  50.039  1.00  0.00     0.164 HD
HETATM   15  H   UNL     1      22.852  47.351  50.543  1.00  0.00     0.170 HD
BRANCH  12  16
HETATM   16  C   UNL     1      19.689  47.267  48.283  1.00  0.00     0.118 C 
HETATM   17  C   UNL     1      18.431  48.071  48.651  1.00  0.00     0.210 C 
HETATM   18  N   UNL     1      17.387  47.421  47.762  1.00  0.00    -0.065 N 
HETATM   19  C   UNL     1      18.453  49.559  48.345  1.00  0.00     0.035 C 
HETATM   20  H   UNL     1      17.586  47.660  46.780  1.00  0.00     0.280 HD
HETATM   21  C   UNL     1      16.004  47.901  48.069  1.00  0.00     0.235 C 
HETATM   22  C   UNL     1      17.642  45.946  47.927  1.00  0.00     0.237 C 
HETATM   23  C   UNL     1      15.965  49.408  47.820  1.00  0.00     0.028 C 
HETATM   24  C   UNL     1      17.063  50.162  48.579  1.00  0.00     0.004 C 
HETATM   25  C   UNL     1      19.153  45.833  48.136  1.00  0.00     0.055 C 
ENDBRANCH  12  16
ENDBRANCH   8  10
TORSDOF 2
ENDMDL
MODEL 7
REMARK VINA RESULT:      -7.8      1.423      1.647
REMARK  2 active torsions:
REMARK  status: ('A' for Active; 'I' for Inactive)
REMARK    1  A    between atoms: C_8  and  N_9 
REMARK       I    between atoms: N_9  and  C_10 
REMARK       I    between atoms: C_10  and  N_11 
REMARK    2  A    between atoms: N_11  and  C_12 
ROOT
HETATM    1  C   UNL     1      30.853  43.261  55.718  1.00  0.00     0.044 A 
HETATM    2  C   UNL     1      30.911  44.327  56.605  1.00  0.00     0.117 A 
HETATM    3  F   UNL     1      31.783  44.293  57.619  1.00  0.00    -0.206 F 
HETATM    4  C   UNL     1      30.058  45.414  56.472  1.00  0.00     0.067 A 
HETATM    5  C   UNL     1      29.132  45.456  55.419  1.00  0.00     0.074 A 
HETATM    6  C   UNL     1      28.173  46.526  55.432  1.00  0.00     0.102 C 
HETATM    7  N   UNL     1      27.370  47.367  55.466  1.00  0.00    -0.191 NA
HETATM    8  C   UNL     1      29.096  44.402  54.478  1.00  0.00     0.057 A 
HETATM    9  C   UNL     1      29.941  43.294  54.661  1.00  0.00     0.034 A 
ENDROOT
BRANCH   8  10
HETATM   10  N   UNL     1      28.219  44.338  53.366  1.00  0.00    -0.308 N 
HETATM   11  C   UNL     1      27.473  43.235  53.029  1.00  0.00     0.321 C 
HETATM   12  N   UNL     1      26.949  43.344  51.760  1.00  0.00    -0.336 N 
HETATM   13  O   UNL     1      27.270  42.260  53.738  1.00  0.00    -0.247 OA
HETATM   14  H   UNL     1      27.447  43.999  51.170  1.00  0.00     0.164 HD
HETATM   15  H   UNL     1      27.823  45.216  53.054  1.00  0.00     0.170 HD
BRANCH  12  16
HETATM   16  C   UNL     1      26.334  42.207  51.092  1.00  0.00     0.118 C 
HETATM   17  C   UNL     1      27.061  41.616  49.873  1.00  0.00     0.210 C 
HETATM   18  N   UNL     1      25.970  40.765  49.254  1.00  0.00    -0.065 N 
HETATM   19  C   UNL     1      28.258  40.722  50.156  1.00  0.00     0.035 C 
HETATM   20  H   UNL     1      25.777  39.964  49.872  1.00  0.00     0.280 HD
HETATM   21  C   UNL     1      26.368  40.217  47.919  1.00  0.00     0.235 C 
HETATM   22  C   UNL     1      24.758  41.658  49.282  1.00  0.00     0.237 C 
HETATM   23  C   UNL     1      27.598  39.333  48.124  1.00  0.00     0.028 C 
HETATM   24  C   UNL     1      28.732  40.058  48.858  1.00  0.00     0.004 C 
HETATM   25  C   UNL     1      24.927  42.505  50.544  1.00  0.00     0.055 C 
ENDBRANCH  12  16
ENDBRANCH   8  10
TORSDOF 2
ENDMDL
MODEL 8
REMARK VINA RESULT:      -7.8      3.761      7.940
REMARK  2 active torsions:
REMARK  status: ('A' for Active; 'I' for Inactive)
REMARK    1  A    between atoms: C_8  and  N_9 
REMARK       I    between atoms: N_9  and  C_10 
REMARK       I    between atoms: C_10  and  N_11 
REMARK    2  A    between atoms: N_11  and  C_12 
ROOT
HETATM    1  C   UNL     1      26.433  39.987  49.673  1.00  0.00     0.044 A 
HETATM    2  C   UNL     1      25.625  40.179  48.561  1.00  0.00     0.117 A 
HETATM    3  F   UNL     1      25.663  39.294  47.559  1.00  0.00    -0.206 F 
HETATM    4  C   UNL     1      24.800  41.291  48.461  1.00  0.00     0.067 A 
HETATM    5  C   UNL     1      24.759  42.232  49.501  1.00  0.00     0.074 A 
HETATM    6  C   UNL     1      24.012  43.437  49.266  1.00  0.00     0.102 C 
HETATM    7  N   UNL     1      23.443  44.429  49.060  1.00  0.00    -0.191 NA
HETATM    8  C   UNL     1      25.538  42.024  50.662  1.00  0.00     0.057 A 
HETATM    9  C   UNL     1      26.396  40.913  50.718  1.00  0.00     0.034 A 
ENDROOT
BRANCH   8  10
HETATM   10  N   UNL     1      25.570  42.892  51.782  1.00  0.00    -0.308 N 
HETATM   11  C   UNL     1      26.540  43.840  52.001  1.00  0.00     0.321 C 
HETATM   12  N   UNL     1      26.493  44.328  53.287  1.00  0.00    -0.336 N 
HETATM   13  O   UNL     1      27.357  44.235  51.182  1.00  0.00    -0.247 OA
HETATM   14  H   UNL     1      26.030  43.708  53.940  1.00  0.00     0.164 HD
HETATM   15  H   UNL     1      24.679  43.106  52.213  1.00  0.00     0.170 HD
BRANCH  12  16
HETATM   16  C   UNL     1      27.563  45.154  53.827  1.00  0.00     0.118 C 
HETATM   17  C   UNL     1      28.518  44.509  54.845  1.00  0.00     0.210 C 
HETATM   18  N   UNL     1      29.198  45.730  55.435  1.00  0.00    -0.065 N 
HETATM   19  C   UNL     1      29.593  43.589  54.290  1.00  0.00     0.035 C 
HETATM   20  H   UNL     1      29.807  46.153  54.721  1.00  0.00     0.280 HD
HETATM   21  C   UNL     1      30.058  45.386  56.610  1.00  0.00     0.235 C 
HETATM   22  C   UNL     1      28.064  46.687  55.686  1.00  0.00     0.237 C 
HETATM   23  C   UNL     1      31.145  44.425  56.130  1.00  0.00     0.028 C 
HETATM   24  C   UNL     1      30.575  43.202  55.403  1.00  0.00     0.004 C 
HETATM   25  C   UNL     1      27.060  46.404  54.567  1.00  0.00     0.055 C 
ENDBRANCH  12  16
ENDBRANCH   8  10
TORSDOF 2
ENDMDL
MODEL 9
REMARK VINA RESULT:      -7.8      3.287      7.852
REMARK  2 active torsions:
REMARK  status: ('A' for Active; 'I' for Inactive)
REMARK    1  A    between atoms: C_8  and  N_9 
REMARK       I    between atoms: N_9  and  C_10 
REMARK       I    between atoms: C_10  and  N_11 
REMARK    2  A    between atoms: N_11  and  C_12 
ROOT
HETATM    1  C   UNL     1      28.606  37.719  49.805  1.00  0.00     0.044 A 
HETATM    2  C   UNL     1      27.274  37.784  49.423  1.00  0.00     0.117 A 
HETATM    3  F   UNL     1      26.720  36.745  48.787  1.00  0.00    -0.206 F 
HETATM    4  C   UNL     1      26.515  38.921  49.667  1.00  0.00     0.067 A 
HETATM    5  C   UNL     1      27.088  40.020  50.324  1.00  0.00     0.074 A 
HETATM    6  C   UNL     1      26.302  41.221  50.400  1.00  0.00     0.102 C 
HETATM    7  N   UNL     1      25.683  42.204  50.424  1.00  0.00    -0.191 NA
HETATM    8  C   UNL     1      28.430  39.950  50.763  1.00  0.00     0.057 A 
HETATM    9  C   UNL     1      29.186  38.804  50.466  1.00  0.00     0.034 A 
ENDROOT
BRANCH   8  10
HETATM   10  N   UNL     1      29.113  40.986  51.449  1.00  0.00    -0.308 N 
HETATM   11  C   UNL     1      28.836  41.378  52.736  1.00  0.00     0.321 C 
HETATM   12  N   UNL     1      29.434  42.579  53.042  1.00  0.00    -0.336 N 
HETATM   13  O   UNL     1      28.154  40.764  53.543  1.00  0.00    -0.247 OA
HETATM   14  H   UNL     1      29.670  43.134  52.228  1.00  0.00     0.164 HD
HETATM   15  H   UNL     1      30.066  41.167  51.157  1.00  0.00     0.170 HD
BRANCH  12  16
HETATM   16  C   UNL     1      29.092  43.314  54.250  1.00  0.00     0.118 C 
HETATM   17  C   UNL     1      28.546  44.742  54.087  1.00  0.00     0.210 C 
HETATM   18  N   UNL     1      28.684  45.281  55.498  1.00  0.00    -0.065 N 
HETATM   19  C   UNL     1      27.092  44.878  53.667  1.00  0.00     0.035 C 
HETATM   20  H   UNL     1      28.009  44.799  56.109  1.00  0.00     0.280 HD
HETATM   21  C   UNL     1      28.393  46.747  55.575  1.00  0.00     0.235 C 
HETATM   22  C   UNL     1      30.063  44.843  55.917  1.00  0.00     0.237 C 
HETATM   23  C   UNL     1      26.948  46.962  55.126  1.00  0.00     0.028 C 
HETATM   24  C   UNL     1      26.658  46.346  53.753  1.00  0.00     0.004 C 
HETATM   25  C   UNL     1      30.278  43.504  55.211  1.00  0.00     0.055 C 
ENDBRANCH  12  16
ENDBRANCH   8  10
TORSDOF 2
ENDMDL
MODEL 10
REMARK VINA RESULT:      -7.8      2.329      3.729
REMARK  2 active torsions:
REMARK  status: ('A' for Active; 'I' for Inactive)
REMARK    1  A    between atoms: C_8  and  N_9 
REMARK       I    between atoms: N_9  and  C_10 
REMARK       I    between atoms: C_10  and  N_11 
REMARK    2  A    between atoms: N_11  and  C_12 
ROOT
HETATM    1  C   UNL     1      30.605  43.981  55.740  1.00  0.00     0.044 A 
HETATM    2  C   UNL     1      30.076  45.221  56.069  1.00  0.00     0.117 A 
HETATM    3  F   UNL     1      30.780  46.053  56.844  1.00  0.00    -0.206 F 
HETATM    4  C   UNL     1      28.814  45.599  55.628  1.00  0.00     0.067 A 
HETATM    5  C   UNL     1      28.062  44.731  54.823  1.00  0.00     0.074 A 
HETATM    6  C   UNL     1      26.707  45.111  54.537  1.00  0.00     0.102 C 
HETATM    7  N   UNL     1      25.597  45.399  54.341  1.00  0.00    -0.191 NA
HETATM    8  C   UNL     1      28.609  43.485  54.439  1.00  0.00     0.057 A 
HETATM    9  C   UNL     1      29.869  43.110  54.934  1.00  0.00     0.034 A 
ENDROOT
BRANCH   8  10
HETATM   10  N   UNL     1      27.954  42.531  53.618  1.00  0.00    -0.308 N 
HETATM   11  C   UNL     1      27.774  42.668  52.264  1.00  0.00     0.321 C 
HETATM   12  N   UNL     1      26.863  41.757  51.777  1.00  0.00    -0.336 N 
HETATM   13  O   UNL     1      28.336  43.478  51.542  1.00  0.00    -0.247 OA
HETATM   14  H   UNL     1      26.237  41.392  52.484  1.00  0.00     0.164 HD
HETATM   15  H   UNL     1      27.976  41.571  53.938  1.00  0.00     0.170 HD
BRANCH  12  16
HETATM   16  C   UNL     1      26.327  41.864  50.429  1.00  0.00     0.118 C 
HETATM   17  C   UNL     1      24.828  42.169  50.280  1.00  0.00     0.210 C 
HETATM   18  N   UNL     1      24.593  41.820  48.822  1.00  0.00    -0.065 N 
HETATM   19  C   UNL     1      24.396  43.610  50.498  1.00  0.00     0.035 C 
HETATM   20  H   UNL     1      25.072  42.512  48.230  1.00  0.00     0.280 HD
HETATM   21  C   UNL     1      23.141  41.849  48.460  1.00  0.00     0.235 C 
HETATM   22  C   UNL     1      25.306  40.505  48.648  1.00  0.00     0.237 C 
HETATM   23  C   UNL     1      22.627  43.269  48.695  1.00  0.00     0.028 C 
HETATM   24  C   UNL     1      22.922  43.778  50.111  1.00  0.00     0.004 C 
HETATM   25  C   UNL     1      26.505  40.584  49.594  1.00  0.00     0.055 C 
ENDBRANCH  12  16
ENDBRANCH   8  10
TORSDOF 2
ENDMDL
