MODEL 1
REMARK VINA RESULT:     -10.3      0.000      0.000
REMARK  3 active torsions:
REMARK  status: ('A' for Active; 'I' for Inactive)
REMARK    1  A    between atoms: C_2  and  N_3 
REMARK       I    between atoms: N_6  and  C_7 
REMARK    2  A    between atoms: C_7  and  C_8 
REMARK    3  A    between atoms: C_24  and  O_25 
ROOT
HETATM    1  N   UNL     1      27.620  45.734  54.713  1.00  0.00    -0.280 NA
HETATM    2  C   UNL     1      27.555  44.584  53.772  1.00  0.00     0.115 C 
HETATM    3  C   UNL     1      26.342  44.703  52.830  1.00  0.00     0.141 C 
HETATM    4  N   UNL     1      26.278  46.010  52.169  1.00  0.00    -0.346 N 
HETATM    5  C   UNL     1      25.621  46.079  50.942  1.00  0.00     0.256 C 
HETATM    6  O   UNL     1      25.031  45.123  50.444  1.00  0.00    -0.267 OA
HETATM    7  C   UNL     1      26.345  47.140  53.111  1.00  0.00     0.141 C 
HETATM    8  C   UNL     1      27.580  47.043  54.025  1.00  0.00     0.115 C 
ENDROOT
BRANCH   5   9
HETATM    9  C   UNL     1      25.679  47.334  50.166  1.00  0.00     0.064 A 
HETATM   10  C   UNL     1      24.531  47.913  49.665  1.00  0.00     0.077 A 
HETATM   11  C   UNL     1      24.572  49.085  48.905  1.00  0.00     0.065 A 
HETATM   12  N   UNL     1      23.193  47.521  49.762  1.00  0.00    -0.330 N 
HETATM   13  N   UNL     1      23.267  49.415  48.545  1.00  0.00    -0.331 N 
HETATM   14  C   UNL     1      25.749  49.723  48.596  1.00  0.00     0.074 A 
HETATM   15  C   UNL     1      22.406  48.437  49.060  1.00  0.00     0.176 A 
HETATM   16  H   UNL     1      22.974  50.195  47.975  1.00  0.00     0.168 HD
HETATM   17  S   UNL     1      20.772  48.379  48.859  1.00  0.00    -0.041 SA
HETATM   18  C   UNL     1      26.916  49.125  49.069  1.00  0.00     0.119 A 
HETATM   19  F   UNL     1      28.097  49.690  48.785  1.00  0.00    -0.206 F 
HETATM   20  C   UNL     1      26.898  47.944  49.833  1.00  0.00     0.061 A 
HETATM   21  H   UNL     1      22.871  46.665  50.199  1.00  0.00     0.168 HD
ENDBRANCH   5   9
BRANCH   1  22
HETATM   22  C   UNL     1      28.590  45.561  55.720  1.00  0.00     0.010 A 
HETATM   23  C   UNL     1      28.527  46.187  56.975  1.00  0.00     0.026 A 
HETATM   24  C   UNL     1      29.520  45.987  57.941  1.00  0.00     0.038 A 
HETATM   25  C   UNL     1      30.588  45.145  57.670  1.00  0.00     0.065 A 
HETATM   26  C   UNL     1      30.676  44.494  56.448  1.00  0.00     0.038 A 
HETATM   27  C   UNL     1      29.679  44.702  55.488  1.00  0.00     0.026 A 
BRANCH  25  28
HETATM   28  O   UNL     1      31.533  44.981  58.637  1.00  0.00    -0.361 OA
HETATM   29  H   UNL     1      31.587  44.038  58.859  1.00  0.00     0.217 HD
ENDBRANCH  25  28
ENDBRANCH   1  22
TORSDOF 3
ENDMDL
MODEL 2
REMARK VINA RESULT:      -9.5      1.665      2.099
REMARK  3 active torsions:
REMARK  status: ('A' for Active; 'I' for Inactive)
REMARK    1  A    between atoms: C_2  and  N_3 
REMARK       I    between atoms: N_6  and  C_7 
REMARK    2  A    between atoms: C_7  and  C_8 
REMARK    3  A    between atoms: C_24  and  O_25 
ROOT
HETATM    1  N   UNL     1      28.495  44.256  54.069  1.00  0.00    -0.280 NA
HETATM    2  C   UNL     1      29.117  43.686  52.844  1.00  0.00     0.115 C 
HETATM    3  C   UNL     1      28.068  43.459  51.740  1.00  0.00     0.141 C 
HETATM    4  N   UNL     1      27.259  44.656  51.488  1.00  0.00    -0.346 N 
HETATM    5  C   UNL     1      26.693  44.794  50.222  1.00  0.00     0.256 C 
HETATM    6  O   UNL     1      26.773  43.928  49.354  1.00  0.00    -0.267 OA
HETATM    7  C   UNL     1      26.651  45.211  52.707  1.00  0.00     0.141 C 
HETATM    8  C   UNL     1      27.705  45.477  53.797  1.00  0.00     0.115 C 
ENDROOT
BRANCH   5   9
HETATM    9  C   UNL     1      26.015  46.060  49.874  1.00  0.00     0.064 A 
HETATM   10  C   UNL     1      24.677  46.078  49.537  1.00  0.00     0.077 A 
HETATM   11  C   UNL     1      24.027  47.262  49.177  1.00  0.00     0.065 A 
HETATM   12  N   UNL     1      23.738  45.045  49.464  1.00  0.00    -0.330 N 
HETATM   13  N   UNL     1      22.697  46.959  48.893  1.00  0.00    -0.331 N 
HETATM   14  C   UNL     1      24.677  48.471  49.120  1.00  0.00     0.074 A 
HETATM   15  C   UNL     1      22.515  45.579  49.052  1.00  0.00     0.176 A 
HETATM   16  H   UNL     1      21.982  47.600  48.583  1.00  0.00     0.168 HD
HETATM   17  S   UNL     1      21.118  44.747  48.788  1.00  0.00    -0.041 SA
HETATM   18  C   UNL     1      26.038  48.455  49.425  1.00  0.00     0.119 A 
HETATM   19  F   UNL     1      26.730  49.600  49.369  1.00  0.00    -0.206 F 
HETATM   20  C   UNL     1      26.711  47.274  49.786  1.00  0.00     0.061 A 
HETATM   21  H   UNL     1      23.947  44.063  49.604  1.00  0.00     0.168 HD
ENDBRANCH   5   9
BRANCH   1  22
HETATM   22  C   UNL     1      29.378  44.287  55.167  1.00  0.00     0.010 A 
HETATM   23  C   UNL     1      30.343  43.300  55.416  1.00  0.00     0.026 A 
HETATM   24  C   UNL     1      31.195  43.375  56.524  1.00  0.00     0.038 A 
HETATM   25  C   UNL     1      31.101  44.448  57.396  1.00  0.00     0.065 A 
HETATM   26  C   UNL     1      30.171  45.454  57.173  1.00  0.00     0.038 A 
HETATM   27  C   UNL     1      29.323  45.369  56.064  1.00  0.00     0.026 A 
BRANCH  25  28
HETATM   28  O   UNL     1      31.946  44.480  58.463  1.00  0.00    -0.361 OA
HETATM   29  H   UNL     1      31.983  43.592  58.855  1.00  0.00     0.217 HD
ENDBRANCH  25  28
ENDBRANCH   1  22
TORSDOF 3
ENDMDL
MODEL 3
REMARK VINA RESULT:      -9.5      1.350      1.877
REMARK  3 active torsions:
REMARK  status: ('A' for Active; 'I' for Inactive)
REMARK    1  A    between atoms: C_2  and  N_3 
REMARK       I    between atoms: N_6  and  C_7 
REMARK    2  A    between atoms: C_7  and  C_8 
REMARK    3  A    between atoms: C_24  and  O_25 
ROOT
HETATM    1  N   UNL     1      26.892  45.461  53.429  1.00  0.00    -0.280 NA
HETATM    2  C   UNL     1      26.645  44.470  52.347  1.00  0.00     0.115 C 
HETATM    3  C   UNL     1      25.309  44.745  51.632  1.00  0.00     0.141 C 
HETATM    4  N   UNL     1      25.190  46.139  51.193  1.00  0.00    -0.346 N 
HETATM    5  C   UNL     1      24.358  46.402  50.107  1.00  0.00     0.256 C 
HETATM    6  O   UNL     1      23.668  45.541  49.568  1.00  0.00    -0.267 OA
HETATM    7  C   UNL     1      25.438  47.110  52.272  1.00  0.00     0.141 C 
HETATM    8  C   UNL     1      26.793  46.860  52.959  1.00  0.00     0.115 C 
ENDROOT
BRANCH   5   9
HETATM    9  C   UNL     1      24.342  47.762  49.529  1.00  0.00     0.064 A 
HETATM   10  C   UNL     1      23.151  48.418  49.291  1.00  0.00     0.077 A 
HETATM   11  C   UNL     1      23.118  49.692  48.718  1.00  0.00     0.065 A 
HETATM   12  N   UNL     1      21.830  48.024  49.520  1.00  0.00    -0.330 N 
HETATM   13  N   UNL     1      21.785  50.081  48.603  1.00  0.00    -0.331 N 
HETATM   14  C   UNL     1      24.257  50.362  48.342  1.00  0.00     0.074 A 
HETATM   15  C   UNL     1      20.978  49.041  49.083  1.00  0.00     0.176 A 
HETATM   16  H   UNL     1      21.436  50.941  48.206  1.00  0.00     0.168 HD
HETATM   17  S   UNL     1      19.331  49.025  49.114  1.00  0.00    -0.041 SA
HETATM   18  C   UNL     1      25.462  49.692  48.547  1.00  0.00     0.119 A 
HETATM   19  F   UNL     1      26.606  50.285  48.185  1.00  0.00    -0.206 F 
HETATM   20  C   UNL     1      25.518  48.408  49.119  1.00  0.00     0.061 A 
HETATM   21  H   UNL     1      21.549  47.113  49.864  1.00  0.00     0.168 HD
ENDBRANCH   5   9
BRANCH   1  22
HETATM   22  C   UNL     1      27.996  45.125  54.236  1.00  0.00     0.010 A 
HETATM   23  C   UNL     1      28.744  43.948  54.079  1.00  0.00     0.026 A 
HETATM   24  C   UNL     1      29.832  43.658  54.911  1.00  0.00     0.038 A 
HETATM   25  C   UNL     1      30.196  44.550  55.908  1.00  0.00     0.065 A 
HETATM   26  C   UNL     1      29.493  45.733  56.082  1.00  0.00     0.038 A 
HETATM   27  C   UNL     1      28.405  46.013  55.247  1.00  0.00     0.026 A 
BRANCH  25  28
HETATM   28  O   UNL     1      31.259  44.227  56.697  1.00  0.00    -0.361 OA
HETATM   29  H   UNL     1      31.410  44.954  57.323  1.00  0.00     0.217 HD
ENDBRANCH  25  28
ENDBRANCH   1  22
TORSDOF 3
ENDMDL
MODEL 4
REMARK VINA RESULT:      -9.0      2.882      3.749
REMARK  3 active torsions:
REMARK  status: ('A' for Active; 'I' for Inactive)
REMARK    1  A    between atoms: C_2  and  N_3 
REMARK       I    between atoms: N_6  and  C_7 
REMARK    2  A    between atoms: C_7  and  C_8 
REMARK    3  A    between atoms: C_24  and  O_25 
ROOT
HETATM    1  N   UNL     1      28.776  43.496  54.120  1.00  0.00    -0.280 NA
HETATM    2  C   UNL     1      29.577  43.336  52.876  1.00  0.00     0.115 C 
HETATM    3  C   UNL     1      28.726  42.741  51.738  1.00  0.00     0.141 C 
HETATM    4  N   UNL     1      27.471  43.475  51.542  1.00  0.00    -0.346 N 
HETATM    5  C   UNL     1      26.892  43.430  50.275  1.00  0.00     0.256 C 
HETATM    6  O   UNL     1      27.339  42.744  49.358  1.00  0.00    -0.267 OA
HETATM    7  C   UNL     1      26.690  43.628  52.779  1.00  0.00     0.141 C 
HETATM    8  C   UNL     1      27.528  44.260  53.905  1.00  0.00     0.115 C 
ENDROOT
BRANCH   5   9
HETATM    9  C   UNL     1      25.724  44.288  49.989  1.00  0.00     0.064 A 
HETATM   10  C   UNL     1      25.880  45.636  49.733  1.00  0.00     0.077 A 
HETATM   11  C   UNL     1      24.783  46.467  49.490  1.00  0.00     0.065 A 
HETATM   12  N   UNL     1      27.030  46.427  49.671  1.00  0.00    -0.330 N 
HETATM   13  N   UNL     1      25.257  47.759  49.272  1.00  0.00    -0.331 N 
HETATM   14  C   UNL     1      23.489  46.004  49.505  1.00  0.00     0.074 A 
HETATM   15  C   UNL     1      26.653  47.745  49.401  1.00  0.00     0.176 A 
HETATM   16  H   UNL     1      24.706  48.585  49.093  1.00  0.00     0.168 HD
HETATM   17  S   UNL     1      27.653  49.047  49.268  1.00  0.00    -0.041 SA
HETATM   18  C   UNL     1      23.322  44.651  49.797  1.00  0.00     0.119 A 
HETATM   19  F   UNL     1      22.083  44.145  49.845  1.00  0.00    -0.206 F 
HETATM   20  C   UNL     1      24.411  43.798  50.049  1.00  0.00     0.061 A 
HETATM   21  H   UNL     1      27.968  46.103  49.878  1.00  0.00     0.168 HD
ENDBRANCH   5   9
BRANCH   1  22
HETATM   22  C   UNL     1      29.563  43.842  55.236  1.00  0.00     0.010 A 
HETATM   23  C   UNL     1      30.606  43.043  55.729  1.00  0.00     0.026 A 
HETATM   24  C   UNL     1      31.357  43.430  56.845  1.00  0.00     0.038 A 
HETATM   25  C   UNL     1      31.083  44.632  57.479  1.00  0.00     0.065 A 
HETATM   26  C   UNL     1      30.072  45.459  57.010  1.00  0.00     0.038 A 
HETATM   27  C   UNL     1      29.325  45.062  55.894  1.00  0.00     0.026 A 
BRANCH  25  28
HETATM   28  O   UNL     1      31.835  44.968  58.564  1.00  0.00    -0.361 OA
HETATM   29  H   UNL     1      31.590  44.387  59.302  1.00  0.00     0.217 HD
ENDBRANCH  25  28
ENDBRANCH   1  22
TORSDOF 3
ENDMDL
MODEL 5
REMARK VINA RESULT:      -9.0      3.866      4.633
REMARK  3 active torsions:
REMARK  status: ('A' for Active; 'I' for Inactive)
REMARK    1  A    between atoms: C_2  and  N_3 
REMARK       I    between atoms: N_6  and  C_7 
REMARK    2  A    between atoms: C_7  and  C_8 
REMARK    3  A    between atoms: C_24  and  O_25 
ROOT
HETATM    1  N   UNL     1      28.306  44.632  54.080  1.00  0.00    -0.280 NA
HETATM    2  C   UNL     1      26.903  44.692  54.569  1.00  0.00     0.115 C 
HETATM    3  C   UNL     1      25.924  45.000  53.420  1.00  0.00     0.141 C 
HETATM    4  N   UNL     1      26.112  44.104  52.276  1.00  0.00    -0.346 N 
HETATM    5  C   UNL     1      25.015  43.885  51.444  1.00  0.00     0.256 C 
HETATM    6  O   UNL     1      23.943  44.469  51.582  1.00  0.00    -0.267 OA
HETATM    7  C   UNL     1      27.504  44.051  51.802  1.00  0.00     0.141 C 
HETATM    8  C   UNL     1      28.478  43.703  52.941  1.00  0.00     0.115 C 
ENDROOT
BRANCH   5   9
HETATM    9  C   UNL     1      25.112  42.861  50.383  1.00  0.00     0.064 A 
HETATM   10  C   UNL     1      24.550  43.073  49.140  1.00  0.00     0.077 A 
HETATM   11  C   UNL     1      24.608  42.104  48.135  1.00  0.00     0.065 A 
HETATM   12  N   UNL     1      23.852  44.170  48.628  1.00  0.00    -0.330 N 
HETATM   13  N   UNL     1      23.957  42.606  47.010  1.00  0.00    -0.331 N 
HETATM   14  C   UNL     1      25.208  40.882  48.322  1.00  0.00     0.074 A 
HETATM   15  C   UNL     1      23.468  43.883  47.316  1.00  0.00     0.176 A 
HETATM   16  H   UNL     1      23.812  42.132  46.131  1.00  0.00     0.168 HD
HETATM   17  S   UNL     1      22.595  44.855  46.312  1.00  0.00    -0.041 SA
HETATM   18  C   UNL     1      25.747  40.647  49.586  1.00  0.00     0.119 A 
HETATM   19  F   UNL     1      26.329  39.468  49.836  1.00  0.00    -0.206 F 
HETATM   20  C   UNL     1      25.696  41.607  50.613  1.00  0.00     0.061 A 
HETATM   21  H   UNL     1      23.597  44.994  49.160  1.00  0.00     0.168 HD
ENDBRANCH   5   9
BRANCH   1  22
HETATM   22  C   UNL     1      29.247  44.556  55.125  1.00  0.00     0.010 A 
HETATM   23  C   UNL     1      29.352  45.512  56.148  1.00  0.00     0.026 A 
HETATM   24  C   UNL     1      30.308  45.393  57.163  1.00  0.00     0.038 A 
HETATM   25  C   UNL     1      31.169  44.307  57.178  1.00  0.00     0.065 A 
HETATM   26  C   UNL     1      31.084  43.331  56.195  1.00  0.00     0.038 A 
HETATM   27  C   UNL     1      30.126  43.460  55.182  1.00  0.00     0.026 A 
BRANCH  25  28
HETATM   28  O   UNL     1      32.086  44.232  58.182  1.00  0.00    -0.361 OA
HETATM   29  H   UNL     1      32.477  45.112  58.309  1.00  0.00     0.217 HD
ENDBRANCH  25  28
ENDBRANCH   1  22
TORSDOF 3
ENDMDL
MODEL 6
REMARK VINA RESULT:      -8.8      5.581      6.948
REMARK  3 active torsions:
REMARK  status: ('A' for Active; 'I' for Inactive)
REMARK    1  A    between atoms: C_2  and  N_3 
REMARK       I    between atoms: N_6  and  C_7 
REMARK    2  A    between atoms: C_7  and  C_8 
REMARK    3  A    between atoms: C_24  and  O_25 
ROOT
HETATM    1  N   UNL     1      28.897  43.903  54.009  1.00  0.00    -0.280 NA
HETATM    2  C   UNL     1      27.502  43.411  54.161  1.00  0.00     0.115 C 
HETATM    3  C   UNL     1      26.880  43.067  52.794  1.00  0.00     0.141 C 
HETATM    4  N   UNL     1      27.736  42.178  52.002  1.00  0.00    -0.346 N 
HETATM    5  C   UNL     1      27.117  41.367  51.053  1.00  0.00     0.256 C 
HETATM    6  O   UNL     1      25.916  41.428  50.800  1.00  0.00    -0.267 OA
HETATM    7  C   UNL     1      29.114  42.675  51.861  1.00  0.00     0.141 C 
HETATM    8  C   UNL     1      29.750  42.980  53.229  1.00  0.00     0.115 C 
ENDROOT
BRANCH   5   9
HETATM    9  C   UNL     1      27.918  40.340  50.356  1.00  0.00     0.064 A 
HETATM   10  C   UNL     1      27.797  40.151  48.994  1.00  0.00     0.077 A 
HETATM   11  C   UNL     1      28.526  39.164  48.323  1.00  0.00     0.065 A 
HETATM   12  N   UNL     1      27.005  40.805  48.047  1.00  0.00    -0.330 N 
HETATM   13  N   UNL     1      28.188  39.218  46.972  1.00  0.00    -0.331 N 
HETATM   14  C   UNL     1      29.389  38.315  48.973  1.00  0.00     0.074 A 
HETATM   15  C   UNL     1      27.229  40.225  46.797  1.00  0.00     0.176 A 
HETATM   16  H   UNL     1      28.531  38.617  46.237  1.00  0.00     0.168 HD
HETATM   17  S   UNL     1      26.500  40.633  45.377  1.00  0.00    -0.041 SA
HETATM   18  C   UNL     1      29.490  38.477  50.354  1.00  0.00     0.119 A 
HETATM   19  F   UNL     1      30.301  37.667  51.046  1.00  0.00    -0.206 F 
HETATM   20  C   UNL     1      28.763  39.461  51.049  1.00  0.00     0.061 A 
HETATM   21  H   UNL     1      26.320  41.521  48.261  1.00  0.00     0.168 HD
ENDBRANCH   5   9
BRANCH   1  22
HETATM   22  C   UNL     1      29.428  44.419  55.207  1.00  0.00     0.010 A 
HETATM   23  C   UNL     1      28.877  45.511  55.895  1.00  0.00     0.026 A 
HETATM   24  C   UNL     1      29.446  45.989  57.082  1.00  0.00     0.038 A 
HETATM   25  C   UNL     1      30.571  45.372  57.606  1.00  0.00     0.065 A 
HETATM   26  C   UNL     1      31.134  44.277  56.965  1.00  0.00     0.038 A 
HETATM   27  C   UNL     1      30.559  43.808  55.778  1.00  0.00     0.026 A 
BRANCH  25  28
HETATM   28  O   UNL     1      31.093  45.871  58.760  1.00  0.00    -0.361 OA
HETATM   29  H   UNL     1      32.001  46.169  58.585  1.00  0.00     0.217 HD
ENDBRANCH  25  28
ENDBRANCH   1  22
TORSDOF 3
ENDMDL
MODEL 7
REMARK VINA RESULT:      -8.7      5.656      7.040
REMARK  3 active torsions:
REMARK  status: ('A' for Active; 'I' for Inactive)
REMARK    1  A    between atoms: C_2  and  N_3 
REMARK       I    between atoms: N_6  and  C_7 
REMARK    2  A    between atoms: C_7  and  C_8 
REMARK    3  A    between atoms: C_24  and  O_25 
ROOT
HETATM    1  N   UNL     1      28.852  43.682  53.896  1.00  0.00    -0.280 NA
HETATM    2  C   UNL     1      27.591  42.948  54.185  1.00  0.00     0.115 C 
HETATM    3  C   UNL     1      26.681  42.892  52.943  1.00  0.00     0.141 C 
HETATM    4  N   UNL     1      27.390  42.403  51.756  1.00  0.00    -0.346 N 
HETATM    5  C   UNL     1      26.631  41.791  50.760  1.00  0.00     0.256 C 
HETATM    6  O   UNL     1      25.405  41.724  50.799  1.00  0.00    -0.267 OA
HETATM    7  C   UNL     1      28.637  43.136  51.483  1.00  0.00     0.141 C 
HETATM    8  C   UNL     1      29.564  43.156  52.711  1.00  0.00     0.115 C 
ENDROOT
BRANCH   5   9
HETATM    9  C   UNL     1      27.323  41.136  49.631  1.00  0.00     0.064 A 
HETATM   10  C   UNL     1      28.127  40.033  49.836  1.00  0.00     0.077 A 
HETATM   11  C   UNL     1      28.811  39.419  48.783  1.00  0.00     0.065 A 
HETATM   12  N   UNL     1      28.440  39.334  51.006  1.00  0.00    -0.330 N 
HETATM   13  N   UNL     1      29.533  38.345  49.302  1.00  0.00    -0.331 N 
HETATM   14  C   UNL     1      28.742  39.879  47.491  1.00  0.00     0.074 A 
HETATM   15  C   UNL     1      29.320  38.298  50.687  1.00  0.00     0.176 A 
HETATM   16  H   UNL     1      30.143  37.723  48.794  1.00  0.00     0.168 HD
HETATM   17  S   UNL     1      29.996  37.223  51.736  1.00  0.00    -0.041 SA
HETATM   18  C   UNL     1      27.960  41.014  47.282  1.00  0.00     0.119 A 
HETATM   19  F   UNL     1      27.868  41.522  46.046  1.00  0.00    -0.206 F 
HETATM   20  C   UNL     1      27.266  41.650  48.327  1.00  0.00     0.061 A 
HETATM   21  H   UNL     1      28.140  39.600  51.937  1.00  0.00     0.168 HD
ENDBRANCH   5   9
BRANCH   1  22
HETATM   22  C   UNL     1      29.616  43.931  55.053  1.00  0.00     0.010 A 
HETATM   23  C   UNL     1      30.607  43.060  55.532  1.00  0.00     0.026 A 
HETATM   24  C   UNL     1      31.337  43.352  56.691  1.00  0.00     0.038 A 
HETATM   25  C   UNL     1      31.094  44.528  57.382  1.00  0.00     0.065 A 
HETATM   26  C   UNL     1      30.136  45.424  56.929  1.00  0.00     0.038 A 
HETATM   27  C   UNL     1      29.410  45.122  55.771  1.00  0.00     0.026 A 
BRANCH  25  28
HETATM   28  O   UNL     1      31.825  44.771  58.506  1.00  0.00    -0.361 OA
HETATM   29  H   UNL     1      31.587  45.649  58.845  1.00  0.00     0.217 HD
ENDBRANCH  25  28
ENDBRANCH   1  22
TORSDOF 3
ENDMDL
MODEL 8
REMARK VINA RESULT:      -8.7      1.836      2.278
REMARK  3 active torsions:
REMARK  status: ('A' for Active; 'I' for Inactive)
REMARK    1  A    between atoms: C_2  and  N_3 
REMARK       I    between atoms: N_6  and  C_7 
REMARK    2  A    between atoms: C_7  and  C_8 
REMARK    3  A    between atoms: C_24  and  O_25 
ROOT
HETATM    1  N   UNL     1      27.318  44.419  53.178  1.00  0.00    -0.280 NA
HETATM    2  C   UNL     1      27.652  43.753  51.890  1.00  0.00     0.115 C 
HETATM    3  C   UNL     1      26.404  43.609  50.998  1.00  0.00     0.141 C 
HETATM    4  N   UNL     1      25.686  44.877  50.837  1.00  0.00    -0.346 N 
HETATM    5  C   UNL     1      24.919  45.040  49.685  1.00  0.00     0.256 C 
HETATM    6  O   UNL     1      24.757  44.148  48.857  1.00  0.00    -0.267 OA
HETATM    7  C   UNL     1      25.364  45.527  52.118  1.00  0.00     0.141 C 
HETATM    8  C   UNL     1      26.617  45.708  52.993  1.00  0.00     0.115 C 
ENDROOT
BRANCH   5   9
HETATM    9  C   UNL     1      24.319  46.361  49.404  1.00  0.00     0.064 A 
HETATM   10  C   UNL     1      22.990  46.474  49.051  1.00  0.00     0.077 A 
HETATM   11  C   UNL     1      22.414  47.713  48.754  1.00  0.00     0.065 A 
HETATM   12  N   UNL     1      21.997  45.502  48.902  1.00  0.00    -0.330 N 
HETATM   13  N   UNL     1      21.074  47.503  48.433  1.00  0.00    -0.331 N 
HETATM   14  C   UNL     1      23.131  48.884  48.778  1.00  0.00     0.074 A 
HETATM   15  C   UNL     1      20.813  46.128  48.506  1.00  0.00     0.176 A 
HETATM   16  H   UNL     1      20.401  48.200  48.152  1.00  0.00     0.168 HD
HETATM   17  S   UNL     1      19.376  45.394  48.174  1.00  0.00    -0.041 SA
HETATM   18  C   UNL     1      24.482  48.773  49.101  1.00  0.00     0.119 A 
HETATM   19  F   UNL     1      25.238  49.878  49.123  1.00  0.00    -0.206 F 
HETATM   20  C   UNL     1      25.083  47.537  49.399  1.00  0.00     0.061 A 
HETATM   21  H   UNL     1      22.148  44.503  48.986  1.00  0.00     0.168 HD
ENDBRANCH   5   9
BRANCH   1  22
HETATM   22  C   UNL     1      28.381  44.386  54.101  1.00  0.00     0.010 A 
HETATM   23  C   UNL     1      28.643  45.414  55.021  1.00  0.00     0.026 A 
HETATM   24  C   UNL     1      29.716  45.336  55.917  1.00  0.00     0.038 A 
HETATM   25  C   UNL     1      30.539  44.221  55.913  1.00  0.00     0.065 A 
HETATM   26  C   UNL     1      30.301  43.176  55.032  1.00  0.00     0.038 A 
HETATM   27  C   UNL     1      29.227  43.264  54.139  1.00  0.00     0.026 A 
BRANCH  25  28
HETATM   28  O   UNL     1      31.574  44.188  56.799  1.00  0.00    -0.361 OA
HETATM   29  H   UNL     1      32.332  44.648  56.405  1.00  0.00     0.217 HD
ENDBRANCH  25  28
ENDBRANCH   1  22
TORSDOF 3
ENDMDL
MODEL 9
REMARK VINA RESULT:      -8.3      6.141      9.157
REMARK  3 active torsions:
REMARK  status: ('A' for Active; 'I' for Inactive)
REMARK    1  A    between atoms: C_2  and  N_3 
REMARK       I    between atoms: N_6  and  C_7 
REMARK    2  A    between atoms: C_7  and  C_8 
REMARK    3  A    between atoms: C_24  and  O_25 
ROOT
HETATM    1  N   UNL     1      22.616  49.362  49.029  1.00  0.00    -0.280 NA
HETATM    2  C   UNL     1      21.876  48.095  48.785  1.00  0.00     0.115 C 
HETATM    3  C   UNL     1      20.369  48.268  49.057  1.00  0.00     0.141 C 
HETATM    4  N   UNL     1      19.808  49.424  48.352  1.00  0.00    -0.346 N 
HETATM    5  C   UNL     1      18.448  49.393  48.049  1.00  0.00     0.256 C 
HETATM    6  O   UNL     1      17.699  48.492  48.418  1.00  0.00    -0.267 OA
HETATM    7  C   UNL     1      20.550  50.671  48.598  1.00  0.00     0.141 C 
HETATM    8  C   UNL     1      22.049  50.510  48.288  1.00  0.00     0.115 C 
ENDROOT
BRANCH   5   9
HETATM    9  C   UNL     1      17.879  50.456  47.194  1.00  0.00     0.064 A 
HETATM   10  C   UNL     1      16.941  51.339  47.690  1.00  0.00     0.077 A 
HETATM   11  C   UNL     1      16.372  52.331  46.886  1.00  0.00     0.065 A 
HETATM   12  N   UNL     1      16.374  51.451  48.962  1.00  0.00    -0.330 N 
HETATM   13  N   UNL     1      15.468  53.053  47.664  1.00  0.00    -0.331 N 
HETATM   14  C   UNL     1      16.694  52.480  45.559  1.00  0.00     0.074 A 
HETATM   15  C   UNL     1      15.451  52.499  48.951  1.00  0.00     0.176 A 
HETATM   16  H   UNL     1      14.883  53.818  47.361  1.00  0.00     0.168 HD
HETATM   17  S   UNL     1      14.507  52.992  50.207  1.00  0.00    -0.041 SA
HETATM   18  C   UNL     1      17.615  51.570  45.043  1.00  0.00     0.119 A 
HETATM   19  F   UNL     1      17.955  51.652  43.750  1.00  0.00    -0.206 F 
HETATM   20  C   UNL     1      18.197  50.562  45.832  1.00  0.00     0.061 A 
HETATM   21  H   UNL     1      16.549  50.815  49.732  1.00  0.00     0.168 HD
ENDBRANCH   5   9
BRANCH   1  22
HETATM   22  C   UNL     1      24.014  49.194  48.990  1.00  0.00     0.010 A 
HETATM   23  C   UNL     1      24.698  48.201  49.708  1.00  0.00     0.026 A 
HETATM   24  C   UNL     1      26.091  48.078  49.639  1.00  0.00     0.038 A 
HETATM   25  C   UNL     1      26.822  48.942  48.840  1.00  0.00     0.065 A 
HETATM   26  C   UNL     1      26.180  49.925  48.100  1.00  0.00     0.038 A 
HETATM   27  C   UNL     1      24.787  50.042  48.177  1.00  0.00     0.026 A 
BRANCH  25  28
HETATM   28  O   UNL     1      28.174  48.790  48.804  1.00  0.00    -0.361 OA
HETATM   29  H   UNL     1      28.376  47.853  48.646  1.00  0.00     0.217 HD
ENDBRANCH  25  28
ENDBRANCH   1  22
TORSDOF 3
ENDMDL
MODEL 10
REMARK VINA RESULT:      -7.9      5.048      6.095
REMARK  3 active torsions:
REMARK  status: ('A' for Active; 'I' for Inactive)
REMARK    1  A    between atoms: C_2  and  N_3 
REMARK       I    between atoms: N_6  and  C_7 
REMARK    2  A    between atoms: C_7  and  C_8 
REMARK    3  A    between atoms: C_24  and  O_25 
ROOT
HETATM    1  N   UNL     1      27.633  44.339  53.087  1.00  0.00    -0.280 NA
HETATM    2  C   UNL     1      26.210  44.070  53.425  1.00  0.00     0.115 C 
HETATM    3  C   UNL     1      25.361  43.877  52.154  1.00  0.00     0.141 C 
HETATM    4  N   UNL     1      25.947  42.891  51.240  1.00  0.00    -0.346 N 
HETATM    5  C   UNL     1      25.081  42.222  50.377  1.00  0.00     0.256 C 
HETATM    6  O   UNL     1      23.884  42.483  50.294  1.00  0.00    -0.267 OA
HETATM    7  C   UNL     1      27.356  43.167  50.915  1.00  0.00     0.141 C 
HETATM    8  C   UNL     1      28.212  43.319  52.184  1.00  0.00     0.115 C 
ENDROOT
BRANCH   5   9
HETATM    9  C   UNL     1      25.603  41.105  49.562  1.00  0.00     0.064 A 
HETATM   10  C   UNL     1      25.361  41.045  48.204  1.00  0.00     0.077 A 
HETATM   11  C   UNL     1      25.823  39.981  47.424  1.00  0.00     0.065 A 
HETATM   12  N   UNL     1      24.668  41.916  47.360  1.00  0.00    -0.330 N 
HETATM   13  N   UNL     1      25.422  40.201  46.108  1.00  0.00    -0.331 N 
HETATM   14  C   UNL     1      26.526  38.927  47.956  1.00  0.00     0.074 A 
HETATM   15  C   UNL     1      24.688  41.394  46.064  1.00  0.00     0.176 A 
HETATM   16  H   UNL     1      25.583  39.598  45.316  1.00  0.00     0.168 HD
HETATM   17  S   UNL     1      23.975  42.046  44.730  1.00  0.00    -0.041 SA
HETATM   18  C   UNL     1      26.743  38.964  49.333  1.00  0.00     0.119 A 
HETATM   19  F   UNL     1      27.407  37.956  49.913  1.00  0.00    -0.206 F 
HETATM   20  C   UNL     1      26.285  40.023  50.137  1.00  0.00     0.061 A 
HETATM   21  H   UNL     1      24.164  42.740  47.666  1.00  0.00     0.168 HD
ENDBRANCH   5   9
BRANCH   1  22
HETATM   22  C   UNL     1      28.398  44.722  54.206  1.00  0.00     0.010 A 
HETATM   23  C   UNL     1      28.142  45.874  54.965  1.00  0.00     0.026 A 
HETATM   24  C   UNL     1      28.935  46.214  56.068  1.00  0.00     0.038 A 
HETATM   25  C   UNL     1      29.993  45.397  56.435  1.00  0.00     0.065 A 
HETATM   26  C   UNL     1      30.267  44.239  55.720  1.00  0.00     0.038 A 
HETATM   27  C   UNL     1      29.469  43.910  54.619  1.00  0.00     0.026 A 
BRANCH  25  28
HETATM   28  O   UNL     1      30.741  45.766  57.512  1.00  0.00    -0.361 OA
HETATM   29  H   UNL     1      31.175  44.976  57.872  1.00  0.00     0.217 HD
ENDBRANCH  25  28
ENDBRANCH   1  22
TORSDOF 3
ENDMDL
