MODEL 1
REMARK VINA RESULT:      -9.0      0.000      0.000
REMARK  11 active torsions:
REMARK  status: ('A' for Active; 'I' for Inactive)
REMARK    1  A    between atoms: O_2  and  C_3 
REMARK    2  A    between atoms: C_6  and  C_7 
REMARK    3  A    between atoms: C_7  and  S_8 
REMARK    4  A    between atoms: C_7  and  C_22 
REMARK    5  A    between atoms: S_8  and  C_9 
REMARK    6  A    between atoms: C_12  and  C_13 
REMARK    7  A    between atoms: C_22  and  C_23 
REMARK       I    between atoms: C_23  and  N_24 
REMARK    8  A    between atoms: N_24  and  C_25 
REMARK    9  A    between atoms: C_25  and  C_26 
REMARK   10  A    between atoms: C_26  and  C_27 
REMARK   11  A    between atoms: C_27  and  N_28 
ROOT
HETATM    1  C   UNL     1      28.916  43.745  53.025  1.00  0.00     0.097 C 
ENDROOT
BRANCH   1   2
HETATM    2  C   UNL     1      29.267  44.328  54.388  1.00  0.00    -0.043 A 
HETATM    3  C   UNL     1      30.295  43.794  55.183  1.00  0.00     0.011 A 
HETATM    4  C   UNL     1      30.644  44.399  56.393  1.00  0.00     0.037 A 
HETATM    5  C   UNL     1      30.000  45.562  56.809  1.00  0.00     0.068 A 
HETATM    6  C   UNL     1      28.958  46.087  56.050  1.00  0.00     0.037 A 
HETATM    7  C   UNL     1      28.595  45.474  54.847  1.00  0.00     0.011 A 
BRANCH   5   8
HETATM    8  O   UNL     1      30.421  46.099  57.992  1.00  0.00    -0.356 OA
HETATM    9  C   UNL     1      31.273  45.228  58.736  1.00  0.00     0.210 C 
ENDBRANCH   5   8
ENDBRANCH   1   2
BRANCH   1  10
HETATM   10  S   UNL     1      27.090  43.685  52.763  1.00  0.00    -0.080 SA
BRANCH  10  11
HETATM   11  C   UNL     1      26.834  44.639  51.361  1.00  0.00     0.190 A 
HETATM   12  N   UNL     1      27.379  44.482  50.183  1.00  0.00    -0.122 NA
HETATM   13  N   UNL     1      26.916  45.492  49.381  1.00  0.00    -0.129 NA
HETATM   14  C   UNL     1      26.132  46.282  50.100  1.00  0.00     0.162 A 
HETATM   15  N   UNL     1      26.066  45.762  51.372  1.00  0.00    -0.317 N 
HETATM   16  H   UNL     1      25.540  46.120  52.155  1.00  0.00     0.169 HD
BRANCH  14  17
HETATM   17  C   UNL     1      25.448  47.486  49.628  1.00  0.00     0.012 A 
HETATM   18  C   UNL     1      24.045  47.534  49.657  1.00  0.00     0.017 A 
HETATM   19  C   UNL     1      23.349  48.659  49.205  1.00  0.00     0.025 A 
HETATM   20  C   UNL     1      24.053  49.751  48.709  1.00  0.00     0.034 A 
HETATM   21 CL   UNL     1      23.203  51.133  48.142  1.00  0.00    -0.084 Cl
HETATM   22  C   UNL     1      25.446  49.726  48.667  1.00  0.00     0.025 A 
HETATM   23  C   UNL     1      26.141  48.600  49.125  1.00  0.00     0.017 A 
ENDBRANCH  14  17
ENDBRANCH  10  11
ENDBRANCH   1  10
BRANCH   1  24
HETATM   24  C   UNL     1      29.723  42.466  52.778  1.00  0.00     0.123 C 
BRANCH  24  25
HETATM   25  C   UNL     1      28.854  41.278  52.437  1.00  0.00     0.219 C 
HETATM   26  N   UNL     1      28.612  41.111  51.096  1.00  0.00    -0.361 N 
HETATM   27  H   UNL     1      29.235  41.591  50.440  1.00  0.00     0.162 HD
HETATM   28  O   UNL     1      28.376  40.522  53.284  1.00  0.00    -0.274 OA
BRANCH  26  29
HETATM   29  C   UNL     1      27.685  40.145  50.560  1.00  0.00     0.124 C 
BRANCH  29  30
HETATM   30  C   UNL     1      26.322  40.722  50.189  1.00  0.00     0.047 C 
BRANCH  30  31
HETATM   31  C   UNL     1      26.244  41.577  48.924  1.00  0.00     0.236 C 
BRANCH  31  32
HETATM   32  N   UNL     1      25.088  42.538  48.899  1.00  0.00    -0.067 N 
HETATM   33  H   UNL     1      25.507  43.493  48.867  1.00  0.00     0.280 HD
HETATM   34  C   UNL     1      24.129  42.383  47.734  1.00  0.00     0.261 C 
HETATM   35  C   UNL     1      23.030  43.450  47.825  1.00  0.00     0.195 C 
HETATM   36  O   UNL     1      22.329  43.359  49.070  1.00  0.00    -0.388 OA
HETATM   37  C   UNL     1      23.208  43.575  50.180  1.00  0.00     0.195 C 
HETATM   38  C   UNL     1      24.315  42.516  50.215  1.00  0.00     0.261 C 
ENDBRANCH  31  32
ENDBRANCH  30  31
ENDBRANCH  29  30
ENDBRANCH  26  29
ENDBRANCH  24  25
ENDBRANCH   1  24
TORSDOF 11
ENDMDL
MODEL 2
REMARK VINA RESULT:      -8.8      1.888      2.477
REMARK  11 active torsions:
REMARK  status: ('A' for Active; 'I' for Inactive)
REMARK    1  A    between atoms: O_2  and  C_3 
REMARK    2  A    between atoms: C_6  and  C_7 
REMARK    3  A    between atoms: C_7  and  S_8 
REMARK    4  A    between atoms: C_7  and  C_22 
REMARK    5  A    between atoms: S_8  and  C_9 
REMARK    6  A    between atoms: C_12  and  C_13 
REMARK    7  A    between atoms: C_22  and  C_23 
REMARK       I    between atoms: C_23  and  N_24 
REMARK    8  A    between atoms: N_24  and  C_25 
REMARK    9  A    between atoms: C_25  and  C_26 
REMARK   10  A    between atoms: C_26  and  C_27 
REMARK   11  A    between atoms: C_27  and  N_28 
ROOT
HETATM    1  C   UNL     1      28.316  42.727  52.712  1.00  0.00     0.097 C 
ENDROOT
BRANCH   1   2
HETATM    2  C   UNL     1      28.918  43.461  53.903  1.00  0.00    -0.043 A 
HETATM    3  C   UNL     1      30.135  43.067  54.483  1.00  0.00     0.011 A 
HETATM    4  C   UNL     1      30.698  43.808  55.525  1.00  0.00     0.037 A 
HETATM    5  C   UNL     1      30.077  44.970  55.976  1.00  0.00     0.068 A 
HETATM    6  C   UNL     1      28.855  45.359  55.435  1.00  0.00     0.037 A 
HETATM    7  C   UNL     1      28.280  44.610  54.404  1.00  0.00     0.011 A 
BRANCH   5   8
HETATM    8  O   UNL     1      30.710  45.645  56.982  1.00  0.00    -0.356 OA
HETATM    9  C   UNL     1      31.006  44.826  58.113  1.00  0.00     0.210 C 
ENDBRANCH   5   8
ENDBRANCH   1   2
BRANCH   1  10
HETATM   10  S   UNL     1      26.559  43.215  52.431  1.00  0.00    -0.080 SA
BRANCH  10  11
HETATM   11  C   UNL     1      26.643  44.397  51.191  1.00  0.00     0.190 A 
HETATM   12  N   UNL     1      27.538  44.490  50.243  1.00  0.00    -0.122 NA
HETATM   13  N   UNL     1      27.237  45.605  49.505  1.00  0.00    -0.129 NA
HETATM   14  C   UNL     1      26.187  46.204  50.047  1.00  0.00     0.162 A 
HETATM   15  N   UNL     1      25.789  45.455  51.131  1.00  0.00    -0.317 N 
HETATM   16  H   UNL     1      25.012  45.633  51.748  1.00  0.00     0.169 HD
BRANCH  14  17
HETATM   17  C   UNL     1      25.553  47.436  49.577  1.00  0.00     0.012 A 
HETATM   18  C   UNL     1      24.151  47.523  49.561  1.00  0.00     0.017 A 
HETATM   19  C   UNL     1      23.502  48.675  49.108  1.00  0.00     0.025 A 
HETATM   20  C   UNL     1      24.253  49.757  48.658  1.00  0.00     0.034 A 
HETATM   21 CL   UNL     1      23.462  51.172  48.090  1.00  0.00    -0.084 Cl
HETATM   22  C   UNL     1      25.645  49.692  48.661  1.00  0.00     0.025 A 
HETATM   23  C   UNL     1      26.293  48.539  49.120  1.00  0.00     0.017 A 
ENDBRANCH  14  17
ENDBRANCH  10  11
ENDBRANCH   1  10
BRANCH   1  24
HETATM   24  C   UNL     1      28.644  41.232  52.797  1.00  0.00     0.123 C 
BRANCH  24  25
HETATM   25  C   UNL     1      28.647  40.551  51.449  1.00  0.00     0.219 C 
HETATM   26  N   UNL     1      29.224  39.306  51.436  1.00  0.00    -0.361 N 
HETATM   27  H   UNL     1      29.339  38.830  52.335  1.00  0.00     0.162 HD
HETATM   28  O   UNL     1      28.189  41.067  50.429  1.00  0.00    -0.274 OA
BRANCH  26  29
HETATM   29  C   UNL     1      29.477  38.548  50.235  1.00  0.00     0.124 C 
BRANCH  29  30
HETATM   30  C   UNL     1      28.435  37.472  49.941  1.00  0.00     0.047 C 
BRANCH  30  31
HETATM   31  C   UNL     1      27.722  37.539  48.590  1.00  0.00     0.236 C 
BRANCH  31  32
HETATM   32  N   UNL     1      27.525  38.935  48.066  1.00  0.00    -0.067 N 
HETATM   33  H   UNL     1      28.011  39.567  48.740  1.00  0.00     0.280 HD
HETATM   34  C   UNL     1      28.062  39.196  46.672  1.00  0.00     0.261 C 
HETATM   35  C   UNL     1      27.822  40.663  46.293  1.00  0.00     0.195 C 
HETATM   36  O   UNL     1      26.430  40.990  46.366  1.00  0.00    -0.388 OA
HETATM   37  C   UNL     1      25.923  40.818  47.694  1.00  0.00     0.195 C 
HETATM   38  C   UNL     1      26.062  39.361  48.147  1.00  0.00     0.261 C 
ENDBRANCH  31  32
ENDBRANCH  30  31
ENDBRANCH  29  30
ENDBRANCH  26  29
ENDBRANCH  24  25
ENDBRANCH   1  24
TORSDOF 11
ENDMDL
MODEL 3
REMARK VINA RESULT:      -8.5      3.496      7.565
REMARK  11 active torsions:
REMARK  status: ('A' for Active; 'I' for Inactive)
REMARK    1  A    between atoms: O_2  and  C_3 
REMARK    2  A    between atoms: C_6  and  C_7 
REMARK    3  A    between atoms: C_7  and  S_8 
REMARK    4  A    between atoms: C_7  and  C_22 
REMARK    5  A    between atoms: S_8  and  C_9 
REMARK    6  A    between atoms: C_12  and  C_13 
REMARK    7  A    between atoms: C_22  and  C_23 
REMARK       I    between atoms: C_23  and  N_24 
REMARK    8  A    between atoms: N_24  and  C_25 
REMARK    9  A    between atoms: C_25  and  C_26 
REMARK   10  A    between atoms: C_26  and  C_27 
REMARK   11  A    between atoms: C_27  and  N_28 
ROOT
HETATM    1  C   UNL     1      25.169  43.279  51.053  1.00  0.00     0.097 C 
ENDROOT
BRANCH   1   2
HETATM    2  C   UNL     1      25.482  44.737  50.739  1.00  0.00    -0.043 A 
HETATM    3  C   UNL     1      24.859  45.795  51.421  1.00  0.00     0.011 A 
HETATM    4  C   UNL     1      25.225  47.118  51.163  1.00  0.00     0.037 A 
HETATM    5  C   UNL     1      26.239  47.403  50.252  1.00  0.00     0.068 A 
HETATM    6  C   UNL     1      26.845  46.369  49.544  1.00  0.00     0.037 A 
HETATM    7  C   UNL     1      26.469  45.044  49.787  1.00  0.00     0.011 A 
BRANCH   5   8
HETATM    8  O   UNL     1      26.548  48.723  50.080  1.00  0.00    -0.356 OA
HETATM    9  C   UNL     1      27.144  49.003  48.814  1.00  0.00     0.210 C 
ENDBRANCH   5   8
ENDBRANCH   1   2
BRANCH   1  10
HETATM   10  S   UNL     1      26.470  42.149  50.394  1.00  0.00    -0.080 SA
BRANCH  10  11
HETATM   11  C   UNL     1      27.720  42.216  51.566  1.00  0.00     0.190 A 
HETATM   12  N   UNL     1      28.688  41.357  51.746  1.00  0.00    -0.122 NA
HETATM   13  N   UNL     1      29.427  41.789  52.815  1.00  0.00    -0.129 NA
HETATM   14  C   UNL     1      28.866  42.885  53.305  1.00  0.00     0.162 A 
HETATM   15  N   UNL     1      27.768  43.178  52.528  1.00  0.00    -0.317 N 
HETATM   16  H   UNL     1      27.135  43.957  52.628  1.00  0.00     0.169 HD
BRANCH  14  17
HETATM   17  C   UNL     1      29.331  43.655  54.459  1.00  0.00     0.012 A 
HETATM   18  C   UNL     1      28.626  44.809  54.842  1.00  0.00     0.017 A 
HETATM   19  C   UNL     1      29.041  45.583  55.929  1.00  0.00     0.025 A 
HETATM   20  C   UNL     1      30.175  45.213  56.646  1.00  0.00     0.034 A 
HETATM   21 CL   UNL     1      30.696  46.165  57.978  1.00  0.00    -0.084 Cl
HETATM   22  C   UNL     1      30.892  44.074  56.282  1.00  0.00     0.025 A 
HETATM   23  C   UNL     1      30.472  43.298  55.195  1.00  0.00     0.017 A 
ENDBRANCH  14  17
ENDBRANCH  10  11
ENDBRANCH   1  10
BRANCH   1  24
HETATM   24  C   UNL     1      23.706  42.971  50.712  1.00  0.00     0.123 C 
BRANCH  24  25
HETATM   25  C   UNL     1      23.283  43.532  49.375  1.00  0.00     0.219 C 
HETATM   26  N   UNL     1      22.341  44.527  49.443  1.00  0.00    -0.361 N 
HETATM   27  H   UNL     1      22.214  44.997  50.343  1.00  0.00     0.162 HD
HETATM   28  O   UNL     1      23.725  43.125  48.299  1.00  0.00    -0.274 OA
BRANCH  26  29
HETATM   29  C   UNL     1      21.681  45.091  48.291  1.00  0.00     0.124 C 
BRANCH  29  30
HETATM   30  C   UNL     1      22.294  46.396  47.792  1.00  0.00     0.047 C 
BRANCH  30  31
HETATM   31  C   UNL     1      21.332  47.536  47.454  1.00  0.00     0.236 C 
BRANCH  31  32
HETATM   32  N   UNL     1      21.737  48.871  48.016  1.00  0.00    -0.067 N 
HETATM   33  H   UNL     1      21.605  49.561  47.244  1.00  0.00     0.280 HD
HETATM   34  C   UNL     1      20.957  49.338  49.230  1.00  0.00     0.261 C 
HETATM   35  C   UNL     1      21.456  50.722  49.663  1.00  0.00     0.195 C 
HETATM   36  O   UNL     1      22.859  50.697  49.946  1.00  0.00    -0.388 OA
HETATM   37  C   UNL     1      23.617  50.328  48.788  1.00  0.00     0.195 C 
HETATM   38  C   UNL     1      23.234  48.923  48.309  1.00  0.00     0.261 C 
ENDBRANCH  31  32
ENDBRANCH  30  31
ENDBRANCH  29  30
ENDBRANCH  26  29
ENDBRANCH  24  25
ENDBRANCH   1  24
TORSDOF 11
ENDMDL
MODEL 4
REMARK VINA RESULT:      -8.5      3.100      3.983
REMARK  11 active torsions:
REMARK  status: ('A' for Active; 'I' for Inactive)
REMARK    1  A    between atoms: O_2  and  C_3 
REMARK    2  A    between atoms: C_6  and  C_7 
REMARK    3  A    between atoms: C_7  and  S_8 
REMARK    4  A    between atoms: C_7  and  C_22 
REMARK    5  A    between atoms: S_8  and  C_9 
REMARK    6  A    between atoms: C_12  and  C_13 
REMARK    7  A    between atoms: C_22  and  C_23 
REMARK       I    between atoms: C_23  and  N_24 
REMARK    8  A    between atoms: N_24  and  C_25 
REMARK    9  A    between atoms: C_25  and  C_26 
REMARK   10  A    between atoms: C_26  and  C_27 
REMARK   11  A    between atoms: C_27  and  N_28 
ROOT
HETATM    1  C   UNL     1      28.324  42.707  52.740  1.00  0.00     0.097 C 
ENDROOT
BRANCH   1   2
HETATM    2  C   UNL     1      28.944  43.433  53.928  1.00  0.00    -0.043 A 
HETATM    3  C   UNL     1      30.157  43.020  54.502  1.00  0.00     0.011 A 
HETATM    4  C   UNL     1      30.738  43.753  55.540  1.00  0.00     0.037 A 
HETATM    5  C   UNL     1      30.138  44.925  55.993  1.00  0.00     0.068 A 
HETATM    6  C   UNL     1      28.920  45.333  55.457  1.00  0.00     0.037 A 
HETATM    7  C   UNL     1      28.328  44.593  54.430  1.00  0.00     0.011 A 
BRANCH   5   8
HETATM    8  O   UNL     1      30.787  45.591  56.994  1.00  0.00    -0.356 OA
HETATM    9  C   UNL     1      29.923  45.997  58.055  1.00  0.00     0.210 C 
ENDBRANCH   5   8
ENDBRANCH   1   2
BRANCH   1  10
HETATM   10  S   UNL     1      26.568  43.210  52.479  1.00  0.00    -0.080 SA
BRANCH  10  11
HETATM   11  C   UNL     1      26.648  44.384  51.231  1.00  0.00     0.190 A 
HETATM   12  N   UNL     1      27.544  44.477  50.284  1.00  0.00    -0.122 NA
HETATM   13  N   UNL     1      27.238  45.584  49.537  1.00  0.00    -0.129 NA
HETATM   14  C   UNL     1      26.181  46.179  50.073  1.00  0.00     0.162 A 
HETATM   15  N   UNL     1      25.786  45.435  51.160  1.00  0.00    -0.317 N 
HETATM   16  H   UNL     1      25.005  45.612  51.774  1.00  0.00     0.169 HD
BRANCH  14  17
HETATM   17  C   UNL     1      25.540  47.403  49.591  1.00  0.00     0.012 A 
HETATM   18  C   UNL     1      24.137  47.476  49.561  1.00  0.00     0.017 A 
HETATM   19  C   UNL     1      23.482  48.620  49.097  1.00  0.00     0.025 A 
HETATM   20  C   UNL     1      24.226  49.707  48.651  1.00  0.00     0.034 A 
HETATM   21 CL   UNL     1      23.426  51.113  48.069  1.00  0.00    -0.084 Cl
HETATM   22  C   UNL     1      25.619  49.657  48.669  1.00  0.00     0.025 A 
HETATM   23  C   UNL     1      26.274  48.512  49.138  1.00  0.00     0.017 A 
ENDBRANCH  14  17
ENDBRANCH  10  11
ENDBRANCH   1  10
BRANCH   1  24
HETATM   24  C   UNL     1      28.641  41.209  52.818  1.00  0.00     0.123 C 
BRANCH  24  25
HETATM   25  C   UNL     1      28.662  40.541  51.463  1.00  0.00     0.219 C 
HETATM   26  N   UNL     1      29.183  39.271  51.459  1.00  0.00    -0.361 N 
HETATM   27  H   UNL     1      29.244  38.782  52.356  1.00  0.00     0.162 HD
HETATM   28  O   UNL     1      28.264  41.085  50.433  1.00  0.00    -0.274 OA
BRANCH  26  29
HETATM   29  C   UNL     1      29.445  38.513  50.260  1.00  0.00     0.124 C 
BRANCH  29  30
HETATM   30  C   UNL     1      28.285  37.629  49.810  1.00  0.00     0.047 C 
BRANCH  30  31
HETATM   31  C   UNL     1      27.770  37.823  48.384  1.00  0.00     0.236 C 
BRANCH  31  32
HETATM   32  N   UNL     1      27.975  36.633  47.487  1.00  0.00    -0.067 N 
HETATM   33  H   UNL     1      28.612  35.989  48.005  1.00  0.00     0.280 HD
HETATM   34  C   UNL     1      26.720  35.876  47.100  1.00  0.00     0.261 C 
HETATM   35  C   UNL     1      27.091  34.676  46.221  1.00  0.00     0.195 C 
HETATM   36  O   UNL     1      27.805  35.096  45.053  1.00  0.00    -0.388 OA
HETATM   37  C   UNL     1      29.032  35.750  45.400  1.00  0.00     0.195 C 
HETATM   38  C   UNL     1      28.764  37.007  46.235  1.00  0.00     0.261 C 
ENDBRANCH  31  32
ENDBRANCH  30  31
ENDBRANCH  29  30
ENDBRANCH  26  29
ENDBRANCH  24  25
ENDBRANCH   1  24
TORSDOF 11
ENDMDL
MODEL 5
REMARK VINA RESULT:      -8.4      3.724      6.688
REMARK  11 active torsions:
REMARK  status: ('A' for Active; 'I' for Inactive)
REMARK    1  A    between atoms: O_2  and  C_3 
REMARK    2  A    between atoms: C_6  and  C_7 
REMARK    3  A    between atoms: C_7  and  S_8 
REMARK    4  A    between atoms: C_7  and  C_22 
REMARK    5  A    between atoms: S_8  and  C_9 
REMARK    6  A    between atoms: C_12  and  C_13 
REMARK    7  A    between atoms: C_22  and  C_23 
REMARK       I    between atoms: C_23  and  N_24 
REMARK    8  A    between atoms: N_24  and  C_25 
REMARK    9  A    between atoms: C_25  and  C_26 
REMARK   10  A    between atoms: C_26  and  C_27 
REMARK   11  A    between atoms: C_27  and  N_28 
ROOT
HETATM    1  C   UNL     1      28.181  43.108  52.759  1.00  0.00     0.097 C 
ENDROOT
BRANCH   1   2
HETATM    2  C   UNL     1      28.784  43.815  53.967  1.00  0.00    -0.043 A 
HETATM    3  C   UNL     1      29.950  43.350  54.596  1.00  0.00     0.011 A 
HETATM    4  C   UNL     1      30.520  44.064  55.653  1.00  0.00     0.037 A 
HETATM    5  C   UNL     1      29.958  45.267  56.072  1.00  0.00     0.068 A 
HETATM    6  C   UNL     1      28.785  45.727  55.481  1.00  0.00     0.037 A 
HETATM    7  C   UNL     1      28.202  45.007  54.435  1.00  0.00     0.011 A 
BRANCH   5   8
HETATM    8  O   UNL     1      30.595  45.911  57.095  1.00  0.00    -0.356 OA
HETATM    9  C   UNL     1      29.998  45.674  58.370  1.00  0.00     0.210 C 
ENDBRANCH   5   8
ENDBRANCH   1   2
BRANCH   1  10
HETATM   10  S   UNL     1      28.774  41.366  52.627  1.00  0.00    -0.080 SA
BRANCH  10  11
HETATM   11  C   UNL     1      27.967  40.750  51.245  1.00  0.00     0.190 A 
HETATM   12  N   UNL     1      26.682  40.557  51.096  1.00  0.00    -0.122 NA
HETATM   13  N   UNL     1      26.492  40.017  49.851  1.00  0.00    -0.129 NA
HETATM   14  C   UNL     1      27.673  39.843  49.277  1.00  0.00     0.162 A 
HETATM   15  N   UNL     1      28.635  40.300  50.149  1.00  0.00    -0.317 N 
HETATM   16  H   UNL     1      29.633  40.321  50.005  1.00  0.00     0.169 HD
BRANCH  14  17
HETATM   17  C   UNL     1      27.917  39.277  47.950  1.00  0.00     0.012 A 
HETATM   18  C   UNL     1      28.365  37.950  47.842  1.00  0.00     0.017 A 
HETATM   19  C   UNL     1      28.623  37.372  46.596  1.00  0.00     0.025 A 
HETATM   20  C   UNL     1      28.440  38.121  45.438  1.00  0.00     0.034 A 
HETATM   21 CL   UNL     1      28.765  37.420  43.903  1.00  0.00    -0.084 Cl
HETATM   22  C   UNL     1      27.999  39.440  45.520  1.00  0.00     0.025 A 
HETATM   23  C   UNL     1      27.737  40.016  46.769  1.00  0.00     0.017 A 
ENDBRANCH  14  17
ENDBRANCH  10  11
ENDBRANCH   1  10
BRANCH   1  24
HETATM   24  C   UNL     1      28.291  44.004  51.520  1.00  0.00     0.123 C 
BRANCH  24  25
HETATM   25  C   UNL     1      26.995  44.107  50.751  1.00  0.00     0.219 C 
HETATM   26  N   UNL     1      25.954  44.658  51.455  1.00  0.00    -0.361 N 
HETATM   27  H   UNL     1      26.183  45.198  52.294  1.00  0.00     0.162 HD
HETATM   28  O   UNL     1      26.862  43.715  49.591  1.00  0.00    -0.274 OA
BRANCH  26  29
HETATM   29  C   UNL     1      24.594  44.707  50.975  1.00  0.00     0.124 C 
BRANCH  29  30
HETATM   30  C   UNL     1      24.381  45.641  49.787  1.00  0.00     0.047 C 
BRANCH  30  31
HETATM   31  C   UNL     1      24.341  47.142  50.076  1.00  0.00     0.236 C 
BRANCH  31  32
HETATM   32  N   UNL     1      25.308  47.953  49.258  1.00  0.00    -0.067 N 
HETATM   33  H   UNL     1      25.512  47.385  48.406  1.00  0.00     0.280 HD
HETATM   34  C   UNL     1      24.821  49.324  48.830  1.00  0.00     0.261 C 
HETATM   35  C   UNL     1      25.895  50.010  47.978  1.00  0.00     0.195 C 
HETATM   36  O   UNL     1      27.129  50.117  48.695  1.00  0.00    -0.388 OA
HETATM   37  C   UNL     1      27.641  48.826  49.045  1.00  0.00     0.195 C 
HETATM   38  C   UNL     1      26.661  48.077  49.954  1.00  0.00     0.261 C 
ENDBRANCH  31  32
ENDBRANCH  30  31
ENDBRANCH  29  30
ENDBRANCH  26  29
ENDBRANCH  24  25
ENDBRANCH   1  24
TORSDOF 11
ENDMDL
MODEL 6
REMARK VINA RESULT:      -8.4      3.800      7.335
REMARK  11 active torsions:
REMARK  status: ('A' for Active; 'I' for Inactive)
REMARK    1  A    between atoms: O_2  and  C_3 
REMARK    2  A    between atoms: C_6  and  C_7 
REMARK    3  A    between atoms: C_7  and  S_8 
REMARK    4  A    between atoms: C_7  and  C_22 
REMARK    5  A    between atoms: S_8  and  C_9 
REMARK    6  A    between atoms: C_12  and  C_13 
REMARK    7  A    between atoms: C_22  and  C_23 
REMARK       I    between atoms: C_23  and  N_24 
REMARK    8  A    between atoms: N_24  and  C_25 
REMARK    9  A    between atoms: C_25  and  C_26 
REMARK   10  A    between atoms: C_26  and  C_27 
REMARK   11  A    between atoms: C_27  and  N_28 
ROOT
HETATM    1  C   UNL     1      25.509  43.154  50.073  1.00  0.00     0.097 C 
ENDROOT
BRANCH   1   2
HETATM    2  C   UNL     1      25.450  44.417  50.924  1.00  0.00    -0.043 A 
HETATM    3  C   UNL     1      25.029  44.393  52.264  1.00  0.00     0.011 A 
HETATM    4  C   UNL     1      25.060  45.555  53.039  1.00  0.00     0.037 A 
HETATM    5  C   UNL     1      25.545  46.745  52.502  1.00  0.00     0.068 A 
HETATM    6  C   UNL     1      25.937  46.795  51.167  1.00  0.00     0.037 A 
HETATM    7  C   UNL     1      25.891  45.638  50.384  1.00  0.00     0.011 A 
BRANCH   5   8
HETATM    8  O   UNL     1      25.562  47.826  53.338  1.00  0.00    -0.356 OA
HETATM    9  C   UNL     1      26.228  47.572  54.575  1.00  0.00     0.210 C 
ENDBRANCH   5   8
ENDBRANCH   1   2
BRANCH   1  10
HETATM   10  S   UNL     1      27.238  42.531  49.904  1.00  0.00    -0.080 SA
BRANCH  10  11
HETATM   11  C   UNL     1      27.795  42.391  51.520  1.00  0.00     0.190 A 
HETATM   12  N   UNL     1      27.743  41.335  52.289  1.00  0.00    -0.122 NA
HETATM   13  N   UNL     1      28.266  41.689  53.505  1.00  0.00    -0.129 NA
HETATM   14  C   UNL     1      28.584  42.975  53.474  1.00  0.00     0.162 A 
HETATM   15  N   UNL     1      28.289  43.450  52.217  1.00  0.00    -0.317 N 
HETATM   16  H   UNL     1      28.427  44.386  51.866  1.00  0.00     0.169 HD
BRANCH  14  17
HETATM   17  C   UNL     1      29.157  43.753  54.573  1.00  0.00     0.012 A 
HETATM   18  C   UNL     1      30.329  43.295  55.199  1.00  0.00     0.017 A 
HETATM   19  C   UNL     1      30.904  43.999  56.261  1.00  0.00     0.025 A 
HETATM   20  C   UNL     1      30.308  45.170  56.714  1.00  0.00     0.034 A 
HETATM   21 CL   UNL     1      31.005  46.035  58.026  1.00  0.00    -0.084 Cl
HETATM   22  C   UNL     1      29.144  45.642  56.111  1.00  0.00     0.025 A 
HETATM   23  C   UNL     1      28.571  44.939  55.045  1.00  0.00     0.017 A 
ENDBRANCH  14  17
ENDBRANCH  10  11
ENDBRANCH   1  10
BRANCH   1  24
HETATM   24  C   UNL     1      24.682  43.343  48.797  1.00  0.00     0.123 C 
BRANCH  24  25
HETATM   25  C   UNL     1      23.196  43.400  49.061  1.00  0.00     0.219 C 
HETATM   26  N   UNL     1      22.623  44.629  48.849  1.00  0.00    -0.361 N 
HETATM   27  H   UNL     1      23.145  45.303  48.282  1.00  0.00     0.162 HD
HETATM   28  O   UNL     1      22.540  42.435  49.453  1.00  0.00    -0.274 OA
BRANCH  26  29
HETATM   29  C   UNL     1      21.259  44.951  49.190  1.00  0.00     0.124 C 
BRANCH  29  30
HETATM   30  C   UNL     1      20.612  45.989  48.276  1.00  0.00     0.047 C 
BRANCH  30  31
HETATM   31  C   UNL     1      21.167  47.412  48.333  1.00  0.00     0.236 C 
BRANCH  31  32
HETATM   32  N   UNL     1      20.590  48.255  49.437  1.00  0.00    -0.067 N 
HETATM   33  H   UNL     1      21.071  47.951  50.313  1.00  0.00     0.280 HD
HETATM   34  C   UNL     1      20.760  49.754  49.279  1.00  0.00     0.261 C 
HETATM   35  C   UNL     1      20.158  50.472  50.493  1.00  0.00     0.195 C 
HETATM   36  O   UNL     1      18.776  50.136  50.655  1.00  0.00    -0.388 OA
HETATM   37  C   UNL     1      18.604  48.732  50.879  1.00  0.00     0.195 C 
HETATM   38  C   UNL     1      19.122  47.922  49.686  1.00  0.00     0.261 C 
ENDBRANCH  31  32
ENDBRANCH  30  31
ENDBRANCH  29  30
ENDBRANCH  26  29
ENDBRANCH  24  25
ENDBRANCH   1  24
TORSDOF 11
ENDMDL
MODEL 7
REMARK VINA RESULT:      -8.3      4.028      8.606
REMARK  11 active torsions:
REMARK  status: ('A' for Active; 'I' for Inactive)
REMARK    1  A    between atoms: O_2  and  C_3 
REMARK    2  A    between atoms: C_6  and  C_7 
REMARK    3  A    between atoms: C_7  and  S_8 
REMARK    4  A    between atoms: C_7  and  C_22 
REMARK    5  A    between atoms: S_8  and  C_9 
REMARK    6  A    between atoms: C_12  and  C_13 
REMARK    7  A    between atoms: C_22  and  C_23 
REMARK       I    between atoms: C_23  and  N_24 
REMARK    8  A    between atoms: N_24  and  C_25 
REMARK    9  A    between atoms: C_25  and  C_26 
REMARK   10  A    between atoms: C_26  and  C_27 
REMARK   11  A    between atoms: C_27  and  N_28 
ROOT
HETATM    1  C   UNL     1      25.978  45.746  50.689  1.00  0.00     0.097 C 
ENDROOT
BRANCH   1   2
HETATM    2  C   UNL     1      25.080  44.627  50.176  1.00  0.00    -0.043 A 
HETATM    3  C   UNL     1      24.622  43.597  51.014  1.00  0.00     0.011 A 
HETATM    4  C   UNL     1      23.737  42.629  50.531  1.00  0.00     0.037 A 
HETATM    5  C   UNL     1      23.268  42.696  49.222  1.00  0.00     0.068 A 
HETATM    6  C   UNL     1      23.735  43.692  48.368  1.00  0.00     0.037 A 
HETATM    7  C   UNL     1      24.634  44.651  48.842  1.00  0.00     0.011 A 
BRANCH   5   8
HETATM    8  O   UNL     1      22.387  41.723  48.842  1.00  0.00    -0.356 OA
HETATM    9  C   UNL     1      22.838  40.960  47.723  1.00  0.00     0.210 C 
ENDBRANCH   5   8
ENDBRANCH   1   2
BRANCH   1  10
HETATM   10  S   UNL     1      25.086  46.842  51.875  1.00  0.00    -0.080 SA
BRANCH  10  11
HETATM   11  C   UNL     1      26.094  46.871  53.262  1.00  0.00     0.190 A 
HETATM   12  N   UNL     1      26.143  47.790  54.189  1.00  0.00    -0.122 NA
HETATM   13  N   UNL     1      27.116  47.422  55.081  1.00  0.00    -0.129 NA
HETATM   14  C   UNL     1      27.683  46.302  54.654  1.00  0.00     0.162 A 
HETATM   15  N   UNL     1      27.051  45.930  53.489  1.00  0.00    -0.317 N 
HETATM   16  H   UNL     1      27.237  45.116  52.924  1.00  0.00     0.169 HD
BRANCH  14  17
HETATM   17  C   UNL     1      28.776  45.582  55.305  1.00  0.00     0.012 A 
HETATM   18  C   UNL     1      29.263  44.400  54.721  1.00  0.00     0.017 A 
HETATM   19  C   UNL     1      30.297  43.672  55.315  1.00  0.00     0.025 A 
HETATM   20  C   UNL     1      30.856  44.116  56.509  1.00  0.00     0.034 A 
HETATM   21 CL   UNL     1      32.122  43.220  57.249  1.00  0.00    -0.084 Cl
HETATM   22  C   UNL     1      30.388  45.284  57.108  1.00  0.00     0.025 A 
HETATM   23  C   UNL     1      29.354  46.015  56.510  1.00  0.00     0.017 A 
ENDBRANCH  14  17
ENDBRANCH  10  11
ENDBRANCH   1  10
BRANCH   1  24
HETATM   24  C   UNL     1      26.718  46.402  49.518  1.00  0.00     0.123 C 
BRANCH  24  25
HETATM   25  C   UNL     1      26.565  47.904  49.491  1.00  0.00     0.219 C 
HETATM   26  N   UNL     1      25.438  48.354  48.852  1.00  0.00    -0.361 N 
HETATM   27  H   UNL     1      24.678  47.684  48.705  1.00  0.00     0.162 HD
HETATM   28  O   UNL     1      27.388  48.678  49.984  1.00  0.00    -0.274 OA
BRANCH  26  29
HETATM   29  C   UNL     1      25.172  49.744  48.570  1.00  0.00     0.124 C 
BRANCH  29  30
HETATM   30  C   UNL     1      23.763  50.021  48.053  1.00  0.00     0.047 C 
BRANCH  30  31
HETATM   31  C   UNL     1      22.830  50.823  48.961  1.00  0.00     0.236 C 
BRANCH  31  32
HETATM   32  N   UNL     1      21.443  50.254  49.076  1.00  0.00    -0.067 N 
HETATM   33  H   UNL     1      20.931  50.567  48.221  1.00  0.00     0.280 HD
HETATM   34  C   UNL     1      21.357  48.743  49.174  1.00  0.00     0.261 C 
HETATM   35  C   UNL     1      19.887  48.313  49.247  1.00  0.00     0.195 C 
HETATM   36  O   UNL     1      19.227  48.928  50.359  1.00  0.00    -0.388 OA
HETATM   37  C   UNL     1      19.236  50.356  50.245  1.00  0.00     0.195 C 
HETATM   38  C   UNL     1      20.670  50.894  50.226  1.00  0.00     0.261 C 
ENDBRANCH  31  32
ENDBRANCH  30  31
ENDBRANCH  29  30
ENDBRANCH  26  29
ENDBRANCH  24  25
ENDBRANCH   1  24
TORSDOF 11
ENDMDL
MODEL 8
REMARK VINA RESULT:      -8.2      1.939      2.512
REMARK  11 active torsions:
REMARK  status: ('A' for Active; 'I' for Inactive)
REMARK    1  A    between atoms: O_2  and  C_3 
REMARK    2  A    between atoms: C_6  and  C_7 
REMARK    3  A    between atoms: C_7  and  S_8 
REMARK    4  A    between atoms: C_7  and  C_22 
REMARK    5  A    between atoms: S_8  and  C_9 
REMARK    6  A    between atoms: C_12  and  C_13 
REMARK    7  A    between atoms: C_22  and  C_23 
REMARK       I    between atoms: C_23  and  N_24 
REMARK    8  A    between atoms: N_24  and  C_25 
REMARK    9  A    between atoms: C_25  and  C_26 
REMARK   10  A    between atoms: C_26  and  C_27 
REMARK   11  A    between atoms: C_27  and  N_28 
ROOT
HETATM    1  C   UNL     1      27.180  44.619  52.501  1.00  0.00     0.097 C 
ENDROOT
BRANCH   1   2
HETATM    2  C   UNL     1      28.200  44.519  53.629  1.00  0.00    -0.043 A 
HETATM    3  C   UNL     1      29.187  43.520  53.654  1.00  0.00     0.011 A 
HETATM    4  C   UNL     1      30.154  43.503  54.662  1.00  0.00     0.037 A 
HETATM    5  C   UNL     1      30.174  44.500  55.634  1.00  0.00     0.068 A 
HETATM    6  C   UNL     1      29.185  45.480  55.643  1.00  0.00     0.037 A 
HETATM    7  C   UNL     1      28.205  45.490  54.646  1.00  0.00     0.011 A 
BRANCH   5   8
HETATM    8  O   UNL     1      31.169  44.419  56.567  1.00  0.00    -0.356 OA
HETATM    9  C   UNL     1      31.375  43.095  57.059  1.00  0.00     0.210 C 
ENDBRANCH   5   8
ENDBRANCH   1   2
BRANCH   1  10
HETATM   10  S   UNL     1      25.731  45.653  52.986  1.00  0.00    -0.080 SA
BRANCH  10  11
HETATM   11  C   UNL     1      25.469  46.671  51.632  1.00  0.00     0.190 A 
HETATM   12  N   UNL     1      26.367  47.331  50.948  1.00  0.00    -0.122 NA
HETATM   13  N   UNL     1      25.705  48.041  49.981  1.00  0.00    -0.129 NA
HETATM   14  C   UNL     1      24.403  47.842  50.122  1.00  0.00     0.162 A 
HETATM   15  N   UNL     1      24.223  46.973  51.174  1.00  0.00    -0.317 N 
HETATM   16  H   UNL     1      23.351  46.610  51.528  1.00  0.00     0.169 HD
BRANCH  14  17
HETATM   17  C   UNL     1      23.343  48.430  49.303  1.00  0.00     0.012 A 
HETATM   18  C   UNL     1      23.300  49.824  49.133  1.00  0.00     0.017 A 
HETATM   19  C   UNL     1      22.298  50.430  48.370  1.00  0.00     0.025 A 
HETATM   20  C   UNL     1      21.319  49.645  47.770  1.00  0.00     0.034 A 
HETATM   21 CL   UNL     1      20.078  50.384  46.839  1.00  0.00    -0.084 Cl
HETATM   22  C   UNL     1      21.339  48.260  47.927  1.00  0.00     0.025 A 
HETATM   23  C   UNL     1      22.346  47.654  48.689  1.00  0.00     0.017 A 
ENDBRANCH  14  17
ENDBRANCH  10  11
ENDBRANCH   1  10
BRANCH   1  24
HETATM   24  C   UNL     1      26.911  43.229  51.914  1.00  0.00     0.123 C 
BRANCH  24  25
HETATM   25  C   UNL     1      27.008  43.197  50.407  1.00  0.00     0.219 C 
HETATM   26  N   UNL     1      26.864  41.951  49.850  1.00  0.00    -0.361 N 
HETATM   27  H   UNL     1      26.435  41.222  50.426  1.00  0.00     0.162 HD
HETATM   28  O   UNL     1      27.219  44.197  49.720  1.00  0.00    -0.274 OA
BRANCH  26  29
HETATM   29  C   UNL     1      27.079  41.664  48.452  1.00  0.00     0.124 C 
BRANCH  29  30
HETATM   30  C   UNL     1      25.871  41.058  47.743  1.00  0.00     0.047 C 
BRANCH  30  31
HETATM   31  C   UNL     1      24.550  41.032  48.512  1.00  0.00     0.236 C 
BRANCH  31  32
HETATM   32  N   UNL     1      23.776  42.320  48.451  1.00  0.00    -0.067 N 
HETATM   33  H   UNL     1      24.474  43.066  48.237  1.00  0.00     0.280 HD
HETATM   34  C   UNL     1      22.668  42.374  47.417  1.00  0.00     0.261 C 
HETATM   35  C   UNL     1      21.999  43.753  47.448  1.00  0.00     0.195 C 
HETATM   36  O   UNL     1      21.484  44.045  48.752  1.00  0.00    -0.388 OA
HETATM   37  C   UNL     1      22.530  44.070  49.731  1.00  0.00     0.195 C 
HETATM   38  C   UNL     1      23.227  42.708  49.821  1.00  0.00     0.261 C 
ENDBRANCH  31  32
ENDBRANCH  30  31
ENDBRANCH  29  30
ENDBRANCH  26  29
ENDBRANCH  24  25
ENDBRANCH   1  24
TORSDOF 11
ENDMDL
MODEL 9
REMARK VINA RESULT:      -8.1      3.659      7.678
REMARK  11 active torsions:
REMARK  status: ('A' for Active; 'I' for Inactive)
REMARK    1  A    between atoms: O_2  and  C_3 
REMARK    2  A    between atoms: C_6  and  C_7 
REMARK    3  A    between atoms: C_7  and  S_8 
REMARK    4  A    between atoms: C_7  and  C_22 
REMARK    5  A    between atoms: S_8  and  C_9 
REMARK    6  A    between atoms: C_12  and  C_13 
REMARK    7  A    between atoms: C_22  and  C_23 
REMARK       I    between atoms: C_23  and  N_24 
REMARK    8  A    between atoms: N_24  and  C_25 
REMARK    9  A    between atoms: C_25  and  C_26 
REMARK   10  A    between atoms: C_26  and  C_27 
REMARK   11  A    between atoms: C_27  and  N_28 
ROOT
HETATM    1  C   UNL     1      25.776  42.748  49.237  1.00  0.00     0.097 C 
ENDROOT
BRANCH   1   2
HETATM    2  C   UNL     1      26.888  41.707  49.181  1.00  0.00    -0.043 A 
HETATM    3  C   UNL     1      27.322  41.020  50.327  1.00  0.00     0.011 A 
HETATM    4  C   UNL     1      28.289  40.016  50.229  1.00  0.00     0.037 A 
HETATM    5  C   UNL     1      28.808  39.659  48.988  1.00  0.00     0.068 A 
HETATM    6  C   UNL     1      28.413  40.350  47.846  1.00  0.00     0.037 A 
HETATM    7  C   UNL     1      27.458  41.367  47.942  1.00  0.00     0.011 A 
BRANCH   5   8
HETATM    8  O   UNL     1      29.731  38.651  48.983  1.00  0.00    -0.356 OA
HETATM    9  C   UNL     1      29.706  37.857  50.168  1.00  0.00     0.210 C 
ENDBRANCH   5   8
ENDBRANCH   1   2
BRANCH   1  10
HETATM   10  S   UNL     1      26.437  44.426  49.628  1.00  0.00    -0.080 SA
BRANCH  10  11
HETATM   11  C   UNL     1      26.687  44.394  51.324  1.00  0.00     0.190 A 
HETATM   12  N   UNL     1      25.791  44.552  52.263  1.00  0.00    -0.122 NA
HETATM   13  N   UNL     1      26.443  44.489  53.466  1.00  0.00    -0.129 NA
HETATM   14  C   UNL     1      27.741  44.343  53.240  1.00  0.00     0.162 A 
HETATM   15  N   UNL     1      27.925  44.284  51.878  1.00  0.00    -0.317 N 
HETATM   16  H   UNL     1      28.795  44.161  51.382  1.00  0.00     0.169 HD
BRANCH  14  17
HETATM   17  C   UNL     1      28.791  44.249  54.254  1.00  0.00     0.012 A 
HETATM   18  C   UNL     1      29.593  43.097  54.306  1.00  0.00     0.017 A 
HETATM   19  C   UNL     1      30.600  42.959  55.266  1.00  0.00     0.025 A 
HETATM   20  C   UNL     1      30.813  43.974  56.192  1.00  0.00     0.034 A 
HETATM   21 CL   UNL     1      32.043  43.807  57.381  1.00  0.00    -0.084 Cl
HETATM   22  C   UNL     1      30.028  45.125  56.162  1.00  0.00     0.025 A 
HETATM   23  C   UNL     1      29.023  45.264  55.197  1.00  0.00     0.017 A 
ENDBRANCH  14  17
ENDBRANCH  10  11
ENDBRANCH   1  10
BRANCH   1  24
HETATM   24  C   UNL     1      24.606  42.220  50.074  1.00  0.00     0.123 C 
BRANCH  24  25
HETATM   25  C   UNL     1      23.338  43.019  49.884  1.00  0.00     0.219 C 
HETATM   26  N   UNL     1      23.113  43.439  48.597  1.00  0.00    -0.361 N 
HETATM   27  H   UNL     1      23.627  42.966  47.849  1.00  0.00     0.162 HD
HETATM   28  O   UNL     1      22.567  43.296  50.803  1.00  0.00    -0.274 OA
BRANCH  26  29
HETATM   29  C   UNL     1      22.056  44.344  48.219  1.00  0.00     0.124 C 
BRANCH  29  30
HETATM   30  C   UNL     1      22.528  45.757  47.885  1.00  0.00     0.047 C 
BRANCH  30  31
HETATM   31  C   UNL     1      23.195  46.554  49.007  1.00  0.00     0.236 C 
BRANCH  31  32
HETATM   32  N   UNL     1      22.476  47.823  49.372  1.00  0.00    -0.067 N 
HETATM   33  H   UNL     1      22.241  47.740  50.386  1.00  0.00     0.280 HD
HETATM   34  C   UNL     1      23.252  49.107  49.152  1.00  0.00     0.261 C 
HETATM   35  C   UNL     1      22.408  50.305  49.603  1.00  0.00     0.195 C 
HETATM   36  O   UNL     1      21.160  50.346  48.902  1.00  0.00    -0.388 OA
HETATM   37  C   UNL     1      20.381  49.171  49.157  1.00  0.00     0.195 C 
HETATM   38  C   UNL     1      21.117  47.914  48.683  1.00  0.00     0.261 C 
ENDBRANCH  31  32
ENDBRANCH  30  31
ENDBRANCH  29  30
ENDBRANCH  26  29
ENDBRANCH  24  25
ENDBRANCH   1  24
TORSDOF 11
ENDMDL
MODEL 10
REMARK VINA RESULT:      -8.0      2.234      4.102
REMARK  11 active torsions:
REMARK  status: ('A' for Active; 'I' for Inactive)
REMARK    1  A    between atoms: O_2  and  C_3 
REMARK    2  A    between atoms: C_6  and  C_7 
REMARK    3  A    between atoms: C_7  and  S_8 
REMARK    4  A    between atoms: C_7  and  C_22 
REMARK    5  A    between atoms: S_8  and  C_9 
REMARK    6  A    between atoms: C_12  and  C_13 
REMARK    7  A    between atoms: C_22  and  C_23 
REMARK       I    between atoms: C_23  and  N_24 
REMARK    8  A    between atoms: N_24  and  C_25 
REMARK    9  A    between atoms: C_25  and  C_26 
REMARK   10  A    between atoms: C_26  and  C_27 
REMARK   11  A    between atoms: C_27  and  N_28 
ROOT
HETATM    1  C   UNL     1      26.996  44.564  52.039  1.00  0.00     0.097 C 
ENDROOT
BRANCH   1   2
HETATM    2  C   UNL     1      28.135  44.232  52.996  1.00  0.00    -0.043 A 
HETATM    3  C   UNL     1      28.202  44.775  54.290  1.00  0.00     0.011 A 
HETATM    4  C   UNL     1      29.217  44.390  55.169  1.00  0.00     0.037 A 
HETATM    5  C   UNL     1      30.154  43.434  54.786  1.00  0.00     0.068 A 
HETATM    6  C   UNL     1      30.121  42.908  53.497  1.00  0.00     0.037 A 
HETATM    7  C   UNL     1      29.117  43.304  52.609  1.00  0.00     0.011 A 
BRANCH   5   8
HETATM    8  O   UNL     1      31.096  43.100  55.717  1.00  0.00    -0.356 OA
HETATM    9  C   UNL     1      31.245  44.078  56.746  1.00  0.00     0.210 C 
ENDBRANCH   5   8
ENDBRANCH   1   2
BRANCH   1  10
HETATM   10  S   UNL     1      25.883  45.862  52.734  1.00  0.00    -0.080 SA
BRANCH  10  11
HETATM   11  C   UNL     1      25.534  46.877  51.397  1.00  0.00     0.190 A 
HETATM   12  N   UNL     1      26.382  47.569  50.682  1.00  0.00    -0.122 NA
HETATM   13  N   UNL     1      25.660  48.261  49.746  1.00  0.00    -0.129 NA
HETATM   14  C   UNL     1      24.372  48.018  49.937  1.00  0.00     0.162 A 
HETATM   15  N   UNL     1      24.262  47.139  50.990  1.00  0.00    -0.317 N 
HETATM   16  H   UNL     1      23.417  46.745  51.376  1.00  0.00     0.169 HD
BRANCH  14  17
HETATM   17  C   UNL     1      23.261  48.573  49.164  1.00  0.00     0.012 A 
HETATM   18  C   UNL     1      23.144  49.967  49.036  1.00  0.00     0.017 A 
HETATM   19  C   UNL     1      22.092  50.542  48.317  1.00  0.00     0.025 A 
HETATM   20  C   UNL     1      21.137  49.725  47.720  1.00  0.00     0.034 A 
HETATM   21 CL   UNL     1      19.836  50.426  46.844  1.00  0.00    -0.084 Cl
HETATM   22  C   UNL     1      21.231  48.339  47.836  1.00  0.00     0.025 A 
HETATM   23  C   UNL     1      22.288  47.765  48.553  1.00  0.00     0.017 A 
ENDBRANCH  14  17
ENDBRANCH  10  11
ENDBRANCH   1  10
BRANCH   1  24
HETATM   24  C   UNL     1      26.359  43.272  51.515  1.00  0.00     0.123 C 
BRANCH  24  25
HETATM   25  C   UNL     1      26.109  43.301  50.026  1.00  0.00     0.219 C 
HETATM   26  N   UNL     1      25.328  42.276  49.556  1.00  0.00    -0.361 N 
HETATM   27  H   UNL     1      24.760  41.763  50.236  1.00  0.00     0.162 HD
HETATM   28  O   UNL     1      26.578  44.159  49.277  1.00  0.00    -0.274 OA
BRANCH  26  29
HETATM   29  C   UNL     1      25.095  42.018  48.155  1.00  0.00     0.124 C 
BRANCH  29  30
HETATM   30  C   UNL     1      25.970  40.915  47.567  1.00  0.00     0.047 C 
BRANCH  30  31
HETATM   31  C   UNL     1      27.477  41.170  47.516  1.00  0.00     0.236 C 
BRANCH  31  32
HETATM   32  N   UNL     1      28.302  40.131  48.224  1.00  0.00    -0.067 N 
HETATM   33  H   UNL     1      29.299  40.394  48.061  1.00  0.00     0.280 HD
HETATM   34  C   UNL     1      28.066  40.007  49.717  1.00  0.00     0.261 C 
HETATM   35  C   UNL     1      29.000  38.940  50.301  1.00  0.00     0.195 C 
HETATM   36  O   UNL     1      28.805  37.678  49.654  1.00  0.00    -0.388 OA
HETATM   37  C   UNL     1      29.095  37.760  48.254  1.00  0.00     0.195 C 
HETATM   38  C   UNL     1      28.166  38.763  47.561  1.00  0.00     0.261 C 
ENDBRANCH  31  32
ENDBRANCH  30  31
ENDBRANCH  29  30
ENDBRANCH  26  29
ENDBRANCH  24  25
ENDBRANCH   1  24
TORSDOF 11
ENDMDL
