MODEL 1
REMARK VINA RESULT:      -9.1      0.000      0.000
REMARK  3 active torsions:
REMARK  status: ('A' for Active; 'I' for Inactive)
REMARK    1  A    between atoms: C_9  and  C_10 
REMARK       I    between atoms: C_10  and  N_11 
REMARK    2  A    between atoms: N_11  and  C_12 
REMARK    3  A    between atoms: C_14  and  C_15 
ROOT
HETATM    1  C   UNL     1      25.370  44.879  53.858  1.00  0.00     0.277 C 
HETATM    2  N   UNL     1      24.943  45.185  52.593  1.00  0.00    -0.322 N 
HETATM    3  O   UNL     1      24.622  44.249  54.606  1.00  0.00    -0.266 OA
HETATM    4  H   UNL     1      24.006  44.812  52.471  1.00  0.00     0.169 HD
ENDROOT
BRANCH   1   5
HETATM    5  C   UNL     1      26.736  45.223  54.401  1.00  0.00     0.156 A 
HETATM    6  C   UNL     1      27.823  44.224  54.274  1.00  0.00     0.016 A 
HETATM    7  C   UNL     1      27.670  43.000  53.611  1.00  0.00     0.015 A 
HETATM    8  C   UNL     1      29.027  44.508  54.916  1.00  0.00     0.046 A 
HETATM    9  C   UNL     1      28.710  42.063  53.621  1.00  0.00     0.001 A 
HETATM   10  C   UNL     1      29.906  42.348  54.278  1.00  0.00     0.001 A 
HETATM   11  C   UNL     1      30.071  43.574  54.921  1.00  0.00     0.018 A 
HETATM   12  C   UNL     1      29.180  45.797  55.611  1.00  0.00     0.272 A 
HETATM   13  O   UNL     1      30.238  46.115  56.146  1.00  0.00    -0.266 OA
HETATM   14  N   UNL     1      28.077  46.618  55.619  1.00  0.00    -0.242 N 
HETATM   15  N   UNL     1      26.863  46.336  55.066  1.00  0.00    -0.166 NA
HETATM   16  H   UNL     1      28.150  47.488  56.136  1.00  0.00     0.192 HD
ENDBRANCH   1   5
BRANCH   2  17
HETATM   17  C   UNL     1      25.418  45.945  51.510  1.00  0.00     0.035 A 
HETATM   18  C   UNL     1      24.795  47.054  50.936  1.00  0.00     0.042 A 
HETATM   19  C   UNL     1      25.318  47.668  49.776  1.00  0.00    -0.021 A 
HETATM   20  C   UNL     1      26.517  47.180  49.237  1.00  0.00     0.012 A 
HETATM   21  C   UNL     1      27.172  46.102  49.825  1.00  0.00     0.003 A 
HETATM   22  C   UNL     1      26.621  45.489  50.947  1.00  0.00     0.029 A 
BRANCH  19  23
HETATM   23  C   UNL     1      24.627  48.768  49.104  1.00  0.00     0.010 A 
HETATM   24  C   UNL     1      25.101  49.721  48.165  1.00  0.00     0.152 A 
HETATM   25  N   UNL     1      24.152  50.562  47.745  1.00  0.00    -0.187 NA
HETATM   26  N   UNL     1      23.059  50.149  48.402  1.00  0.00    -0.289 N 
HETATM   27  H   UNL     1      22.185  50.637  48.235  1.00  0.00     0.188 HD
HETATM   28  C   UNL     1      23.289  49.085  49.227  1.00  0.00     0.123 A 
ENDBRANCH  19  23
ENDBRANCH   2  17
TORSDOF 3
ENDMDL
MODEL 2
REMARK VINA RESULT:      -8.8      1.501      1.827
REMARK  3 active torsions:
REMARK  status: ('A' for Active; 'I' for Inactive)
REMARK    1  A    between atoms: C_9  and  C_10 
REMARK       I    between atoms: C_10  and  N_11 
REMARK    2  A    between atoms: N_11  and  C_12 
REMARK    3  A    between atoms: C_14  and  C_15 
ROOT
HETATM    1  C   UNL     1      26.289  44.219  51.442  1.00  0.00     0.277 C 
HETATM    2  N   UNL     1      25.968  44.938  50.320  1.00  0.00    -0.322 N 
HETATM    3  O   UNL     1      26.129  42.999  51.435  1.00  0.00    -0.266 OA
HETATM    4  H   UNL     1      25.624  44.295  49.613  1.00  0.00     0.169 HD
ENDROOT
BRANCH   1   5
HETATM    5  C   UNL     1      26.881  44.818  52.695  1.00  0.00     0.156 A 
HETATM    6  C   UNL     1      28.161  44.272  53.206  1.00  0.00     0.016 A 
HETATM    7  C   UNL     1      28.891  43.275  52.547  1.00  0.00     0.015 A 
HETATM    8  C   UNL     1      28.603  44.740  54.442  1.00  0.00     0.046 A 
HETATM    9  C   UNL     1      30.038  42.737  53.142  1.00  0.00     0.001 A 
HETATM   10  C   UNL     1      30.466  43.199  54.386  1.00  0.00     0.001 A 
HETATM   11  C   UNL     1      29.755  44.207  55.036  1.00  0.00     0.018 A 
HETATM   12  C   UNL     1      27.830  45.788  55.129  1.00  0.00     0.272 A 
HETATM   13  O   UNL     1      28.207  46.269  56.192  1.00  0.00    -0.266 OA
HETATM   14  N   UNL     1      26.674  46.196  54.507  1.00  0.00    -0.242 N 
HETATM   15  N   UNL     1      26.175  45.704  53.337  1.00  0.00    -0.166 NA
HETATM   16  H   UNL     1      26.103  46.882  54.991  1.00  0.00     0.192 HD
ENDBRANCH   1   5
BRANCH   2  17
HETATM   17  C   UNL     1      25.901  46.295  49.962  1.00  0.00     0.035 A 
HETATM   18  C   UNL     1      24.743  47.065  49.833  1.00  0.00     0.042 A 
HETATM   19  C   UNL     1      24.797  48.394  49.356  1.00  0.00    -0.021 A 
HETATM   20  C   UNL     1      26.048  48.956  49.066  1.00  0.00     0.012 A 
HETATM   21  C   UNL     1      27.214  48.214  49.231  1.00  0.00     0.003 A 
HETATM   22  C   UNL     1      27.136  46.895  49.669  1.00  0.00     0.029 A 
BRANCH  19  23
HETATM   23  C   UNL     1      23.587  49.181  49.122  1.00  0.00     0.010 A 
HETATM   24  C   UNL     1      23.422  50.566  48.856  1.00  0.00     0.152 A 
HETATM   25  N   UNL     1      22.148  50.916  48.662  1.00  0.00    -0.187 NA
HETATM   26  N   UNL     1      21.485  49.758  48.791  1.00  0.00    -0.289 N 
HETATM   27  H   UNL     1      20.478  49.765  48.672  1.00  0.00     0.188 HD
HETATM   28  C   UNL     1      22.296  48.695  49.069  1.00  0.00     0.123 A 
ENDBRANCH  19  23
ENDBRANCH   2  17
TORSDOF 3
ENDMDL
MODEL 3
REMARK VINA RESULT:      -8.5      3.281      6.529
REMARK  3 active torsions:
REMARK  status: ('A' for Active; 'I' for Inactive)
REMARK    1  A    between atoms: C_9  and  C_10 
REMARK       I    between atoms: C_10  and  N_11 
REMARK    2  A    between atoms: N_11  and  C_12 
REMARK    3  A    between atoms: C_14  and  C_15 
ROOT
HETATM    1  C   UNL     1      27.844  41.945  50.517  1.00  0.00     0.277 C 
HETATM    2  N   UNL     1      28.753  42.128  51.527  1.00  0.00    -0.322 N 
HETATM    3  O   UNL     1      28.155  41.244  49.554  1.00  0.00    -0.266 OA
HETATM    4  H   UNL     1      29.598  41.615  51.297  1.00  0.00     0.169 HD
ENDROOT
BRANCH   1   5
HETATM    5  C   UNL     1      26.446  42.513  50.517  1.00  0.00     0.156 A 
HETATM    6  C   UNL     1      26.263  43.952  50.213  1.00  0.00     0.016 A 
HETATM    7  C   UNL     1      27.316  44.803  49.854  1.00  0.00     0.015 A 
HETATM    8  C   UNL     1      24.982  44.478  50.369  1.00  0.00     0.046 A 
HETATM    9  C   UNL     1      27.083  46.171  49.681  1.00  0.00     0.001 A 
HETATM   10  C   UNL     1      25.802  46.693  49.854  1.00  0.00     0.001 A 
HETATM   11  C   UNL     1      24.747  45.847  50.190  1.00  0.00     0.018 A 
HETATM   12  C   UNL     1      23.880  43.577  50.747  1.00  0.00     0.272 A 
HETATM   13  O   UNL     1      22.727  43.982  50.844  1.00  0.00    -0.266 OA
HETATM   14  N   UNL     1      24.220  42.264  50.976  1.00  0.00    -0.242 N 
HETATM   15  N   UNL     1      25.475  41.736  50.906  1.00  0.00    -0.166 NA
HETATM   16  H   UNL     1      23.481  41.641  51.285  1.00  0.00     0.192 HD
ENDBRANCH   1   5
BRANCH   2  17
HETATM   17  C   UNL     1      28.836  42.903  52.697  1.00  0.00     0.035 A 
HETATM   18  C   UNL     1      28.029  43.991  53.033  1.00  0.00     0.042 A 
HETATM   19  C   UNL     1      28.283  44.762  54.189  1.00  0.00    -0.021 A 
HETATM   20  C   UNL     1      29.333  44.380  55.036  1.00  0.00     0.012 A 
HETATM   21  C   UNL     1      30.119  43.271  54.736  1.00  0.00     0.003 A 
HETATM   22  C   UNL     1      29.873  42.546  53.573  1.00  0.00     0.029 A 
BRANCH  19  23
HETATM   23  C   UNL     1      27.510  45.962  54.505  1.00  0.00     0.010 A 
HETATM   24  C   UNL     1      26.194  46.338  54.128  1.00  0.00     0.152 A 
HETATM   25  N   UNL     1      25.813  47.509  54.646  1.00  0.00    -0.187 NA
HETATM   26  N   UNL     1      26.878  47.890  55.366  1.00  0.00    -0.289 N 
HETATM   27  H   UNL     1      26.825  48.766  55.876  1.00  0.00     0.188 HD
HETATM   28  C   UNL     1      27.916  47.004  55.313  1.00  0.00     0.123 A 
ENDBRANCH  19  23
ENDBRANCH   2  17
TORSDOF 3
ENDMDL
MODEL 4
REMARK VINA RESULT:      -8.5      1.863      2.648
REMARK  3 active torsions:
REMARK  status: ('A' for Active; 'I' for Inactive)
REMARK    1  A    between atoms: C_9  and  C_10 
REMARK       I    between atoms: C_10  and  N_11 
REMARK    2  A    between atoms: N_11  and  C_12 
REMARK    3  A    between atoms: C_14  and  C_15 
ROOT
HETATM    1  C   UNL     1      27.846  43.370  52.618  1.00  0.00     0.277 C 
HETATM    2  N   UNL     1      27.225  43.577  51.414  1.00  0.00    -0.322 N 
HETATM    3  O   UNL     1      28.379  42.282  52.836  1.00  0.00    -0.266 OA
HETATM    4  H   UNL     1      27.315  42.733  50.856  1.00  0.00     0.169 HD
ENDROOT
BRANCH   1   5
HETATM    5  C   UNL     1      27.968  44.413  53.703  1.00  0.00     0.156 A 
HETATM    6  C   UNL     1      29.110  44.327  54.644  1.00  0.00     0.016 A 
HETATM    7  C   UNL     1      30.126  43.369  54.537  1.00  0.00     0.015 A 
HETATM    8  C   UNL     1      29.113  45.211  55.722  1.00  0.00     0.046 A 
HETATM    9  C   UNL     1      31.116  43.286  55.522  1.00  0.00     0.001 A 
HETATM   10  C   UNL     1      31.105  44.163  56.606  1.00  0.00     0.001 A 
HETATM   11  C   UNL     1      30.108  45.132  56.705  1.00  0.00     0.018 A 
HETATM   12  C   UNL     1      28.042  46.215  55.827  1.00  0.00     0.272 A 
HETATM   13  O   UNL     1      28.030  47.048  56.728  1.00  0.00    -0.266 OA
HETATM   14  N   UNL     1      27.067  46.167  54.858  1.00  0.00    -0.242 N 
HETATM   15  N   UNL     1      26.995  45.268  53.836  1.00  0.00    -0.166 NA
HETATM   16  H   UNL     1      26.294  46.820  54.944  1.00  0.00     0.192 HD
ENDBRANCH   1   5
BRANCH   2  17
HETATM   17  C   UNL     1      26.439  44.586  50.831  1.00  0.00     0.035 A 
HETATM   18  C   UNL     1      26.902  45.768  50.251  1.00  0.00     0.042 A 
HETATM   19  C   UNL     1      26.004  46.761  49.797  1.00  0.00    -0.021 A 
HETATM   20  C   UNL     1      24.627  46.514  49.883  1.00  0.00     0.012 A 
HETATM   21  C   UNL     1      24.152  45.321  50.419  1.00  0.00     0.003 A 
HETATM   22  C   UNL     1      25.054  44.371  50.893  1.00  0.00     0.029 A 
BRANCH  19  23
HETATM   23  C   UNL     1      26.470  48.046  49.277  1.00  0.00     0.010 A 
HETATM   24  C   UNL     1      25.744  49.166  48.795  1.00  0.00     0.152 A 
HETATM   25  N   UNL     1      26.528  50.184  48.432  1.00  0.00    -0.187 NA
HETATM   26  N   UNL     1      27.763  49.731  48.687  1.00  0.00    -0.289 N 
HETATM   27  H   UNL     1      28.549  50.345  48.499  1.00  0.00     0.188 HD
HETATM   28  C   UNL     1      27.784  48.461  49.188  1.00  0.00     0.123 A 
ENDBRANCH  19  23
ENDBRANCH   2  17
TORSDOF 3
ENDMDL
MODEL 5
REMARK VINA RESULT:      -8.5      3.620      8.478
REMARK  3 active torsions:
REMARK  status: ('A' for Active; 'I' for Inactive)
REMARK    1  A    between atoms: C_9  and  C_10 
REMARK       I    between atoms: C_10  and  N_11 
REMARK    2  A    between atoms: N_11  and  C_12 
REMARK    3  A    between atoms: C_14  and  C_15 
ROOT
HETATM    1  C   UNL     1      23.935  49.194  48.603  1.00  0.00     0.277 C 
HETATM    2  N   UNL     1      24.788  48.204  49.018  1.00  0.00    -0.322 N 
HETATM    3  O   UNL     1      24.254  49.891  47.640  1.00  0.00    -0.266 OA
HETATM    4  H   UNL     1      25.605  48.210  48.416  1.00  0.00     0.169 HD
ENDROOT
BRANCH   1   5
HETATM    5  C   UNL     1      22.586  49.469  49.221  1.00  0.00     0.156 A 
HETATM    6  C   UNL     1      21.433  48.633  48.809  1.00  0.00     0.016 A 
HETATM    7  C   UNL     1      21.542  47.551  47.927  1.00  0.00     0.015 A 
HETATM    8  C   UNL     1      20.176  49.008  49.281  1.00  0.00     0.046 A 
HETATM    9  C   UNL     1      20.393  46.873  47.505  1.00  0.00     0.001 A 
HETATM   10  C   UNL     1      19.138  47.262  47.969  1.00  0.00     0.001 A 
HETATM   11  C   UNL     1      19.026  48.325  48.864  1.00  0.00     0.018 A 
HETATM   12  C   UNL     1      20.069  50.146  50.208  1.00  0.00     0.272 A 
HETATM   13  O   UNL     1      18.992  50.480  50.691  1.00  0.00    -0.266 OA
HETATM   14  N   UNL     1      21.241  50.803  50.501  1.00  0.00    -0.242 N 
HETATM   15  N   UNL     1      22.474  50.509  49.997  1.00  0.00    -0.166 NA
HETATM   16  H   UNL     1      21.179  51.621  51.099  1.00  0.00     0.192 HD
ENDBRANCH   1   5
BRANCH   2  17
HETATM   17  C   UNL     1      24.853  47.297  50.089  1.00  0.00     0.035 A 
HETATM   18  C   UNL     1      25.470  47.510  51.323  1.00  0.00     0.042 A 
HETATM   19  C   UNL     1      25.567  46.477  52.282  1.00  0.00    -0.021 A 
HETATM   20  C   UNL     1      24.977  45.237  51.998  1.00  0.00     0.012 A 
HETATM   21  C   UNL     1      24.322  45.023  50.789  1.00  0.00     0.003 A 
HETATM   22  C   UNL     1      24.268  46.045  49.844  1.00  0.00     0.029 A 
BRANCH  19  23
HETATM   23  C   UNL     1      26.293  46.653  53.538  1.00  0.00     0.010 A 
HETATM   24  C   UNL     1      27.321  45.871  54.129  1.00  0.00     0.152 A 
HETATM   25  N   UNL     1      27.768  46.375  55.282  1.00  0.00    -0.187 NA
HETATM   26  N   UNL     1      27.038  47.489  55.437  1.00  0.00    -0.289 N 
HETATM   27  H   UNL     1      27.208  48.065  56.255  1.00  0.00     0.188 HD
HETATM   28  C   UNL     1      26.143  47.698  54.427  1.00  0.00     0.123 A 
ENDBRANCH  19  23
ENDBRANCH   2  17
TORSDOF 3
ENDMDL
MODEL 6
REMARK VINA RESULT:      -8.5      3.530      5.632
REMARK  3 active torsions:
REMARK  status: ('A' for Active; 'I' for Inactive)
REMARK    1  A    between atoms: C_9  and  C_10 
REMARK       I    between atoms: C_10  and  N_11 
REMARK    2  A    between atoms: N_11  and  C_12 
REMARK    3  A    between atoms: C_14  and  C_15 
ROOT
HETATM    1  C   UNL     1      26.074  47.682  49.386  1.00  0.00     0.277 C 
HETATM    2  N   UNL     1      25.382  48.817  49.054  1.00  0.00    -0.322 N 
HETATM    3  O   UNL     1      27.294  47.656  49.223  1.00  0.00    -0.266 OA
HETATM    4  H   UNL     1      26.042  49.504  48.702  1.00  0.00     0.169 HD
ENDROOT
BRANCH   1   5
HETATM    5  C   UNL     1      25.446  46.450  49.992  1.00  0.00     0.156 A 
HETATM    6  C   UNL     1      25.513  46.269  51.462  1.00  0.00     0.016 A 
HETATM    7  C   UNL     1      26.066  47.218  52.330  1.00  0.00     0.015 A 
HETATM    8  C   UNL     1      25.060  45.054  51.974  1.00  0.00     0.046 A 
HETATM    9  C   UNL     1      26.187  46.932  53.694  1.00  0.00     0.001 A 
HETATM   10  C   UNL     1      25.746  45.710  54.198  1.00  0.00     0.001 A 
HETATM   11  C   UNL     1      25.175  44.770  53.341  1.00  0.00     0.018 A 
HETATM   12  C   UNL     1      24.479  44.062  51.055  1.00  0.00     0.272 A 
HETATM   13  O   UNL     1      24.019  43.001  51.465  1.00  0.00    -0.266 OA
HETATM   14  N   UNL     1      24.478  44.397  49.721  1.00  0.00    -0.242 N 
HETATM   15  N   UNL     1      24.982  45.543  49.180  1.00  0.00    -0.166 NA
HETATM   16  H   UNL     1      24.127  43.703  49.068  1.00  0.00     0.192 HD
ENDBRANCH   1   5
BRANCH   2  17
HETATM   17  C   UNL     1      24.034  49.208  48.986  1.00  0.00     0.035 A 
HETATM   18  C   UNL     1      22.921  48.372  49.074  1.00  0.00     0.042 A 
HETATM   19  C   UNL     1      21.613  48.870  48.878  1.00  0.00    -0.021 A 
HETATM   20  C   UNL     1      21.442  50.242  48.649  1.00  0.00     0.012 A 
HETATM   21  C   UNL     1      22.540  51.095  48.602  1.00  0.00     0.003 A 
HETATM   22  C   UNL     1      23.823  50.578  48.763  1.00  0.00     0.029 A 
BRANCH  19  23
HETATM   23  C   UNL     1      20.444  47.992  48.869  1.00  0.00     0.010 A 
HETATM   24  C   UNL     1      20.197  46.788  48.158  1.00  0.00     0.152 A 
HETATM   25  N   UNL     1      19.010  46.245  48.440  1.00  0.00    -0.187 NA
HETATM   26  N   UNL     1      18.489  47.089  49.341  1.00  0.00    -0.289 N 
HETATM   27  H   UNL     1      17.573  46.879  49.724  1.00  0.00     0.188 HD
HETATM   28  C   UNL     1      19.302  48.148  49.629  1.00  0.00     0.123 A 
ENDBRANCH  19  23
ENDBRANCH   2  17
TORSDOF 3
ENDMDL
MODEL 7
REMARK VINA RESULT:      -8.2      5.934     10.952
REMARK  3 active torsions:
REMARK  status: ('A' for Active; 'I' for Inactive)
REMARK    1  A    between atoms: C_9  and  C_10 
REMARK       I    between atoms: C_10  and  N_11 
REMARK    2  A    between atoms: N_11  and  C_12 
REMARK    3  A    between atoms: C_14  and  C_15 
ROOT
HETATM    1  C   UNL     1      18.995  48.803  50.034  1.00  0.00     0.277 C 
HETATM    2  N   UNL     1      20.320  49.081  50.245  1.00  0.00    -0.322 N 
HETATM    3  O   UNL     1      18.351  48.252  50.926  1.00  0.00    -0.266 OA
HETATM    4  H   UNL     1      20.572  48.762  51.176  1.00  0.00     0.169 HD
ENDROOT
BRANCH   1   5
HETATM    5  C   UNL     1      18.238  49.172  48.781  1.00  0.00     0.156 A 
HETATM    6  C   UNL     1      17.461  50.434  48.767  1.00  0.00     0.016 A 
HETATM    7  C   UNL     1      17.448  51.343  49.832  1.00  0.00     0.015 A 
HETATM    8  C   UNL     1      16.653  50.671  47.656  1.00  0.00     0.046 A 
HETATM    9  C   UNL     1      16.610  52.462  49.788  1.00  0.00     0.001 A 
HETATM   10  C   UNL     1      15.794  52.685  48.680  1.00  0.00     0.001 A 
HETATM   11  C   UNL     1      15.819  51.795  47.608  1.00  0.00     0.018 A 
HETATM   12  C   UNL     1      16.672  49.711  46.540  1.00  0.00     0.272 A 
HETATM   13  O   UNL     1      16.020  49.903  45.519  1.00  0.00    -0.266 OA
HETATM   14  N   UNL     1      17.463  48.598  46.708  1.00  0.00    -0.242 N 
HETATM   15  N   UNL     1      18.204  48.301  47.814  1.00  0.00    -0.166 NA
HETATM   16  H   UNL     1      17.449  47.902  45.970  1.00  0.00     0.192 HD
ENDBRANCH   1   5
BRANCH   2  17
HETATM   17  C   UNL     1      21.392  49.581  49.486  1.00  0.00     0.035 A 
HETATM   18  C   UNL     1      22.697  49.085  49.463  1.00  0.00     0.042 A 
HETATM   19  C   UNL     1      23.718  49.743  48.742  1.00  0.00    -0.021 A 
HETATM   20  C   UNL     1      23.387  50.881  47.993  1.00  0.00     0.012 A 
HETATM   21  C   UNL     1      22.082  51.362  47.971  1.00  0.00     0.003 A 
HETATM   22  C   UNL     1      21.098  50.718  48.718  1.00  0.00     0.029 A 
BRANCH  19  23
HETATM   23  C   UNL     1      25.109  49.294  48.785  1.00  0.00     0.010 A 
HETATM   24  C   UNL     1      25.711  48.217  49.487  1.00  0.00     0.152 A 
HETATM   25  N   UNL     1      27.019  48.099  49.248  1.00  0.00    -0.187 NA
HETATM   26  N   UNL     1      27.267  49.093  48.383  1.00  0.00    -0.289 N 
HETATM   27  H   UNL     1      28.214  49.203  48.035  1.00  0.00     0.188 HD
HETATM   28  C   UNL     1      26.162  49.836  48.077  1.00  0.00     0.123 A 
ENDBRANCH  19  23
ENDBRANCH   2  17
TORSDOF 3
ENDMDL
MODEL 8
REMARK VINA RESULT:      -8.2      4.295      6.973
REMARK  3 active torsions:
REMARK  status: ('A' for Active; 'I' for Inactive)
REMARK    1  A    between atoms: C_9  and  C_10 
REMARK       I    between atoms: C_10  and  N_11 
REMARK    2  A    between atoms: N_11  and  C_12 
REMARK    3  A    between atoms: C_14  and  C_15 
ROOT
HETATM    1  C   UNL     1      26.554  44.682  50.212  1.00  0.00     0.277 C 
HETATM    2  N   UNL     1      26.573  43.723  49.234  1.00  0.00    -0.322 N 
HETATM    3  O   UNL     1      26.653  45.866  49.889  1.00  0.00    -0.266 OA
HETATM    4  H   UNL     1      26.672  44.183  48.334  1.00  0.00     0.169 HD
ENDROOT
BRANCH   1   5
HETATM    5  C   UNL     1      26.371  44.395  51.683  1.00  0.00     0.156 A 
HETATM    6  C   UNL     1      27.528  43.881  52.455  1.00  0.00     0.016 A 
HETATM    7  C   UNL     1      28.806  43.715  51.908  1.00  0.00     0.015 A 
HETATM    8  C   UNL     1      27.289  43.484  53.769  1.00  0.00     0.046 A 
HETATM    9  C   UNL     1      29.823  43.129  52.670  1.00  0.00     0.001 A 
HETATM   10  C   UNL     1      29.573  42.720  53.979  1.00  0.00     0.001 A 
HETATM   11  C   UNL     1      28.308  42.903  54.534  1.00  0.00     0.018 A 
HETATM   12  C   UNL     1      25.942  43.661  54.337  1.00  0.00     0.272 A 
HETATM   13  O   UNL     1      25.696  43.376  55.504  1.00  0.00    -0.266 OA
HETATM   14  N   UNL     1      24.987  44.169  53.488  1.00  0.00    -0.242 N 
HETATM   15  N   UNL     1      25.170  44.496  52.176  1.00  0.00    -0.166 NA
HETATM   16  H   UNL     1      24.041  44.251  53.848  1.00  0.00     0.192 HD
ENDBRANCH   1   5
BRANCH   2  17
HETATM   17  C   UNL     1      26.594  42.318  49.182  1.00  0.00     0.035 A 
HETATM   18  C   UNL     1      27.628  41.486  49.613  1.00  0.00     0.042 A 
HETATM   19  C   UNL     1      27.580  40.090  49.405  1.00  0.00    -0.021 A 
HETATM   20  C   UNL     1      26.440  39.537  48.804  1.00  0.00     0.012 A 
HETATM   21  C   UNL     1      25.383  40.350  48.408  1.00  0.00     0.003 A 
HETATM   22  C   UNL     1      25.466  41.728  48.591  1.00  0.00     0.029 A 
BRANCH  19  23
HETATM   23  C   UNL     1      28.696  39.215  49.762  1.00  0.00     0.010 A 
HETATM   24  C   UNL     1      29.513  38.382  48.953  1.00  0.00     0.152 A 
HETATM   25  N   UNL     1      30.467  37.751  49.644  1.00  0.00    -0.187 NA
HETATM   26  N   UNL     1      30.276  38.180  50.899  1.00  0.00    -0.289 N 
HETATM   27  H   UNL     1      30.901  37.841  51.623  1.00  0.00     0.188 HD
HETATM   28  C   UNL     1      29.231  39.052  51.023  1.00  0.00     0.123 A 
ENDBRANCH  19  23
ENDBRANCH   2  17
TORSDOF 3
ENDMDL
MODEL 9
REMARK VINA RESULT:      -8.1      3.264      5.518
REMARK  3 active torsions:
REMARK  status: ('A' for Active; 'I' for Inactive)
REMARK    1  A    between atoms: C_9  and  C_10 
REMARK       I    between atoms: C_10  and  N_11 
REMARK    2  A    between atoms: N_11  and  C_12 
REMARK    3  A    between atoms: C_14  and  C_15 
ROOT
HETATM    1  C   UNL     1      26.001  47.871  49.561  1.00  0.00     0.277 C 
HETATM    2  N   UNL     1      25.024  48.626  48.967  1.00  0.00    -0.322 N 
HETATM    3  O   UNL     1      27.161  47.974  49.160  1.00  0.00    -0.266 OA
HETATM    4  H   UNL     1      25.450  49.190  48.238  1.00  0.00     0.169 HD
ENDROOT
BRANCH   1   5
HETATM    5  C   UNL     1      25.767  46.938  50.724  1.00  0.00     0.156 A 
HETATM    6  C   UNL     1      25.366  45.539  50.442  1.00  0.00     0.016 A 
HETATM    7  C   UNL     1      25.261  45.013  49.148  1.00  0.00     0.015 A 
HETATM    8  C   UNL     1      25.012  44.747  51.533  1.00  0.00     0.046 A 
HETATM    9  C   UNL     1      24.778  43.714  48.957  1.00  0.00     0.001 A 
HETATM   10  C   UNL     1      24.411  42.933  50.051  1.00  0.00     0.001 A 
HETATM   11  C   UNL     1      24.534  43.444  51.342  1.00  0.00     0.018 A 
HETATM   12  C   UNL     1      25.125  45.306  52.890  1.00  0.00     0.272 A 
HETATM   13  O   UNL     1      24.876  44.631  53.883  1.00  0.00    -0.266 OA
HETATM   14  N   UNL     1      25.530  46.618  52.975  1.00  0.00    -0.242 N 
HETATM   15  N   UNL     1      25.810  47.441  51.924  1.00  0.00    -0.166 NA
HETATM   16  H   UNL     1      25.565  47.034  53.900  1.00  0.00     0.192 HD
ENDBRANCH   1   5
BRANCH   2  17
HETATM   17  C   UNL     1      23.624  48.727  49.045  1.00  0.00     0.035 A 
HETATM   18  C   UNL     1      22.707  47.681  48.936  1.00  0.00     0.042 A 
HETATM   19  C   UNL     1      21.315  47.925  48.919  1.00  0.00    -0.021 A 
HETATM   20  C   UNL     1      20.861  49.242  49.074  1.00  0.00     0.012 A 
HETATM   21  C   UNL     1      21.762  50.290  49.227  1.00  0.00     0.003 A 
HETATM   22  C   UNL     1      23.131  50.032  49.206  1.00  0.00     0.029 A 
BRANCH  19  23
HETATM   23  C   UNL     1      20.344  46.852  48.707  1.00  0.00     0.010 A 
HETATM   24  C   UNL     1      20.535  45.461  48.499  1.00  0.00     0.152 A 
HETATM   25  N   UNL     1      19.389  44.786  48.378  1.00  0.00    -0.187 NA
HETATM   26  N   UNL     1      18.454  45.735  48.517  1.00  0.00    -0.289 N 
HETATM   27  H   UNL     1      17.478  45.460  48.474  1.00  0.00     0.188 HD
HETATM   28  C   UNL     1      18.971  46.984  48.713  1.00  0.00     0.123 A 
ENDBRANCH  19  23
ENDBRANCH   2  17
TORSDOF 3
ENDMDL
MODEL 10
REMARK VINA RESULT:      -8.1      3.371      7.649
REMARK  3 active torsions:
REMARK  status: ('A' for Active; 'I' for Inactive)
REMARK    1  A    between atoms: C_9  and  C_10 
REMARK       I    between atoms: C_10  and  N_11 
REMARK    2  A    between atoms: N_11  and  C_12 
REMARK    3  A    between atoms: C_14  and  C_15 
ROOT
HETATM    1  C   UNL     1      26.816  42.916  49.652  1.00  0.00     0.277 C 
HETATM    2  N   UNL     1      27.448  42.862  50.867  1.00  0.00    -0.322 N 
HETATM    3  O   UNL     1      27.296  42.297  48.702  1.00  0.00    -0.266 OA
HETATM    4  H   UNL     1      28.271  42.275  50.777  1.00  0.00     0.169 HD
ENDROOT
BRANCH   1   5
HETATM    5  C   UNL     1      25.524  43.654  49.396  1.00  0.00     0.156 A 
HETATM    6  C   UNL     1      25.528  45.135  49.460  1.00  0.00     0.016 A 
HETATM    7  C   UNL     1      26.686  45.893  49.676  1.00  0.00     0.015 A 
HETATM    8  C   UNL     1      24.295  45.778  49.369  1.00  0.00     0.046 A 
HETATM    9  C   UNL     1      26.596  47.281  49.826  1.00  0.00     0.001 A 
HETATM   10  C   UNL     1      25.358  47.917  49.749  1.00  0.00     0.001 A 
HETATM   11  C   UNL     1      24.205  47.169  49.513  1.00  0.00     0.018 A 
HETATM   12  C   UNL     1      23.083  44.974  49.143  1.00  0.00     0.272 A 
HETATM   13  O   UNL     1      21.984  45.499  49.004  1.00  0.00    -0.266 OA
HETATM   14  N   UNL     1      23.259  43.611  49.091  1.00  0.00    -0.242 N 
HETATM   15  N   UNL     1      24.440  42.948  49.252  1.00  0.00    -0.166 NA
HETATM   16  H   UNL     1      22.427  43.040  48.986  1.00  0.00     0.192 HD
ENDBRANCH   1   5
BRANCH   2  17
HETATM   17  C   UNL     1      27.301  43.478  52.122  1.00  0.00     0.035 A 
HETATM   18  C   UNL     1      28.329  43.896  52.968  1.00  0.00     0.042 A 
HETATM   19  C   UNL     1      28.055  44.403  54.259  1.00  0.00    -0.021 A 
HETATM   20  C   UNL     1      26.718  44.535  54.661  1.00  0.00     0.012 A 
HETATM   21  C   UNL     1      25.682  44.162  53.811  1.00  0.00     0.003 A 
HETATM   22  C   UNL     1      25.975  43.633  52.556  1.00  0.00     0.029 A 
BRANCH  19  23
HETATM   23  C   UNL     1      29.122  44.754  55.195  1.00  0.00     0.010 A 
HETATM   24  C   UNL     1      29.250  45.857  56.079  1.00  0.00     0.152 A 
HETATM   25  N   UNL     1      30.366  45.818  56.811  1.00  0.00    -0.187 NA
HETATM   26  N   UNL     1      30.959  44.685  56.410  1.00  0.00    -0.289 N 
HETATM   27  H   UNL     1      31.840  44.425  56.842  1.00  0.00     0.188 HD
HETATM   28  C   UNL     1      30.260  44.016  55.446  1.00  0.00     0.123 A 
ENDBRANCH  19  23
ENDBRANCH   2  17
TORSDOF 3
ENDMDL
