MODEL 1
REMARK VINA RESULT:     -10.1      0.000      0.000
REMARK  8 active torsions:
REMARK  status: ('A' for Active; 'I' for Inactive)
REMARK       I    between atoms: N_2  and  C_3 
REMARK    1  A    between atoms: N_2  and  C_29 
REMARK    2  A    between atoms: C_3  and  C_4 
REMARK    3  A    between atoms: C_7  and  C_8 
REMARK       I    between atoms: C_8  and  N_9 
REMARK    4  A    between atoms: N_9  and  C_10 
REMARK    5  A    between atoms: N_20  and  C_21 
REMARK    6  A    between atoms: C_21  and  C_22 
REMARK    7  A    between atoms: C_29  and  C_30 
REMARK    8  A    between atoms: C_30  and  C_31 
ROOT
HETATM    1  C   UNL     1      25.087  42.603  50.754  1.00  0.00     0.098 C 
HETATM    2  C   UNL     1      25.908  43.077  51.892  1.00  0.00     0.206 C 
HETATM    3  O   UNL     1      25.521  43.970  52.644  1.00  0.00    -0.286 OA
HETATM    4  C   UNL     1      27.249  42.453  52.086  1.00  0.00     0.098 C 
HETATM    5  C   UNL     1      27.486  41.307  51.420  1.00  0.00     0.111 C 
HETATM    6  N   UNL     1      26.602  40.723  50.517  1.00  0.00    -0.362 N 
HETATM    7  C   UNL     1      25.457  41.443  50.185  1.00  0.00     0.111 C 
ENDROOT
BRANCH   1   8
HETATM    8  C   UNL     1      23.871  43.254  50.213  1.00  0.00     0.258 C 
HETATM    9  N   UNL     1      23.989  44.415  49.449  1.00  0.00    -0.352 N 
HETATM   10  C   UNL     1      22.774  44.906  48.813  1.00  0.00     0.152 C 
HETATM   11  O   UNL     1      22.794  42.665  50.343  1.00  0.00    -0.267 OA
BRANCH   9  12
HETATM   12  C   UNL     1      25.108  45.375  49.466  1.00  0.00     0.131 C 
BRANCH  12  13
HETATM   13  C   UNL     1      24.890  46.662  50.260  1.00  0.00     0.079 C 
BRANCH  13  14
HETATM   14  C   UNL     1      25.512  47.863  49.603  1.00  0.00     0.035 A 
HETATM   15  N   UNL     1      24.666  48.741  49.012  1.00  0.00    -0.266 NA
HETATM   16  C   UNL     1      25.211  49.841  48.449  1.00  0.00     0.117 A 
HETATM   17  C   UNL     1      26.569  50.109  48.441  1.00  0.00     0.019 A 
HETATM   18  C   UNL     1      27.423  49.191  49.041  1.00  0.00     0.003 A 
HETATM   19  C   UNL     1      26.891  48.049  49.627  1.00  0.00     0.027 A 
ENDBRANCH  13  14
ENDBRANCH  12  13
ENDBRANCH   9  12
ENDBRANCH   1   8
BRANCH   4  20
HETATM   20  C   UNL     1      28.340  43.061  52.896  1.00  0.00     0.257 C 
HETATM   21  N   UNL     1      28.046  43.196  54.230  1.00  0.00    -0.352 N 
HETATM   22  H   UNL     1      27.225  42.709  54.590  1.00  0.00     0.163 HD
HETATM   23  O   UNL     1      29.379  43.469  52.384  1.00  0.00    -0.267 OA
BRANCH  21  24
HETATM   24  C   UNL     1      28.886  43.905  55.197  1.00  0.00     0.084 C 
HETATM   25  C   UNL     1      30.316  43.368  55.036  1.00  0.00     0.025 C 
HETATM   26  C   UNL     1      31.393  43.864  55.999  1.00  0.00     0.002 C 
HETATM   27  C   UNL     1      30.973  43.946  57.466  1.00  0.00     0.000 C 
HETATM   28  C   UNL     1      30.653  45.361  57.951  1.00  0.00     0.000 C 
HETATM   29  C   UNL     1      29.387  46.009  57.388  1.00  0.00     0.000 C 
HETATM   30  C   UNL     1      29.464  46.363  55.903  1.00  0.00     0.002 C 
HETATM   31  C   UNL     1      28.719  45.410  54.966  1.00  0.00     0.025 C 
ENDBRANCH  21  24
ENDBRANCH   4  20
BRANCH   6  32
HETATM   32  C   UNL     1      26.846  39.378  49.947  1.00  0.00     0.159 C 
BRANCH  32  33
HETATM   33  C   UNL     1      27.391  39.380  48.510  1.00  0.00     0.139 C 
HETATM   34  O   UNL     1      26.351  39.574  47.531  1.00  0.00    -0.384 OA
HETATM   35  C   UNL     1      26.966  40.186  46.394  1.00  0.00     0.168 C 
HETATM   36  C   UNL     1      28.003  41.120  46.969  1.00  0.00     0.029 C 
HETATM   37  C   UNL     1      28.491  40.393  48.203  1.00  0.00     0.035 C 
ENDBRANCH  32  33
ENDBRANCH   6  32
TORSDOF 8
ENDMDL
MODEL 2
REMARK VINA RESULT:      -9.8      3.315      4.990
REMARK  8 active torsions:
REMARK  status: ('A' for Active; 'I' for Inactive)
REMARK       I    between atoms: N_2  and  C_3 
REMARK    1  A    between atoms: N_2  and  C_29 
REMARK    2  A    between atoms: C_3  and  C_4 
REMARK    3  A    between atoms: C_7  and  C_8 
REMARK       I    between atoms: C_8  and  N_9 
REMARK    4  A    between atoms: N_9  and  C_10 
REMARK    5  A    between atoms: N_20  and  C_21 
REMARK    6  A    between atoms: C_21  and  C_22 
REMARK    7  A    between atoms: C_29  and  C_30 
REMARK    8  A    between atoms: C_30  and  C_31 
ROOT
HETATM    1  C   UNL     1      24.438  47.065  50.016  1.00  0.00     0.098 C 
HETATM    2  C   UNL     1      24.952  46.799  51.380  1.00  0.00     0.206 C 
HETATM    3  O   UNL     1      25.382  47.700  52.099  1.00  0.00    -0.286 OA
HETATM    4  C   UNL     1      24.961  45.384  51.854  1.00  0.00     0.098 C 
HETATM    5  C   UNL     1      24.226  44.505  51.148  1.00  0.00     0.111 C 
HETATM    6  N   UNL     1      23.534  44.814  49.980  1.00  0.00    -0.362 N 
HETATM    7  C   UNL     1      23.727  46.081  49.438  1.00  0.00     0.111 C 
ENDROOT
BRANCH   1   8
HETATM    8  C   UNL     1      24.587  48.322  49.248  1.00  0.00     0.258 C 
HETATM    9  N   UNL     1      23.500  49.186  49.117  1.00  0.00    -0.352 N 
HETATM   10  C   UNL     1      23.762  50.477  48.493  1.00  0.00     0.152 C 
HETATM   11  O   UNL     1      25.717  48.630  48.859  1.00  0.00    -0.267 OA
BRANCH   9  12
HETATM   12  C   UNL     1      22.073  48.838  49.239  1.00  0.00     0.131 C 
BRANCH  12  13
HETATM   13  C   UNL     1      21.150  49.347  48.133  1.00  0.00     0.079 C 
BRANCH  13  14
HETATM   14  C   UNL     1      20.071  50.259  48.649  1.00  0.00     0.035 A 
HETATM   15  N   UNL     1      19.197  49.727  49.538  1.00  0.00    -0.266 NA
HETATM   16  C   UNL     1      18.246  50.546  50.035  1.00  0.00     0.117 A 
HETATM   17  C   UNL     1      18.118  51.880  49.684  1.00  0.00     0.019 A 
HETATM   18  C   UNL     1      19.016  52.404  48.762  1.00  0.00     0.003 A 
HETATM   19  C   UNL     1      20.005  51.585  48.231  1.00  0.00     0.027 A 
ENDBRANCH  13  14
ENDBRANCH  12  13
ENDBRANCH   9  12
ENDBRANCH   1   8
BRANCH   4  20
HETATM   20  C   UNL     1      25.786  44.893  52.992  1.00  0.00     0.257 C 
HETATM   21  N   UNL     1      27.075  45.364  53.001  1.00  0.00    -0.352 N 
HETATM   22  H   UNL     1      27.305  46.137  52.376  1.00  0.00     0.163 HD
HETATM   23  O   UNL     1      25.354  44.078  53.802  1.00  0.00    -0.267 OA
BRANCH  21  24
HETATM   24  C   UNL     1      28.119  44.905  53.919  1.00  0.00     0.084 C 
HETATM   25  C   UNL     1      27.812  45.513  55.295  1.00  0.00     0.025 C 
HETATM   26  C   UNL     1      28.806  45.281  56.432  1.00  0.00     0.002 C 
HETATM   27  C   UNL     1      30.279  45.430  56.055  1.00  0.00     0.000 C 
HETATM   28  C   UNL     1      31.018  44.105  55.863  1.00  0.00     0.000 C 
HETATM   29  C   UNL     1      30.626  43.271  54.642  1.00  0.00     0.000 C 
HETATM   30  C   UNL     1      29.224  42.665  54.713  1.00  0.00     0.002 C 
HETATM   31  C   UNL     1      28.164  43.375  53.870  1.00  0.00     0.025 C 
ENDBRANCH  21  24
ENDBRANCH   4  20
BRANCH   6  32
HETATM   32  C   UNL     1      22.607  43.848  49.345  1.00  0.00     0.159 C 
BRANCH  32  33
HETATM   33  C   UNL     1      23.226  42.478  49.027  1.00  0.00     0.139 C 
HETATM   34  O   UNL     1      22.279  41.575  48.424  1.00  0.00    -0.384 OA
HETATM   35  C   UNL     1      23.032  40.665  47.619  1.00  0.00     0.168 C 
HETATM   36  C   UNL     1      24.152  41.495  47.039  1.00  0.00     0.029 C 
HETATM   37  C   UNL     1      24.468  42.484  48.139  1.00  0.00     0.035 C 
ENDBRANCH  32  33
ENDBRANCH   6  32
TORSDOF 8
ENDMDL
MODEL 3
REMARK VINA RESULT:      -9.5      2.718      4.187
REMARK  8 active torsions:
REMARK  status: ('A' for Active; 'I' for Inactive)
REMARK       I    between atoms: N_2  and  C_3 
REMARK    1  A    between atoms: N_2  and  C_29 
REMARK    2  A    between atoms: C_3  and  C_4 
REMARK    3  A    between atoms: C_7  and  C_8 
REMARK       I    between atoms: C_8  and  N_9 
REMARK    4  A    between atoms: N_9  and  C_10 
REMARK    5  A    between atoms: N_20  and  C_21 
REMARK    6  A    between atoms: C_21  and  C_22 
REMARK    7  A    between atoms: C_29  and  C_30 
REMARK    8  A    between atoms: C_30  and  C_31 
ROOT
HETATM    1  C   UNL     1      25.738  46.613  50.169  1.00  0.00     0.098 C 
HETATM    2  C   UNL     1      25.970  46.515  51.629  1.00  0.00     0.206 C 
HETATM    3  O   UNL     1      26.065  47.514  52.340  1.00  0.00    -0.286 OA
HETATM    4  C   UNL     1      26.114  45.151  52.217  1.00  0.00     0.098 C 
HETATM    5  C   UNL     1      25.719  44.117  51.452  1.00  0.00     0.111 C 
HETATM    6  N   UNL     1      25.267  44.234  50.141  1.00  0.00    -0.362 N 
HETATM    7  C   UNL     1      25.356  45.487  49.542  1.00  0.00     0.111 C 
ENDROOT
BRANCH   1   8
HETATM    8  C   UNL     1      25.838  47.837  49.341  1.00  0.00     0.258 C 
HETATM    9  N   UNL     1      24.722  48.656  49.179  1.00  0.00    -0.352 N 
HETATM   10  C   UNL     1      24.934  49.925  48.493  1.00  0.00     0.152 C 
HETATM   11  O   UNL     1      26.954  48.166  48.929  1.00  0.00    -0.267 OA
BRANCH   9  12
HETATM   12  C   UNL     1      23.308  48.266  49.329  1.00  0.00     0.131 C 
BRANCH  12  13
HETATM   13  C   UNL     1      22.358  48.704  48.215  1.00  0.00     0.079 C 
BRANCH  13  14
HETATM   14  C   UNL     1      21.261  49.607  48.709  1.00  0.00     0.035 A 
HETATM   15  N   UNL     1      20.379  49.071  49.587  1.00  0.00    -0.266 NA
HETATM   16  C   UNL     1      19.411  49.883  50.063  1.00  0.00     0.117 A 
HETATM   17  C   UNL     1      19.275  51.213  49.702  1.00  0.00     0.019 A 
HETATM   18  C   UNL     1      20.182  51.742  48.792  1.00  0.00     0.003 A 
HETATM   19  C   UNL     1      21.188  50.930  48.282  1.00  0.00     0.027 A 
ENDBRANCH  13  14
ENDBRANCH  12  13
ENDBRANCH   9  12
ENDBRANCH   1   8
BRANCH   4  20
HETATM   20  C   UNL     1      26.733  44.879  53.544  1.00  0.00     0.257 C 
HETATM   21  N   UNL     1      27.997  45.392  53.694  1.00  0.00    -0.352 N 
HETATM   22  H   UNL     1      28.326  46.064  53.000  1.00  0.00     0.163 HD
HETATM   23  O   UNL     1      26.174  44.188  54.391  1.00  0.00    -0.267 OA
BRANCH  21  24
HETATM   24  C   UNL     1      28.870  45.125  54.839  1.00  0.00     0.084 C 
HETATM   25  C   UNL     1      28.140  45.627  56.093  1.00  0.00     0.025 C 
HETATM   26  C   UNL     1      28.870  45.567  57.433  1.00  0.00     0.002 C 
HETATM   27  C   UNL     1      30.332  46.010  57.404  1.00  0.00     0.000 C 
HETATM   28  C   UNL     1      31.340  44.860  57.419  1.00  0.00     0.000 C 
HETATM   29  C   UNL     1      31.411  43.995  56.159  1.00  0.00     0.000 C 
HETATM   30  C   UNL     1      30.178  43.125  55.917  1.00  0.00     0.002 C 
HETATM   31  C   UNL     1      29.223  43.634  54.836  1.00  0.00     0.025 C 
ENDBRANCH  21  24
ENDBRANCH   4  20
BRANCH   6  32
HETATM   32  C   UNL     1      24.686  43.082  49.411  1.00  0.00     0.159 C 
BRANCH  32  33
HETATM   33  C   UNL     1      25.667  41.929  49.149  1.00  0.00     0.139 C 
HETATM   34  O   UNL     1      26.997  42.398  48.852  1.00  0.00    -0.384 OA
HETATM   35  C   UNL     1      27.899  41.366  49.258  1.00  0.00     0.168 C 
HETATM   36  C   UNL     1      27.285  40.784  50.508  1.00  0.00     0.029 C 
HETATM   37  C   UNL     1      25.797  40.884  50.254  1.00  0.00     0.035 C 
ENDBRANCH  32  33
ENDBRANCH   6  32
TORSDOF 8
ENDMDL
MODEL 4
REMARK VINA RESULT:      -9.4      2.299      8.253
REMARK  8 active torsions:
REMARK  status: ('A' for Active; 'I' for Inactive)
REMARK       I    between atoms: N_2  and  C_3 
REMARK    1  A    between atoms: N_2  and  C_29 
REMARK    2  A    between atoms: C_3  and  C_4 
REMARK    3  A    between atoms: C_7  and  C_8 
REMARK       I    between atoms: C_8  and  N_9 
REMARK    4  A    between atoms: N_9  and  C_10 
REMARK    5  A    between atoms: N_20  and  C_21 
REMARK    6  A    between atoms: C_21  and  C_22 
REMARK    7  A    between atoms: C_29  and  C_30 
REMARK    8  A    between atoms: C_30  and  C_31 
ROOT
HETATM    1  C   UNL     1      25.828  46.507  52.709  1.00  0.00     0.098 C 
HETATM    2  C   UNL     1      25.330  45.145  52.405  1.00  0.00     0.206 C 
HETATM    3  O   UNL     1      24.796  44.442  53.262  1.00  0.00    -0.286 OA
HETATM    4  C   UNL     1      25.522  44.632  51.017  1.00  0.00     0.098 C 
HETATM    5  C   UNL     1      25.844  45.538  50.075  1.00  0.00     0.111 C 
HETATM    6  N   UNL     1      26.080  46.886  50.327  1.00  0.00    -0.362 N 
HETATM    7  C   UNL     1      26.116  47.292  51.657  1.00  0.00     0.111 C 
ENDROOT
BRANCH   1   8
HETATM    8  C   UNL     1      25.994  47.104  54.054  1.00  0.00     0.258 C 
HETATM    9  N   UNL     1      26.929  46.569  54.939  1.00  0.00    -0.352 N 
HETATM   10  C   UNL     1      27.156  47.305  56.176  1.00  0.00     0.152 C 
HETATM   11  O   UNL     1      25.388  48.151  54.300  1.00  0.00    -0.267 OA
BRANCH   9  12
HETATM   12  C   UNL     1      27.477  45.200  54.926  1.00  0.00     0.131 C 
BRANCH  12  13
HETATM   13  C   UNL     1      28.928  45.051  54.470  1.00  0.00     0.079 C 
BRANCH  13  14
HETATM   14  C   UNL     1      29.853  44.665  55.591  1.00  0.00     0.035 A 
HETATM   15  N   UNL     1      29.909  45.505  56.653  1.00  0.00    -0.266 NA
HETATM   16  C   UNL     1      30.709  45.151  57.680  1.00  0.00     0.117 A 
HETATM   17  C   UNL     1      31.467  43.992  57.702  1.00  0.00     0.019 A 
HETATM   18  C   UNL     1      31.407  43.148  56.599  1.00  0.00     0.003 A 
HETATM   19  C   UNL     1      30.593  43.488  55.525  1.00  0.00     0.027 A 
ENDBRANCH  13  14
ENDBRANCH  12  13
ENDBRANCH   9  12
ENDBRANCH   1   8
BRANCH   4  20
HETATM   20  C   UNL     1      25.457  43.191  50.647  1.00  0.00     0.257 C 
HETATM   21  N   UNL     1      26.636  42.675  50.169  1.00  0.00    -0.352 N 
HETATM   22  H   UNL     1      27.484  43.231  50.288  1.00  0.00     0.163 HD
HETATM   23  O   UNL     1      24.409  42.554  50.701  1.00  0.00    -0.267 OA
BRANCH  21  24
HETATM   24  C   UNL     1      26.784  41.337  49.595  1.00  0.00     0.084 C 
HETATM   25  C   UNL     1      26.927  41.508  48.075  1.00  0.00     0.025 C 
HETATM   26  C   UNL     1      26.995  40.256  47.204  1.00  0.00     0.002 C 
HETATM   27  C   UNL     1      26.002  39.152  47.565  1.00  0.00     0.000 C 
HETATM   28  C   UNL     1      26.613  37.985  48.344  1.00  0.00     0.000 C 
HETATM   29  C   UNL     1      27.056  38.276  49.779  1.00  0.00     0.000 C 
HETATM   30  C   UNL     1      28.269  39.198  49.893  1.00  0.00     0.002 C 
HETATM   31  C   UNL     1      27.957  40.641  50.292  1.00  0.00     0.025 C 
ENDBRANCH  21  24
ENDBRANCH   4  20
BRANCH   6  32
HETATM   32  C   UNL     1      26.261  47.864  49.228  1.00  0.00     0.159 C 
BRANCH  32  33
HETATM   33  C   UNL     1      25.213  48.988  49.192  1.00  0.00     0.139 C 
HETATM   34  O   UNL     1      25.352  49.828  48.029  1.00  0.00    -0.384 OA
HETATM   35  C   UNL     1      24.056  50.363  47.751  1.00  0.00     0.168 C 
HETATM   36  C   UNL     1      23.095  49.248  48.087  1.00  0.00     0.029 C 
HETATM   37  C   UNL     1      23.751  48.555  49.261  1.00  0.00     0.035 C 
ENDBRANCH  32  33
ENDBRANCH   6  32
TORSDOF 8
ENDMDL
MODEL 5
REMARK VINA RESULT:      -9.3      3.769      9.432
REMARK  8 active torsions:
REMARK  status: ('A' for Active; 'I' for Inactive)
REMARK       I    between atoms: N_2  and  C_3 
REMARK    1  A    between atoms: N_2  and  C_29 
REMARK    2  A    between atoms: C_3  and  C_4 
REMARK    3  A    between atoms: C_7  and  C_8 
REMARK       I    between atoms: C_8  and  N_9 
REMARK    4  A    between atoms: N_9  and  C_10 
REMARK    5  A    between atoms: N_20  and  C_21 
REMARK    6  A    between atoms: C_21  and  C_22 
REMARK    7  A    between atoms: C_29  and  C_30 
REMARK    8  A    between atoms: C_30  and  C_31 
ROOT
HETATM    1  C   UNL     1      24.046  44.938  48.937  1.00  0.00     0.098 C 
HETATM    2  C   UNL     1      22.926  45.891  48.754  1.00  0.00     0.206 C 
HETATM    3  O   UNL     1      21.850  45.543  48.269  1.00  0.00    -0.286 OA
HETATM    4  C   UNL     1      23.153  47.311  49.153  1.00  0.00     0.098 C 
HETATM    5  C   UNL     1      24.225  47.558  49.927  1.00  0.00     0.111 C 
HETATM    6  N   UNL     1      25.162  46.601  50.306  1.00  0.00    -0.362 N 
HETATM    7  C   UNL     1      25.051  45.336  49.735  1.00  0.00     0.111 C 
ENDROOT
BRANCH   1   8
HETATM    8  C   UNL     1      24.144  43.574  48.369  1.00  0.00     0.258 C 
HETATM    9  N   UNL     1      24.391  42.490  49.211  1.00  0.00    -0.352 N 
HETATM   10  C   UNL     1      24.310  41.164  48.611  1.00  0.00     0.152 C 
HETATM   11  O   UNL     1      23.867  43.424  47.176  1.00  0.00    -0.267 OA
BRANCH   9  12
HETATM   12  C   UNL     1      25.028  42.528  50.539  1.00  0.00     0.131 C 
BRANCH  12  13
HETATM   13  C   UNL     1      26.051  41.432  50.837  1.00  0.00     0.079 C 
BRANCH  13  14
HETATM   14  C   UNL     1      27.255  41.946  51.577  1.00  0.00     0.035 A 
HETATM   15  N   UNL     1      28.012  41.025  52.222  1.00  0.00    -0.266 NA
HETATM   16  C   UNL     1      29.115  41.471  52.861  1.00  0.00     0.117 A 
HETATM   17  C   UNL     1      29.502  42.800  52.893  1.00  0.00     0.019 A 
HETATM   18  C   UNL     1      28.707  43.731  52.236  1.00  0.00     0.003 A 
HETATM   19  C   UNL     1      27.564  43.302  51.571  1.00  0.00     0.027 A 
ENDBRANCH  13  14
ENDBRANCH  12  13
ENDBRANCH   9  12
ENDBRANCH   1   8
BRANCH   4  20
HETATM   20  C   UNL     1      22.317  48.450  48.683  1.00  0.00     0.257 C 
HETATM   21  N   UNL     1      21.163  48.640  49.402  1.00  0.00    -0.352 N 
HETATM   22  H   UNL     1      21.065  48.144  50.288  1.00  0.00     0.163 HD
HETATM   23  O   UNL     1      22.615  49.105  47.688  1.00  0.00    -0.267 OA
BRANCH  21  24
HETATM   24  C   UNL     1      20.107  49.587  49.039  1.00  0.00     0.084 C 
HETATM   25  C   UNL     1      18.804  48.784  48.908  1.00  0.00     0.025 C 
HETATM   26  C   UNL     1      17.546  49.509  48.435  1.00  0.00     0.002 C 
HETATM   27  C   UNL     1      17.746  50.472  47.265  1.00  0.00     0.000 C 
HETATM   28  C   UNL     1      17.792  51.948  47.664  1.00  0.00     0.000 C 
HETATM   29  C   UNL     1      19.016  52.406  48.459  1.00  0.00     0.000 C 
HETATM   30  C   UNL     1      19.092  51.852  49.881  1.00  0.00     0.002 C 
HETATM   31  C   UNL     1      20.087  50.708  50.083  1.00  0.00     0.025 C 
ENDBRANCH  21  24
ENDBRANCH   4  20
BRANCH   6  32
HETATM   32  C   UNL     1      26.223  46.898  51.296  1.00  0.00     0.159 C 
BRANCH  32  33
HETATM   33  C   UNL     1      25.799  46.719  52.763  1.00  0.00     0.139 C 
HETATM   34  O   UNL     1      25.302  45.393  53.031  1.00  0.00    -0.384 OA
HETATM   35  C   UNL     1      25.552  45.133  54.415  1.00  0.00     0.168 C 
HETATM   36  C   UNL     1      26.876  45.797  54.703  1.00  0.00     0.029 C 
HETATM   37  C   UNL     1      26.858  47.024  53.818  1.00  0.00     0.035 C 
ENDBRANCH  32  33
ENDBRANCH   6  32
TORSDOF 8
ENDMDL
MODEL 6
REMARK VINA RESULT:      -9.2      4.605      7.902
REMARK  8 active torsions:
REMARK  status: ('A' for Active; 'I' for Inactive)
REMARK       I    between atoms: N_2  and  C_3 
REMARK    1  A    between atoms: N_2  and  C_29 
REMARK    2  A    between atoms: C_3  and  C_4 
REMARK    3  A    between atoms: C_7  and  C_8 
REMARK       I    between atoms: C_8  and  N_9 
REMARK    4  A    between atoms: N_9  and  C_10 
REMARK    5  A    between atoms: N_20  and  C_21 
REMARK    6  A    between atoms: C_21  and  C_22 
REMARK    7  A    between atoms: C_29  and  C_30 
REMARK    8  A    between atoms: C_30  and  C_31 
ROOT
HETATM    1  C   UNL     1      22.180  46.620  48.538  1.00  0.00     0.098 C 
HETATM    2  C   UNL     1      23.481  46.255  49.146  1.00  0.00     0.206 C 
HETATM    3  O   UNL     1      23.818  45.082  49.305  1.00  0.00    -0.286 OA
HETATM    4  C   UNL     1      24.372  47.366  49.593  1.00  0.00     0.098 C 
HETATM    5  C   UNL     1      24.080  48.597  49.137  1.00  0.00     0.111 C 
HETATM    6  N   UNL     1      22.972  48.905  48.352  1.00  0.00    -0.362 N 
HETATM    7  C   UNL     1      22.038  47.895  48.139  1.00  0.00     0.111 C 
ENDROOT
BRANCH   1   8
HETATM    8  C   UNL     1      21.042  45.708  48.280  1.00  0.00     0.258 C 
HETATM    9  N   UNL     1      19.736  46.190  48.367  1.00  0.00    -0.352 N 
HETATM   10  C   UNL     1      18.675  45.287  47.941  1.00  0.00     0.152 C 
HETATM   11  O   UNL     1      21.292  44.575  47.860  1.00  0.00    -0.267 OA
BRANCH   9  12
HETATM   12  C   UNL     1      19.276  47.367  49.127  1.00  0.00     0.131 C 
BRANCH  12  13
HETATM   13  C   UNL     1      17.782  47.682  49.057  1.00  0.00     0.079 C 
BRANCH  13  14
HETATM   14  C   UNL     1      17.471  48.815  48.118  1.00  0.00     0.035 A 
HETATM   15  N   UNL     1      18.209  48.887  46.984  1.00  0.00    -0.266 NA
HETATM   16  C   UNL     1      17.915  49.880  46.117  1.00  0.00     0.117 A 
HETATM   17  C   UNL     1      16.916  50.815  46.328  1.00  0.00     0.019 A 
HETATM   18  C   UNL     1      16.178  50.733  47.502  1.00  0.00     0.003 A 
HETATM   19  C   UNL     1      16.459  49.723  48.415  1.00  0.00     0.027 A 
ENDBRANCH  13  14
ENDBRANCH  12  13
ENDBRANCH   9  12
ENDBRANCH   1   8
BRANCH   4  20
HETATM   20  C   UNL     1      25.492  47.195  50.559  1.00  0.00     0.257 C 
HETATM   21  N   UNL     1      25.163  46.488  51.688  1.00  0.00    -0.352 N 
HETATM   22  H   UNL     1      24.278  45.980  51.693  1.00  0.00     0.163 HD
HETATM   23  O   UNL     1      26.590  47.715  50.378  1.00  0.00    -0.267 OA
BRANCH  21  24
HETATM   24  C   UNL     1      26.040  46.325  52.850  1.00  0.00     0.084 C 
HETATM   25  C   UNL     1      25.733  47.478  53.816  1.00  0.00     0.025 C 
HETATM   26  C   UNL     1      26.581  47.616  55.078  1.00  0.00     0.002 C 
HETATM   27  C   UNL     1      28.083  47.415  54.884  1.00  0.00     0.000 C 
HETATM   28  C   UNL     1      28.600  46.049  55.339  1.00  0.00     0.000 C 
HETATM   29  C   UNL     1      28.169  44.841  54.505  1.00  0.00     0.000 C 
HETATM   30  C   UNL     1      26.684  44.494  54.612  1.00  0.00     0.002 C 
HETATM   31  C   UNL     1      25.828  44.917  53.418  1.00  0.00     0.025 C 
ENDBRANCH  21  24
ENDBRANCH   4  20
BRANCH   6  32
HETATM   32  C   UNL     1      22.798  50.243  47.740  1.00  0.00     0.159 C 
BRANCH  32  33
HETATM   33  C   UNL     1      21.881  51.193  48.528  1.00  0.00     0.139 C 
HETATM   34  O   UNL     1      20.562  51.283  47.952  1.00  0.00    -0.384 OA
HETATM   35  C   UNL     1      19.669  51.609  49.020  1.00  0.00     0.168 C 
HETATM   36  C   UNL     1      20.204  50.862  50.217  1.00  0.00     0.029 C 
HETATM   37  C   UNL     1      21.703  50.889  50.013  1.00  0.00     0.035 C 
ENDBRANCH  32  33
ENDBRANCH   6  32
TORSDOF 8
ENDMDL
MODEL 7
REMARK VINA RESULT:      -9.1      2.186      7.611
REMARK  8 active torsions:
REMARK  status: ('A' for Active; 'I' for Inactive)
REMARK       I    between atoms: N_2  and  C_3 
REMARK    1  A    between atoms: N_2  and  C_29 
REMARK    2  A    between atoms: C_3  and  C_4 
REMARK    3  A    between atoms: C_7  and  C_8 
REMARK       I    between atoms: C_8  and  N_9 
REMARK    4  A    between atoms: N_9  and  C_10 
REMARK    5  A    between atoms: N_20  and  C_21 
REMARK    6  A    between atoms: C_21  and  C_22 
REMARK    7  A    between atoms: C_29  and  C_30 
REMARK    8  A    between atoms: C_30  and  C_31 
ROOT
HETATM    1  C   UNL     1      26.383  45.358  51.173  1.00  0.00     0.098 C 
HETATM    2  C   UNL     1      26.791  44.146  50.425  1.00  0.00     0.206 C 
HETATM    3  O   UNL     1      26.868  44.136  49.197  1.00  0.00    -0.286 OA
HETATM    4  C   UNL     1      27.082  42.911  51.212  1.00  0.00     0.098 C 
HETATM    5  C   UNL     1      27.256  43.065  52.537  1.00  0.00     0.111 C 
HETATM    6  N   UNL     1      27.107  44.270  53.217  1.00  0.00    -0.362 N 
HETATM    7  C   UNL     1      26.615  45.355  52.497  1.00  0.00     0.111 C 
ENDROOT
BRANCH   1   8
HETATM    8  C   UNL     1      25.790  46.588  50.601  1.00  0.00     0.258 C 
HETATM    9  N   UNL     1      24.447  46.601  50.228  1.00  0.00    -0.352 N 
HETATM   10  C   UNL     1      23.890  47.888  49.829  1.00  0.00     0.152 C 
HETATM   11  O   UNL     1      26.477  47.614  50.600  1.00  0.00    -0.267 OA
BRANCH   9  12
HETATM   12  C   UNL     1      23.613  45.435  49.883  1.00  0.00     0.131 C 
BRANCH  12  13
HETATM   13  C   UNL     1      23.412  45.157  48.393  1.00  0.00     0.079 C 
BRANCH  13  14
HETATM   14  C   UNL     1      23.572  43.702  48.047  1.00  0.00     0.035 A 
HETATM   15  N   UNL     1      23.571  43.386  46.729  1.00  0.00    -0.266 NA
HETATM   16  C   UNL     1      23.749  42.087  46.406  1.00  0.00     0.117 A 
HETATM   17  C   UNL     1      23.925  41.079  47.338  1.00  0.00     0.019 A 
HETATM   18  C   UNL     1      23.911  41.420  48.684  1.00  0.00     0.003 A 
HETATM   19  C   UNL     1      23.728  42.749  49.049  1.00  0.00     0.027 A 
ENDBRANCH  13  14
ENDBRANCH  12  13
ENDBRANCH   9  12
ENDBRANCH   1   8
BRANCH   4  20
HETATM   20  C   UNL     1      27.108  41.541  50.629  1.00  0.00     0.257 C 
HETATM   21  N   UNL     1      27.704  41.463  49.395  1.00  0.00    -0.352 N 
HETATM   22  H   UNL     1      28.240  42.268  49.071  1.00  0.00     0.163 HD
HETATM   23  O   UNL     1      26.572  40.589  51.188  1.00  0.00    -0.267 OA
BRANCH  21  24
HETATM   24  C   UNL     1      27.711  40.265  48.553  1.00  0.00     0.084 C 
HETATM   25  C   UNL     1      27.708  40.738  47.092  1.00  0.00     0.025 C 
HETATM   26  C   UNL     1      27.611  39.688  45.987  1.00  0.00     0.002 C 
HETATM   27  C   UNL     1      26.596  38.571  46.231  1.00  0.00     0.000 C 
HETATM   28  C   UNL     1      27.213  37.248  46.688  1.00  0.00     0.000 C 
HETATM   29  C   UNL     1      27.818  37.223  48.093  1.00  0.00     0.000 C 
HETATM   30  C   UNL     1      29.090  38.056  48.250  1.00  0.00     0.002 C 
HETATM   31  C   UNL     1      28.907  39.398  48.961  1.00  0.00     0.025 C 
ENDBRANCH  21  24
ENDBRANCH   4  20
BRANCH   6  32
HETATM   32  C   UNL     1      27.479  44.411  54.645  1.00  0.00     0.159 C 
BRANCH  32  33
HETATM   33  C   UNL     1      28.928  44.861  54.888  1.00  0.00     0.139 C 
HETATM   34  O   UNL     1      29.077  45.580  56.128  1.00  0.00    -0.384 OA
HETATM   35  C   UNL     1      30.425  45.381  56.560  1.00  0.00     0.168 C 
HETATM   36  C   UNL     1      30.754  43.962  56.166  1.00  0.00     0.029 C 
HETATM   37  C   UNL     1      29.990  43.766  54.875  1.00  0.00     0.035 C 
ENDBRANCH  32  33
ENDBRANCH   6  32
TORSDOF 8
ENDMDL
MODEL 8
REMARK VINA RESULT:      -9.1      2.341      3.758
REMARK  8 active torsions:
REMARK  status: ('A' for Active; 'I' for Inactive)
REMARK       I    between atoms: N_2  and  C_3 
REMARK    1  A    between atoms: N_2  and  C_29 
REMARK    2  A    between atoms: C_3  and  C_4 
REMARK    3  A    between atoms: C_7  and  C_8 
REMARK       I    between atoms: C_8  and  N_9 
REMARK    4  A    between atoms: N_9  and  C_10 
REMARK    5  A    between atoms: N_20  and  C_21 
REMARK    6  A    between atoms: C_21  and  C_22 
REMARK    7  A    between atoms: C_29  and  C_30 
REMARK    8  A    between atoms: C_30  and  C_31 
ROOT
HETATM    1  C   UNL     1      22.421  44.336  48.629  1.00  0.00     0.098 C 
HETATM    2  C   UNL     1      23.477  44.133  49.648  1.00  0.00     0.206 C 
HETATM    3  O   UNL     1      23.369  44.572  50.792  1.00  0.00    -0.286 OA
HETATM    4  C   UNL     1      24.706  43.395  49.233  1.00  0.00     0.098 C 
HETATM    5  C   UNL     1      24.638  42.706  48.079  1.00  0.00     0.111 C 
HETATM    6  N   UNL     1      23.539  42.703  47.226  1.00  0.00    -0.362 N 
HETATM    7  C   UNL     1      22.496  43.576  47.523  1.00  0.00     0.111 C 
ENDROOT
BRANCH   1   8
HETATM    8  C   UNL     1      21.265  45.257  48.729  1.00  0.00     0.258 C 
HETATM    9  N   UNL     1      21.382  46.568  48.271  1.00  0.00    -0.352 N 
HETATM   10  C   UNL     1      20.163  47.366  48.248  1.00  0.00     0.152 C 
HETATM   11  O   UNL     1      20.183  44.788  49.095  1.00  0.00    -0.267 OA
BRANCH   9  12
HETATM   12  C   UNL     1      22.628  47.341  48.111  1.00  0.00     0.131 C 
BRANCH  12  13
HETATM   13  C   UNL     1      23.223  47.947  49.381  1.00  0.00     0.079 C 
BRANCH  13  14
HETATM   14  C   UNL     1      24.648  48.392  49.201  1.00  0.00     0.035 A 
HETATM   15  N   UNL     1      24.853  49.472  48.408  1.00  0.00    -0.266 NA
HETATM   16  C   UNL     1      26.125  49.902  48.266  1.00  0.00     0.117 A 
HETATM   17  C   UNL     1      27.213  49.302  48.877  1.00  0.00     0.019 A 
HETATM   18  C   UNL     1      26.985  48.188  49.677  1.00  0.00     0.003 A 
HETATM   19  C   UNL     1      25.686  47.721  49.840  1.00  0.00     0.027 A 
ENDBRANCH  13  14
ENDBRANCH  12  13
ENDBRANCH   9  12
ENDBRANCH   1   8
BRANCH   4  20
HETATM   20  C   UNL     1      25.997  43.448  49.973  1.00  0.00     0.257 C 
HETATM   21  N   UNL     1      25.952  42.896  51.229  1.00  0.00    -0.352 N 
HETATM   22  H   UNL     1      25.136  42.335  51.476  1.00  0.00     0.163 HD
HETATM   23  O   UNL     1      26.987  44.008  49.512  1.00  0.00    -0.267 OA
BRANCH  21  24
HETATM   24  C   UNL     1      27.040  42.968  52.207  1.00  0.00     0.084 C 
HETATM   25  C   UNL     1      26.463  43.601  53.481  1.00  0.00     0.025 C 
HETATM   26  C   UNL     1      27.412  43.894  54.642  1.00  0.00     0.002 C 
HETATM   27  C   UNL     1      28.754  44.511  54.252  1.00  0.00     0.000 C 
HETATM   28  C   UNL     1      29.925  43.526  54.254  1.00  0.00     0.000 C 
HETATM   29  C   UNL     1      29.920  42.453  53.164  1.00  0.00     0.000 C 
HETATM   30  C   UNL     1      28.823  41.400  53.316  1.00  0.00     0.002 C 
HETATM   31  C   UNL     1      27.627  41.563  52.377  1.00  0.00     0.025 C 
ENDBRANCH  21  24
ENDBRANCH   4  20
BRANCH   6  32
HETATM   32  C   UNL     1      23.459  41.792  46.060  1.00  0.00     0.159 C 
BRANCH  32  33
HETATM   33  C   UNL     1      24.811  41.235  45.588  1.00  0.00     0.139 C 
HETATM   34  O   UNL     1      24.992  39.853  45.955  1.00  0.00    -0.384 OA
HETATM   35  C   UNL     1      25.875  39.283  44.986  1.00  0.00     0.168 C 
HETATM   36  C   UNL     1      25.502  39.945  43.682  1.00  0.00     0.029 C 
HETATM   37  C   UNL     1      25.107  41.346  44.095  1.00  0.00     0.035 C 
ENDBRANCH  32  33
ENDBRANCH   6  32
TORSDOF 8
ENDMDL
MODEL 9
REMARK VINA RESULT:      -9.1      4.305      7.975
REMARK  8 active torsions:
REMARK  status: ('A' for Active; 'I' for Inactive)
REMARK       I    between atoms: N_2  and  C_3 
REMARK    1  A    between atoms: N_2  and  C_29 
REMARK    2  A    between atoms: C_3  and  C_4 
REMARK    3  A    between atoms: C_7  and  C_8 
REMARK       I    between atoms: C_8  and  N_9 
REMARK    4  A    between atoms: N_9  and  C_10 
REMARK    5  A    between atoms: N_20  and  C_21 
REMARK    6  A    between atoms: C_21  and  C_22 
REMARK    7  A    between atoms: C_29  and  C_30 
REMARK    8  A    between atoms: C_30  and  C_31 
ROOT
HETATM    1  C   UNL     1      22.170  46.337  48.546  1.00  0.00     0.098 C 
HETATM    2  C   UNL     1      23.531  46.170  49.109  1.00  0.00     0.206 C 
HETATM    3  O   UNL     1      24.118  45.089  49.077  1.00  0.00    -0.286 OA
HETATM    4  C   UNL     1      24.166  47.358  49.750  1.00  0.00     0.098 C 
HETATM    5  C   UNL     1      23.603  48.555  49.500  1.00  0.00     0.111 C 
HETATM    6  N   UNL     1      22.440  48.739  48.758  1.00  0.00    -0.362 N 
HETATM    7  C   UNL     1      21.745  47.599  48.363  1.00  0.00     0.111 C 
ENDROOT
BRANCH   1   8
HETATM    8  C   UNL     1      21.253  45.255  48.121  1.00  0.00     0.258 C 
HETATM    9  N   UNL     1      21.173  44.906  46.773  1.00  0.00    -0.352 N 
HETATM   10  C   UNL     1      20.379  43.727  46.449  1.00  0.00     0.152 C 
HETATM   11  O   UNL     1      20.685  44.600  49.000  1.00  0.00    -0.267 OA
BRANCH   9  12
HETATM   12  C   UNL     1      21.523  45.752  45.617  1.00  0.00     0.131 C 
BRANCH  12  13
HETATM   13  C   UNL     1      20.420  45.984  44.585  1.00  0.00     0.079 C 
BRANCH  13  14
HETATM   14  C   UNL     1      19.176  46.578  45.186  1.00  0.00     0.035 A 
HETATM   15  N   UNL     1      18.021  45.896  44.994  1.00  0.00    -0.266 NA
HETATM   16  C   UNL     1      16.904  46.402  45.560  1.00  0.00     0.117 A 
HETATM   17  C   UNL     1      16.880  47.565  46.310  1.00  0.00     0.019 A 
HETATM   18  C   UNL     1      18.071  48.258  46.485  1.00  0.00     0.003 A 
HETATM   19  C   UNL     1      19.238  47.763  45.913  1.00  0.00     0.027 A 
ENDBRANCH  13  14
ENDBRANCH  12  13
ENDBRANCH   9  12
ENDBRANCH   1   8
BRANCH   4  20
HETATM   20  C   UNL     1      25.315  47.279  50.694  1.00  0.00     0.257 C 
HETATM   21  N   UNL     1      25.132  46.403  51.735  1.00  0.00    -0.352 N 
HETATM   22  H   UNL     1      24.349  45.751  51.679  1.00  0.00     0.163 HD
HETATM   23  O   UNL     1      26.302  47.998  50.576  1.00  0.00    -0.267 OA
BRANCH  21  24
HETATM   24  C   UNL     1      26.043  46.266  52.873  1.00  0.00     0.084 C 
HETATM   25  C   UNL     1      25.743  47.424  53.837  1.00  0.00     0.025 C 
HETATM   26  C   UNL     1      26.622  47.588  55.074  1.00  0.00     0.002 C 
HETATM   27  C   UNL     1      28.122  47.411  54.840  1.00  0.00     0.000 C 
HETATM   28  C   UNL     1      28.675  46.059  55.293  1.00  0.00     0.000 C 
HETATM   29  C   UNL     1      28.243  44.835  54.483  1.00  0.00     0.000 C 
HETATM   30  C   UNL     1      26.767  44.464  54.634  1.00  0.00     0.002 C 
HETATM   31  C   UNL     1      25.872  44.861  53.460  1.00  0.00     0.025 C 
ENDBRANCH  21  24
ENDBRANCH   4  20
BRANCH   6  32
HETATM   32  C   UNL     1      21.966  50.089  48.374  1.00  0.00     0.159 C 
BRANCH  32  33
HETATM   33  C   UNL     1      20.487  50.362  48.688  1.00  0.00     0.139 C 
HETATM   34  O   UNL     1      20.301  50.927  50.001  1.00  0.00    -0.384 OA
HETATM   35  C   UNL     1      19.102  51.705  49.948  1.00  0.00     0.168 C 
HETATM   36  C   UNL     1      19.098  52.320  48.570  1.00  0.00     0.029 C 
HETATM   37  C   UNL     1      19.738  51.258  47.704  1.00  0.00     0.035 C 
ENDBRANCH  32  33
ENDBRANCH   6  32
TORSDOF 8
ENDMDL
MODEL 10
REMARK VINA RESULT:      -8.7      2.744      8.395
REMARK  8 active torsions:
REMARK  status: ('A' for Active; 'I' for Inactive)
REMARK       I    between atoms: N_2  and  C_3 
REMARK    1  A    between atoms: N_2  and  C_29 
REMARK    2  A    between atoms: C_3  and  C_4 
REMARK    3  A    between atoms: C_7  and  C_8 
REMARK       I    between atoms: C_8  and  N_9 
REMARK    4  A    between atoms: N_9  and  C_10 
REMARK    5  A    between atoms: N_20  and  C_21 
REMARK    6  A    between atoms: C_21  and  C_22 
REMARK    7  A    between atoms: C_29  and  C_30 
REMARK    8  A    between atoms: C_30  and  C_31 
ROOT
HETATM    1  C   UNL     1      25.646  45.080  52.383  1.00  0.00     0.098 C 
HETATM    2  C   UNL     1      25.366  46.407  51.787  1.00  0.00     0.206 C 
HETATM    3  O   UNL     1      25.309  47.428  52.472  1.00  0.00    -0.286 OA
HETATM    4  C   UNL     1      25.125  46.468  50.315  1.00  0.00     0.098 C 
HETATM    5  C   UNL     1      25.480  45.386  49.598  1.00  0.00     0.111 C 
HETATM    6  N   UNL     1      25.977  44.207  50.144  1.00  0.00    -0.362 N 
HETATM    7  C   UNL     1      25.980  44.095  51.532  1.00  0.00     0.111 C 
ENDROOT
BRANCH   1   8
HETATM    8  C   UNL     1      25.642  44.744  53.825  1.00  0.00     0.258 C 
HETATM    9  N   UNL     1      26.702  45.150  54.634  1.00  0.00    -0.352 N 
HETATM   10  C   UNL     1      26.554  44.932  56.067  1.00  0.00     0.152 C 
HETATM   11  O   UNL     1      24.624  44.227  54.295  1.00  0.00    -0.267 OA
BRANCH   9  12
HETATM   12  C   UNL     1      28.072  45.478  54.198  1.00  0.00     0.131 C 
BRANCH  12  13
HETATM   13  C   UNL     1      28.960  46.192  55.218  1.00  0.00     0.079 C 
BRANCH  13  14
HETATM   14  C   UNL     1      29.874  45.251  55.952  1.00  0.00     0.035 A 
HETATM   15  N   UNL     1      30.237  45.609  57.208  1.00  0.00    -0.266 NA
HETATM   16  C   UNL     1      31.029  44.754  57.889  1.00  0.00     0.117 A 
HETATM   17  C   UNL     1      31.486  43.552  57.376  1.00  0.00     0.019 A 
HETATM   18  C   UNL     1      31.114  43.208  56.082  1.00  0.00     0.003 A 
HETATM   19  C   UNL     1      30.300  44.068  55.355  1.00  0.00     0.027 A 
ENDBRANCH  13  14
ENDBRANCH  12  13
ENDBRANCH   9  12
ENDBRANCH   1   8
BRANCH   4  20
HETATM   20  C   UNL     1      24.452  47.606  49.630  1.00  0.00     0.257 C 
HETATM   21  N   UNL     1      23.112  47.720  49.904  1.00  0.00    -0.352 N 
HETATM   22  H   UNL     1      22.734  47.171  50.677  1.00  0.00     0.163 HD
HETATM   23  O   UNL     1      25.047  48.325  48.832  1.00  0.00    -0.267 OA
BRANCH  21  24
HETATM   24  C   UNL     1      22.204  48.653  49.233  1.00  0.00     0.084 C 
HETATM   25  C   UNL     1      22.948  49.989  49.095  1.00  0.00     0.025 C 
HETATM   26  C   UNL     1      22.195  51.185  48.516  1.00  0.00     0.002 C 
HETATM   27  C   UNL     1      20.769  51.373  49.032  1.00  0.00     0.000 C 
HETATM   28  C   UNL     1      19.682  50.909  48.062  1.00  0.00     0.000 C 
HETATM   29  C   UNL     1      19.568  49.401  47.830  1.00  0.00     0.000 C 
HETATM   30  C   UNL     1      20.740  48.788  47.063  1.00  0.00     0.002 C 
HETATM   31  C   UNL     1      21.746  48.015  47.918  1.00  0.00     0.025 C 
ENDBRANCH  21  24
ENDBRANCH   4  20
BRANCH   6  32
HETATM   32  C   UNL     1      26.511  43.117  49.293  1.00  0.00     0.159 C 
BRANCH  32  33
HETATM   33  C   UNL     1      26.566  41.741  49.974  1.00  0.00     0.139 C 
HETATM   34  O   UNL     1      25.946  40.711  49.178  1.00  0.00    -0.384 OA
HETATM   35  C   UNL     1      26.583  39.480  49.530  1.00  0.00     0.168 C 
HETATM   36  C   UNL     1      28.028  39.844  49.770  1.00  0.00     0.029 C 
HETATM   37  C   UNL     1      27.950  41.232  50.367  1.00  0.00     0.035 C 
ENDBRANCH  32  33
ENDBRANCH   6  32
TORSDOF 8
ENDMDL
