MODEL 1
REMARK VINA RESULT:      -8.8      0.000      0.000
REMARK  8 active torsions:
REMARK  status: ('A' for Active; 'I' for Inactive)
REMARK    1  A    between atoms: C_7  and  C_8 
REMARK       I    between atoms: C_8  and  N_9 
REMARK    2  A    between atoms: N_9  and  C_10 
REMARK    3  A    between atoms: C_11  and  C_12 
REMARK       I    between atoms: C_12  and  N_13 
REMARK    4  A    between atoms: N_13  and  C_14 
REMARK    5  A    between atoms: C_14  and  C_15 
REMARK    6  A    between atoms: C_15  and  C_16 
REMARK    7  A    between atoms: C_18  and  O_19 
REMARK    8  A    between atoms: C_21  and  O_22 
ROOT
HETATM    1  C   UNL     1      29.449  44.921  55.451  1.00  0.00     0.050 A 
HETATM    2  C   UNL     1      30.159  43.717  55.237  1.00  0.00     0.058 A 
HETATM    3  C   UNL     1      31.113  43.273  56.173  1.00  0.00     0.019 A 
HETATM    4  C   UNL     1      31.347  44.001  57.336  1.00  0.00     0.001 A 
HETATM    5  C   UNL     1      30.639  45.174  57.566  1.00  0.00     0.002 A 
HETATM    6  C   UNL     1      29.702  45.631  56.631  1.00  0.00     0.030 A 
ENDROOT
BRANCH   2   7
HETATM    7  C   UNL     1      29.921  42.895  54.019  1.00  0.00     0.253 C 
HETATM    8  N   UNL     1      29.022  41.857  54.151  1.00  0.00    -0.356 N 
HETATM    9  H   UNL     1      28.479  41.768  55.001  1.00  0.00     0.162 HD
HETATM   10  O   UNL     1      30.478  43.170  52.963  1.00  0.00    -0.268 OA
BRANCH   8  11
HETATM   11  C   UNL     1      28.706  40.994  53.029  1.00  0.00     0.127 C 
BRANCH  11  12
HETATM   12  C   UNL     1      27.438  41.421  52.283  1.00  0.00     0.058 C 
BRANCH  12  13
HETATM   13  C   UNL     1      27.201  40.802  50.921  1.00  0.00    -0.054 A 
HETATM   14  C   UNL     1      28.191  40.090  50.227  1.00  0.00     0.046 A 
HETATM   15  C   UNL     1      27.938  39.544  48.961  1.00  0.00     0.102 A 
HETATM   16  C   UNL     1      26.678  39.731  48.359  1.00  0.00     0.101 A 
HETATM   17  C   UNL     1      25.695  40.456  49.037  1.00  0.00     0.040 A 
HETATM   18  C   UNL     1      25.957  40.988  50.303  1.00  0.00     0.010 A 
BRANCH  15  19
HETATM   19  O   UNL     1      28.849  38.820  48.232  1.00  0.00    -0.353 OA
HETATM   20  C   UNL     1      29.822  38.069  48.945  1.00  0.00     0.210 C 
ENDBRANCH  15  19
BRANCH  16  21
HETATM   21  O   UNL     1      26.508  39.166  47.119  1.00  0.00    -0.353 OA
HETATM   22  C   UNL     1      26.094  40.016  46.060  1.00  0.00     0.210 C 
ENDBRANCH  16  21
ENDBRANCH  12  13
ENDBRANCH  11  12
ENDBRANCH   8  11
ENDBRANCH   2   7
BRANCH   1  23
HETATM   23  N   UNL     1      28.517  45.369  54.480  1.00  0.00    -0.321 N 
HETATM   24  C   UNL     1      27.210  44.961  54.282  1.00  0.00     0.265 C 
HETATM   25  O   UNL     1      26.659  44.078  54.933  1.00  0.00    -0.267 OA
HETATM   26  H   UNL     1      28.857  46.097  53.845  1.00  0.00     0.169 HD
BRANCH  24  27
HETATM   27  C   UNL     1      26.481  45.685  53.146  1.00  0.00     0.097 C 
HETATM   28  C   UNL     1      25.992  46.942  53.301  1.00  0.00     0.064 C 
HETATM   29  C   UNL     1      26.086  47.737  54.579  1.00  0.00     0.078 C 
HETATM   30  O   UNL     1      25.329  47.678  52.329  1.00  0.00    -0.353 OA
HETATM   31  C   UNL     1      25.472  47.250  50.976  1.00  0.00     0.185 C 
HETATM   32  C   UNL     1      25.065  45.804  50.812  1.00  0.00     0.106 C 
HETATM   33  S   UNL     1      26.290  44.781  51.656  1.00  0.00    -0.120 SA
ENDBRANCH  24  27
ENDBRANCH   1  23
TORSDOF 8
ENDMDL
MODEL 2
REMARK VINA RESULT:      -8.8      4.075      7.931
REMARK  8 active torsions:
REMARK  status: ('A' for Active; 'I' for Inactive)
REMARK    1  A    between atoms: C_7  and  C_8 
REMARK       I    between atoms: C_8  and  N_9 
REMARK    2  A    between atoms: N_9  and  C_10 
REMARK    3  A    between atoms: C_11  and  C_12 
REMARK       I    between atoms: C_12  and  N_13 
REMARK    4  A    between atoms: N_13  and  C_14 
REMARK    5  A    between atoms: C_14  and  C_15 
REMARK    6  A    between atoms: C_15  and  C_16 
REMARK    7  A    between atoms: C_18  and  O_19 
REMARK    8  A    between atoms: C_21  and  O_22 
ROOT
HETATM    1  C   UNL     1      24.835  48.794  49.330  1.00  0.00     0.050 A 
HETATM    2  C   UNL     1      25.592  47.694  49.795  1.00  0.00     0.058 A 
HETATM    3  C   UNL     1      26.983  47.643  49.585  1.00  0.00     0.019 A 
HETATM    4  C   UNL     1      27.635  48.691  48.941  1.00  0.00     0.001 A 
HETATM    5  C   UNL     1      26.903  49.787  48.499  1.00  0.00     0.002 A 
HETATM    6  C   UNL     1      25.517  49.836  48.689  1.00  0.00     0.030 A 
ENDROOT
BRANCH   2   7
HETATM    7  C   UNL     1      24.938  46.564  50.511  1.00  0.00     0.253 C 
HETATM    8  N   UNL     1      25.508  46.191  51.710  1.00  0.00    -0.356 N 
HETATM    9  H   UNL     1      26.246  46.757  52.112  1.00  0.00     0.162 HD
HETATM   10  O   UNL     1      23.930  46.038  50.055  1.00  0.00    -0.268 OA
BRANCH   8  11
HETATM   11  C   UNL     1      24.953  45.108  52.498  1.00  0.00     0.127 C 
BRANCH  11  12
HETATM   12  C   UNL     1      25.423  45.126  53.956  1.00  0.00     0.058 C 
BRANCH  12  13
HETATM   13  C   UNL     1      26.830  44.636  54.231  1.00  0.00    -0.054 A 
HETATM   14  C   UNL     1      27.267  43.349  53.882  1.00  0.00     0.046 A 
HETATM   15  C   UNL     1      28.574  42.927  54.167  1.00  0.00     0.102 A 
HETATM   16  C   UNL     1      29.458  43.794  54.836  1.00  0.00     0.101 A 
HETATM   17  C   UNL     1      29.020  45.069  55.204  1.00  0.00     0.040 A 
HETATM   18  C   UNL     1      27.718  45.482  54.907  1.00  0.00     0.010 A 
BRANCH  15  19
HETATM   19  O   UNL     1      29.078  41.692  53.838  1.00  0.00    -0.353 OA
HETATM   20  C   UNL     1      28.610  41.081  52.644  1.00  0.00     0.210 C 
ENDBRANCH  15  19
BRANCH  16  21
HETATM   21  O   UNL     1      30.719  43.307  55.079  1.00  0.00    -0.353 OA
HETATM   22  C   UNL     1      31.191  43.342  56.417  1.00  0.00     0.210 C 
ENDBRANCH  16  21
ENDBRANCH  12  13
ENDBRANCH  11  12
ENDBRANCH   8  11
ENDBRANCH   2   7
BRANCH   1  23
HETATM   23  N   UNL     1      23.429  48.811  49.520  1.00  0.00    -0.321 N 
HETATM   24  C   UNL     1      22.426  48.777  48.568  1.00  0.00     0.265 C 
HETATM   25  O   UNL     1      22.627  48.766  47.357  1.00  0.00    -0.267 OA
HETATM   26  H   UNL     1      23.116  48.846  50.495  1.00  0.00     0.169 HD
BRANCH  24  27
HETATM   27  C   UNL     1      21.005  48.784  49.139  1.00  0.00     0.097 C 
HETATM   28  C   UNL     1      20.194  47.698  49.043  1.00  0.00     0.064 C 
HETATM   29  C   UNL     1      20.581  46.409  48.363  1.00  0.00     0.078 C 
HETATM   30  O   UNL     1      18.900  47.609  49.536  1.00  0.00    -0.353 OA
HETATM   31  C   UNL     1      18.506  48.570  50.514  1.00  0.00     0.185 C 
HETATM   32  C   UNL     1      18.708  49.981  50.008  1.00  0.00     0.106 C 
HETATM   33  S   UNL     1      20.483  50.282  49.886  1.00  0.00    -0.120 SA
ENDBRANCH  24  27
ENDBRANCH   1  23
TORSDOF 8
ENDMDL
MODEL 3
REMARK VINA RESULT:      -8.7      0.785      1.809
REMARK  8 active torsions:
REMARK  status: ('A' for Active; 'I' for Inactive)
REMARK    1  A    between atoms: C_7  and  C_8 
REMARK       I    between atoms: C_8  and  N_9 
REMARK    2  A    between atoms: N_9  and  C_10 
REMARK    3  A    between atoms: C_11  and  C_12 
REMARK       I    between atoms: C_12  and  N_13 
REMARK    4  A    between atoms: N_13  and  C_14 
REMARK    5  A    between atoms: C_14  and  C_15 
REMARK    6  A    between atoms: C_15  and  C_16 
REMARK    7  A    between atoms: C_18  and  O_19 
REMARK    8  A    between atoms: C_21  and  O_22 
ROOT
HETATM    1  C   UNL     1      29.390  44.890  55.371  1.00  0.00     0.050 A 
HETATM    2  C   UNL     1      30.126  43.707  55.137  1.00  0.00     0.058 A 
HETATM    3  C   UNL     1      31.101  43.276  56.057  1.00  0.00     0.019 A 
HETATM    4  C   UNL     1      31.329  43.996  57.227  1.00  0.00     0.001 A 
HETATM    5  C   UNL     1      30.595  45.149  57.477  1.00  0.00     0.002 A 
HETATM    6  C   UNL     1      29.638  45.593  56.557  1.00  0.00     0.030 A 
ENDROOT
BRANCH   2   7
HETATM    7  C   UNL     1      29.895  42.893  53.912  1.00  0.00     0.253 C 
HETATM    8  N   UNL     1      29.010  41.843  54.036  1.00  0.00    -0.356 N 
HETATM    9  H   UNL     1      28.469  41.741  54.887  1.00  0.00     0.162 HD
HETATM   10  O   UNL     1      30.447  43.184  52.857  1.00  0.00    -0.268 OA
BRANCH   8  11
HETATM   11  C   UNL     1      28.701  40.986  52.908  1.00  0.00     0.127 C 
BRANCH  11  12
HETATM   12  C   UNL     1      27.328  41.276  52.293  1.00  0.00     0.058 C 
BRANCH  12  13
HETATM   13  C   UNL     1      27.125  40.876  50.846  1.00  0.00    -0.054 A 
HETATM   14  C   UNL     1      25.888  40.989  50.193  1.00  0.00     0.046 A 
HETATM   15  C   UNL     1      25.736  40.593  48.856  1.00  0.00     0.102 A 
HETATM   16  C   UNL     1      26.833  40.050  48.160  1.00  0.00     0.101 A 
HETATM   17  C   UNL     1      28.061  39.916  48.812  1.00  0.00     0.040 A 
HETATM   18  C   UNL     1      28.203  40.322  50.142  1.00  0.00     0.010 A 
BRANCH  15  19
HETATM   19  O   UNL     1      24.564  40.693  48.147  1.00  0.00    -0.353 OA
HETATM   20  C   UNL     1      23.559  41.564  48.645  1.00  0.00     0.210 C 
ENDBRANCH  15  19
BRANCH  16  21
HETATM   21  O   UNL     1      26.604  39.686  46.856  1.00  0.00    -0.353 OA
HETATM   22  C   UNL     1      27.266  38.528  46.369  1.00  0.00     0.210 C 
ENDBRANCH  16  21
ENDBRANCH  12  13
ENDBRANCH  11  12
ENDBRANCH   8  11
ENDBRANCH   2   7
BRANCH   1  23
HETATM   23  N   UNL     1      28.437  45.327  54.415  1.00  0.00    -0.321 N 
HETATM   24  C   UNL     1      27.131  44.905  54.241  1.00  0.00     0.265 C 
HETATM   25  O   UNL     1      26.600  44.018  54.903  1.00  0.00    -0.267 OA
HETATM   26  H   UNL     1      28.759  46.056  53.773  1.00  0.00     0.169 HD
BRANCH  24  27
HETATM   27  C   UNL     1      26.376  45.618  53.115  1.00  0.00     0.097 C 
HETATM   28  C   UNL     1      25.915  46.888  53.260  1.00  0.00     0.064 C 
HETATM   29  C   UNL     1      26.069  47.707  54.516  1.00  0.00     0.078 C 
HETATM   30  O   UNL     1      25.232  47.615  52.295  1.00  0.00    -0.353 OA
HETATM   31  C   UNL     1      25.319  47.157  50.948  1.00  0.00     0.185 C 
HETATM   32  C   UNL     1      24.881  45.715  50.830  1.00  0.00     0.106 C 
HETATM   33  S   UNL     1      26.116  44.687  51.652  1.00  0.00    -0.120 SA
ENDBRANCH  24  27
ENDBRANCH   1  23
TORSDOF 8
ENDMDL
MODEL 4
REMARK VINA RESULT:      -8.7      4.125      7.934
REMARK  8 active torsions:
REMARK  status: ('A' for Active; 'I' for Inactive)
REMARK    1  A    between atoms: C_7  and  C_8 
REMARK       I    between atoms: C_8  and  N_9 
REMARK    2  A    between atoms: N_9  and  C_10 
REMARK    3  A    between atoms: C_11  and  C_12 
REMARK       I    between atoms: C_12  and  N_13 
REMARK    4  A    between atoms: N_13  and  C_14 
REMARK    5  A    between atoms: C_14  and  C_15 
REMARK    6  A    between atoms: C_15  and  C_16 
REMARK    7  A    between atoms: C_18  and  O_19 
REMARK    8  A    between atoms: C_21  and  O_22 
ROOT
HETATM    1  C   UNL     1      24.824  48.788  49.149  1.00  0.00     0.050 A 
HETATM    2  C   UNL     1      25.616  47.777  49.742  1.00  0.00     0.058 A 
HETATM    3  C   UNL     1      27.021  47.837  49.673  1.00  0.00     0.019 A 
HETATM    4  C   UNL     1      27.649  48.910  49.044  1.00  0.00     0.001 A 
HETATM    5  C   UNL     1      26.879  49.919  48.478  1.00  0.00     0.002 A 
HETATM    6  C   UNL     1      25.482  49.856  48.527  1.00  0.00     0.030 A 
ENDROOT
BRANCH   2   7
HETATM    7  C   UNL     1      24.987  46.627  50.446  1.00  0.00     0.253 C 
HETATM    8  N   UNL     1      25.534  46.285  51.665  1.00  0.00    -0.356 N 
HETATM    9  H   UNL     1      26.236  46.882  52.085  1.00  0.00     0.162 HD
HETATM   10  O   UNL     1      24.015  46.057  49.963  1.00  0.00    -0.268 OA
BRANCH   8  11
HETATM   11  C   UNL     1      24.998  45.186  52.444  1.00  0.00     0.127 C 
BRANCH  11  12
HETATM   12  C   UNL     1      25.462  45.203  53.904  1.00  0.00     0.058 C 
BRANCH  12  13
HETATM   13  C   UNL     1      26.853  44.675  54.190  1.00  0.00    -0.054 A 
HETATM   14  C   UNL     1      27.272  43.393  53.805  1.00  0.00     0.046 A 
HETATM   15  C   UNL     1      28.564  42.934  54.101  1.00  0.00     0.102 A 
HETATM   16  C   UNL     1      29.451  43.759  54.818  1.00  0.00     0.101 A 
HETATM   17  C   UNL     1      29.031  45.029  55.221  1.00  0.00     0.040 A 
HETATM   18  C   UNL     1      27.744  45.479  54.913  1.00  0.00     0.010 A 
BRANCH  15  19
HETATM   19  O   UNL     1      29.050  41.701  53.740  1.00  0.00    -0.353 OA
HETATM   20  C   UNL     1      28.470  41.064  52.610  1.00  0.00     0.210 C 
ENDBRANCH  15  19
BRANCH  16  21
HETATM   21  O   UNL     1      30.696  43.239  55.070  1.00  0.00    -0.353 OA
HETATM   22  C   UNL     1      31.241  43.430  56.367  1.00  0.00     0.210 C 
ENDBRANCH  16  21
ENDBRANCH  12  13
ENDBRANCH  11  12
ENDBRANCH   8  11
ENDBRANCH   2   7
BRANCH   1  23
HETATM   23  N   UNL     1      23.410  48.692  49.200  1.00  0.00    -0.321 N 
HETATM   24  C   UNL     1      22.477  49.174  48.299  1.00  0.00     0.265 C 
HETATM   25  O   UNL     1      22.761  49.821  47.295  1.00  0.00    -0.267 OA
HETATM   26  H   UNL     1      23.030  48.192  50.009  1.00  0.00     0.169 HD
BRANCH  24  27
HETATM   27  C   UNL     1      21.022  48.864  48.660  1.00  0.00     0.097 C 
HETATM   28  C   UNL     1      20.304  49.674  49.482  1.00  0.00     0.064 C 
HETATM   29  C   UNL     1      20.849  50.921  50.130  1.00  0.00     0.078 C 
HETATM   30  O   UNL     1      18.982  49.479  49.857  1.00  0.00    -0.353 OA
HETATM   31  C   UNL     1      18.205  48.582  49.067  1.00  0.00     0.185 C 
HETATM   32  C   UNL     1      18.860  47.223  48.975  1.00  0.00     0.106 C 
HETATM   33  S   UNL     1      20.357  47.390  47.982  1.00  0.00    -0.120 SA
ENDBRANCH  24  27
ENDBRANCH   1  23
TORSDOF 8
ENDMDL
MODEL 5
REMARK VINA RESULT:      -8.6      4.323      8.302
REMARK  8 active torsions:
REMARK  status: ('A' for Active; 'I' for Inactive)
REMARK    1  A    between atoms: C_7  and  C_8 
REMARK       I    between atoms: C_8  and  N_9 
REMARK    2  A    between atoms: N_9  and  C_10 
REMARK    3  A    between atoms: C_11  and  C_12 
REMARK       I    between atoms: C_12  and  N_13 
REMARK    4  A    between atoms: N_13  and  C_14 
REMARK    5  A    between atoms: C_14  and  C_15 
REMARK    6  A    between atoms: C_15  and  C_16 
REMARK    7  A    between atoms: C_18  and  O_19 
REMARK    8  A    between atoms: C_21  and  O_22 
ROOT
HETATM    1  C   UNL     1      25.080  48.763  49.191  1.00  0.00     0.050 A 
HETATM    2  C   UNL     1      25.917  47.918  49.956  1.00  0.00     0.058 A 
HETATM    3  C   UNL     1      27.314  48.089  49.938  1.00  0.00     0.019 A 
HETATM    4  C   UNL     1      27.887  49.113  49.188  1.00  0.00     0.001 A 
HETATM    5  C   UNL     1      27.071  49.963  48.450  1.00  0.00     0.002 A 
HETATM    6  C   UNL     1      25.683  49.787  48.450  1.00  0.00     0.030 A 
ENDROOT
BRANCH   2   7
HETATM    7  C   UNL     1      25.344  46.827  50.791  1.00  0.00     0.253 C 
HETATM    8  N   UNL     1      25.964  46.597  52.001  1.00  0.00    -0.356 N 
HETATM    9  H   UNL     1      26.680  47.236  52.328  1.00  0.00     0.162 HD
HETATM   10  O   UNL     1      24.356  46.208  50.416  1.00  0.00    -0.268 OA
BRANCH   8  11
HETATM   11  C   UNL     1      25.489  45.565  52.902  1.00  0.00     0.127 C 
BRANCH  11  12
HETATM   12  C   UNL     1      26.341  44.292  52.858  1.00  0.00     0.058 C 
BRANCH  12  13
HETATM   13  C   UNL     1      27.615  44.289  53.679  1.00  0.00    -0.054 A 
HETATM   14  C   UNL     1      27.903  45.274  54.636  1.00  0.00     0.046 A 
HETATM   15  C   UNL     1      29.101  45.245  55.365  1.00  0.00     0.102 A 
HETATM   16  C   UNL     1      30.043  44.229  55.120  1.00  0.00     0.101 A 
HETATM   17  C   UNL     1      29.769  43.258  54.153  1.00  0.00     0.040 A 
HETATM   18  C   UNL     1      28.568  43.292  53.439  1.00  0.00     0.010 A 
BRANCH  15  19
HETATM   19  O   UNL     1      29.442  46.161  56.330  1.00  0.00    -0.353 OA
HETATM   20  C   UNL     1      28.732  46.124  57.560  1.00  0.00     0.210 C 
ENDBRANCH  15  19
BRANCH  16  21
HETATM   21  O   UNL     1      31.191  44.270  55.874  1.00  0.00    -0.353 OA
HETATM   22  C   UNL     1      31.292  43.371  56.968  1.00  0.00     0.210 C 
ENDBRANCH  16  21
ENDBRANCH  12  13
ENDBRANCH  11  12
ENDBRANCH   8  11
ENDBRANCH   2   7
BRANCH   1  23
HETATM   23  N   UNL     1      23.677  48.553  49.196  1.00  0.00    -0.321 N 
HETATM   24  C   UNL     1      22.732  49.003  48.291  1.00  0.00     0.265 C 
HETATM   25  O   UNL     1      22.988  49.718  47.326  1.00  0.00    -0.267 OA
HETATM   26  H   UNL     1      23.318  47.987  49.970  1.00  0.00     0.169 HD
BRANCH  24  27
HETATM   27  C   UNL     1      21.297  48.561  48.595  1.00  0.00     0.097 C 
HETATM   28  C   UNL     1      20.460  49.327  49.342  1.00  0.00     0.064 C 
HETATM   29  C   UNL     1      20.843  50.649  49.958  1.00  0.00     0.078 C 
HETATM   30  O   UNL     1      19.146  49.014  49.661  1.00  0.00    -0.353 OA
HETATM   31  C   UNL     1      18.505  48.011  48.876  1.00  0.00     0.185 C 
HETATM   32  C   UNL     1      19.296  46.723  48.880  1.00  0.00     0.106 C 
HETATM   33  S   UNL     1      20.820  47.001  47.954  1.00  0.00    -0.120 SA
ENDBRANCH  24  27
ENDBRANCH   1  23
TORSDOF 8
ENDMDL
MODEL 6
REMARK VINA RESULT:      -8.2      2.991      7.977
REMARK  8 active torsions:
REMARK  status: ('A' for Active; 'I' for Inactive)
REMARK    1  A    between atoms: C_7  and  C_8 
REMARK       I    between atoms: C_8  and  N_9 
REMARK    2  A    between atoms: N_9  and  C_10 
REMARK    3  A    between atoms: C_11  and  C_12 
REMARK       I    between atoms: C_12  and  N_13 
REMARK    4  A    between atoms: N_13  and  C_14 
REMARK    5  A    between atoms: C_14  and  C_15 
REMARK    6  A    between atoms: C_15  and  C_16 
REMARK    7  A    between atoms: C_18  and  O_19 
REMARK    8  A    between atoms: C_21  and  O_22 
ROOT
HETATM    1  C   UNL     1      24.911  42.589  48.271  1.00  0.00     0.050 A 
HETATM    2  C   UNL     1      25.852  42.042  49.173  1.00  0.00     0.058 A 
HETATM    3  C   UNL     1      26.220  40.686  49.089  1.00  0.00     0.019 A 
HETATM    4  C   UNL     1      25.682  39.873  48.095  1.00  0.00     0.001 A 
HETATM    5  C   UNL     1      24.771  40.406  47.190  1.00  0.00     0.002 A 
HETATM    6  C   UNL     1      24.388  41.749  47.280  1.00  0.00     0.030 A 
ENDROOT
BRANCH   2   7
HETATM    7  C   UNL     1      26.472  42.883  50.234  1.00  0.00     0.253 C 
HETATM    8  N   UNL     1      26.148  42.558  51.535  1.00  0.00    -0.356 N 
HETATM    9  H   UNL     1      25.623  41.713  51.725  1.00  0.00     0.162 HD
HETATM   10  O   UNL     1      27.249  43.784  49.941  1.00  0.00    -0.268 OA
BRANCH   8  11
HETATM   11  C   UNL     1      26.698  43.302  52.651  1.00  0.00     0.127 C 
BRANCH  11  12
HETATM   12  C   UNL     1      28.062  42.776  53.110  1.00  0.00     0.058 C 
BRANCH  12  13
HETATM   13  C   UNL     1      28.775  43.564  54.189  1.00  0.00    -0.054 A 
HETATM   14  C   UNL     1      28.265  44.759  54.720  1.00  0.00     0.046 A 
HETATM   15  C   UNL     1      28.962  45.468  55.708  1.00  0.00     0.102 A 
HETATM   16  C   UNL     1      30.207  44.993  56.161  1.00  0.00     0.101 A 
HETATM   17  C   UNL     1      30.729  43.815  55.621  1.00  0.00     0.040 A 
HETATM   18  C   UNL     1      30.021  43.111  54.643  1.00  0.00     0.010 A 
BRANCH  15  19
HETATM   19  O   UNL     1      28.516  46.631  56.288  1.00  0.00    -0.353 OA
HETATM   20  C   UNL     1      27.487  47.351  55.625  1.00  0.00     0.210 C 
ENDBRANCH  15  19
BRANCH  16  21
HETATM   21  O   UNL     1      30.828  45.743  57.129  1.00  0.00    -0.353 OA
HETATM   22  C   UNL     1      30.895  45.203  58.441  1.00  0.00     0.210 C 
ENDBRANCH  16  21
ENDBRANCH  12  13
ENDBRANCH  11  12
ENDBRANCH   8  11
ENDBRANCH   2   7
BRANCH   1  23
HETATM   23  N   UNL     1      24.527  43.949  48.394  1.00  0.00    -0.321 N 
HETATM   24  C   UNL     1      23.609  44.514  49.261  1.00  0.00     0.265 C 
HETATM   25  O   UNL     1      22.935  43.874  50.063  1.00  0.00    -0.267 OA
HETATM   26  H   UNL     1      24.999  44.600  47.759  1.00  0.00     0.169 HD
BRANCH  24  27
HETATM   27  C   UNL     1      23.463  46.033  49.133  1.00  0.00     0.097 C 
HETATM   28  C   UNL     1      24.162  46.886  49.928  1.00  0.00     0.064 C 
HETATM   29  C   UNL     1      25.114  46.445  51.011  1.00  0.00     0.078 C 
HETATM   30  O   UNL     1      24.102  48.271  49.879  1.00  0.00    -0.353 OA
HETATM   31  C   UNL     1      23.556  48.859  48.700  1.00  0.00     0.185 C 
HETATM   32  C   UNL     1      22.169  48.330  48.415  1.00  0.00     0.106 C 
HETATM   33  S   UNL     1      22.321  46.599  47.930  1.00  0.00    -0.120 SA
ENDBRANCH  24  27
ENDBRANCH   1  23
TORSDOF 8
ENDMDL
MODEL 7
REMARK VINA RESULT:      -8.2      2.787      6.655
REMARK  8 active torsions:
REMARK  status: ('A' for Active; 'I' for Inactive)
REMARK    1  A    between atoms: C_7  and  C_8 
REMARK       I    between atoms: C_8  and  N_9 
REMARK    2  A    between atoms: N_9  and  C_10 
REMARK    3  A    between atoms: C_11  and  C_12 
REMARK       I    between atoms: C_12  and  N_13 
REMARK    4  A    between atoms: N_13  and  C_14 
REMARK    5  A    between atoms: C_14  and  C_15 
REMARK    6  A    between atoms: C_15  and  C_16 
REMARK    7  A    between atoms: C_18  and  O_19 
REMARK    8  A    between atoms: C_21  and  O_22 
ROOT
HETATM    1  C   UNL     1      28.751  43.443  54.048  1.00  0.00     0.050 A 
HETATM    2  C   UNL     1      28.147  44.623  54.541  1.00  0.00     0.058 A 
HETATM    3  C   UNL     1      28.763  45.368  55.565  1.00  0.00     0.019 A 
HETATM    4  C   UNL     1      29.991  44.966  56.084  1.00  0.00     0.001 A 
HETATM    5  C   UNL     1      30.603  43.820  55.592  1.00  0.00     0.002 A 
HETATM    6  C   UNL     1      29.988  43.065  54.586  1.00  0.00     0.030 A 
ENDROOT
BRANCH   2   7
HETATM    7  C   UNL     1      26.848  45.102  53.995  1.00  0.00     0.253 C 
HETATM    8  N   UNL     1      26.914  46.127  53.075  1.00  0.00    -0.356 N 
HETATM    9  H   UNL     1      27.814  46.423  52.717  1.00  0.00     0.162 HD
HETATM   10  O   UNL     1      25.796  44.573  54.335  1.00  0.00    -0.268 OA
BRANCH   8  11
HETATM   11  C   UNL     1      25.713  46.669  52.470  1.00  0.00     0.127 C 
BRANCH  11  12
HETATM   12  C   UNL     1      25.991  47.463  51.190  1.00  0.00     0.058 C 
BRANCH  12  13
HETATM   13  C   UNL     1      24.906  47.464  50.132  1.00  0.00    -0.054 A 
HETATM   14  C   UNL     1      24.580  48.603  49.380  1.00  0.00     0.046 A 
HETATM   15  C   UNL     1      23.559  48.568  48.420  1.00  0.00     0.102 A 
HETATM   16  C   UNL     1      22.828  47.382  48.221  1.00  0.00     0.101 A 
HETATM   17  C   UNL     1      23.135  46.251  48.982  1.00  0.00     0.040 A 
HETATM   18  C   UNL     1      24.162  46.295  49.930  1.00  0.00     0.010 A 
BRANCH  15  19
HETATM   19  O   UNL     1      23.198  49.635  47.634  1.00  0.00    -0.353 OA
HETATM   20  C   UNL     1      23.113  50.913  48.248  1.00  0.00     0.210 C 
ENDBRANCH  15  19
BRANCH  16  21
HETATM   21  O   UNL     1      21.844  47.428  47.264  1.00  0.00    -0.353 OA
HETATM   22  C   UNL     1      21.324  46.193  46.794  1.00  0.00     0.210 C 
ENDBRANCH  16  21
ENDBRANCH  12  13
ENDBRANCH  11  12
ENDBRANCH   8  11
ENDBRANCH   2   7
BRANCH   1  23
HETATM   23  N   UNL     1      28.099  42.688  53.040  1.00  0.00    -0.321 N 
HETATM   24  C   UNL     1      27.936  42.992  51.700  1.00  0.00     0.265 C 
HETATM   25  O   UNL     1      28.323  44.033  51.178  1.00  0.00    -0.267 OA
HETATM   26  H   UNL     1      27.701  41.795  53.346  1.00  0.00     0.169 HD
BRANCH  24  27
HETATM   27  C   UNL     1      27.194  41.924  50.890  1.00  0.00     0.097 C 
HETATM   28  C   UNL     1      25.859  42.009  50.655  1.00  0.00     0.064 C 
HETATM   29  C   UNL     1      24.977  43.118  51.169  1.00  0.00     0.078 C 
HETATM   30  O   UNL     1      25.106  41.098  49.928  1.00  0.00    -0.353 OA
HETATM   31  C   UNL     1      25.813  40.205  49.069  1.00  0.00     0.185 C 
HETATM   32  C   UNL     1      26.862  39.428  49.830  1.00  0.00     0.106 C 
HETATM   33  S   UNL     1      28.163  40.578  50.320  1.00  0.00    -0.120 SA
ENDBRANCH  24  27
ENDBRANCH   1  23
TORSDOF 8
ENDMDL
MODEL 8
REMARK VINA RESULT:      -8.1      4.072      8.741
REMARK  8 active torsions:
REMARK  status: ('A' for Active; 'I' for Inactive)
REMARK    1  A    between atoms: C_7  and  C_8 
REMARK       I    between atoms: C_8  and  N_9 
REMARK    2  A    between atoms: N_9  and  C_10 
REMARK    3  A    between atoms: C_11  and  C_12 
REMARK       I    between atoms: C_12  and  N_13 
REMARK    4  A    between atoms: N_13  and  C_14 
REMARK    5  A    between atoms: C_14  and  C_15 
REMARK    6  A    between atoms: C_15  and  C_16 
REMARK    7  A    between atoms: C_18  and  O_19 
REMARK    8  A    between atoms: C_21  and  O_22 
ROOT
HETATM    1  C   UNL     1      24.848  44.471  51.178  1.00  0.00     0.050 A 
HETATM    2  C   UNL     1      24.418  45.503  50.313  1.00  0.00     0.058 A 
HETATM    3  C   UNL     1      23.464  45.245  49.309  1.00  0.00     0.019 A 
HETATM    4  C   UNL     1      22.911  43.974  49.177  1.00  0.00     0.001 A 
HETATM    5  C   UNL     1      23.311  42.958  50.036  1.00  0.00     0.002 A 
HETATM    6  C   UNL     1      24.272  43.204  51.024  1.00  0.00     0.030 A 
ENDROOT
BRANCH   2   7
HETATM    7  C   UNL     1      24.965  46.882  50.436  1.00  0.00     0.253 C 
HETATM    8  N   UNL     1      25.419  47.464  49.271  1.00  0.00    -0.356 N 
HETATM    9  H   UNL     1      25.256  47.004  48.384  1.00  0.00     0.162 HD
HETATM   10  O   UNL     1      24.966  47.457  51.518  1.00  0.00    -0.268 OA
BRANCH   8  11
HETATM   11  C   UNL     1      25.967  48.807  49.269  1.00  0.00     0.127 C 
BRANCH  11  12
HETATM   12  C   UNL     1      25.155  49.784  48.413  1.00  0.00     0.058 C 
BRANCH  12  13
HETATM   13  C   UNL     1      23.653  49.791  48.614  1.00  0.00    -0.054 A 
HETATM   14  C   UNL     1      22.821  48.756  48.160  1.00  0.00     0.046 A 
HETATM   15  C   UNL     1      21.433  48.806  48.353  1.00  0.00     0.102 A 
HETATM   16  C   UNL     1      20.856  49.922  48.989  1.00  0.00     0.101 A 
HETATM   17  C   UNL     1      21.679  50.964  49.425  1.00  0.00     0.040 A 
HETATM   18  C   UNL     1      23.062  50.899  49.235  1.00  0.00     0.010 A 
BRANCH  15  19
HETATM   19  O   UNL     1      20.560  47.824  47.954  1.00  0.00    -0.353 OA
HETATM   20  C   UNL     1      20.952  46.983  46.879  1.00  0.00     0.210 C 
ENDBRANCH  15  19
BRANCH  16  21
HETATM   21  O   UNL     1      19.492  49.897  49.140  1.00  0.00    -0.353 OA
HETATM   22  C   UNL     1      18.977  49.687  50.446  1.00  0.00     0.210 C 
ENDBRANCH  16  21
ENDBRANCH  12  13
ENDBRANCH  11  12
ENDBRANCH   8  11
ENDBRANCH   2   7
BRANCH   1  23
HETATM   23  N   UNL     1      25.835  44.743  52.160  1.00  0.00    -0.321 N 
HETATM   24  C   UNL     1      25.722  44.689  53.538  1.00  0.00     0.265 C 
HETATM   25  O   UNL     1      24.683  44.421  54.133  1.00  0.00    -0.267 OA
HETATM   26  H   UNL     1      26.756  45.008  51.798  1.00  0.00     0.169 HD
BRANCH  24  27
HETATM   27  C   UNL     1      27.010  45.024  54.296  1.00  0.00     0.097 C 
HETATM   28  C   UNL     1      27.253  46.274  54.769  1.00  0.00     0.064 C 
HETATM   29  C   UNL     1      26.321  47.445  54.586  1.00  0.00     0.078 C 
HETATM   30  O   UNL     1      28.383  46.667  55.472  1.00  0.00    -0.353 OA
HETATM   31  C   UNL     1      29.182  45.639  56.053  1.00  0.00     0.185 C 
HETATM   32  C   UNL     1      29.617  44.630  55.015  1.00  0.00     0.106 C 
HETATM   33  S   UNL     1      28.157  43.712  54.483  1.00  0.00    -0.120 SA
ENDBRANCH  24  27
ENDBRANCH   1  23
TORSDOF 8
ENDMDL
MODEL 9
REMARK VINA RESULT:      -7.9      4.367      7.259
REMARK  8 active torsions:
REMARK  status: ('A' for Active; 'I' for Inactive)
REMARK    1  A    between atoms: C_7  and  C_8 
REMARK       I    between atoms: C_8  and  N_9 
REMARK    2  A    between atoms: N_9  and  C_10 
REMARK    3  A    between atoms: C_11  and  C_12 
REMARK       I    between atoms: C_12  and  N_13 
REMARK    4  A    between atoms: N_13  and  C_14 
REMARK    5  A    between atoms: C_14  and  C_15 
REMARK    6  A    between atoms: C_15  and  C_16 
REMARK    7  A    between atoms: C_18  and  O_19 
REMARK    8  A    between atoms: C_21  and  O_22 
ROOT
HETATM    1  C   UNL     1      24.799  49.014  48.775  1.00  0.00     0.050 A 
HETATM    2  C   UNL     1      25.510  47.991  49.444  1.00  0.00     0.058 A 
HETATM    3  C   UNL     1      26.910  48.062  49.576  1.00  0.00     0.019 A 
HETATM    4  C   UNL     1      27.608  49.158  49.075  1.00  0.00     0.001 A 
HETATM    5  C   UNL     1      26.916  50.179  48.435  1.00  0.00     0.002 A 
HETATM    6  C   UNL     1      25.526  50.106  48.285  1.00  0.00     0.030 A 
ENDROOT
BRANCH   2   7
HETATM    7  C   UNL     1      24.800  46.815  50.017  1.00  0.00     0.253 C 
HETATM    8  N   UNL     1      25.183  46.430  51.285  1.00  0.00    -0.356 N 
HETATM    9  H   UNL     1      25.819  47.013  51.815  1.00  0.00     0.162 HD
HETATM   10  O   UNL     1      23.905  46.261  49.389  1.00  0.00    -0.268 OA
BRANCH   8  11
HETATM   11  C   UNL     1      24.556  45.303  51.946  1.00  0.00     0.127 C 
BRANCH  11  12
HETATM   12  C   UNL     1      25.492  44.586  52.925  1.00  0.00     0.058 C 
BRANCH  12  13
HETATM   13  C   UNL     1      26.308  43.433  52.377  1.00  0.00    -0.054 A 
HETATM   14  C   UNL     1      27.595  43.124  52.842  1.00  0.00     0.046 A 
HETATM   15  C   UNL     1      28.325  42.057  52.298  1.00  0.00     0.102 A 
HETATM   16  C   UNL     1      27.773  41.296  51.250  1.00  0.00     0.101 A 
HETATM   17  C   UNL     1      26.500  41.613  50.770  1.00  0.00     0.040 A 
HETATM   18  C   UNL     1      25.778  42.673  51.326  1.00  0.00     0.010 A 
BRANCH  15  19
HETATM   19  O   UNL     1      29.579  41.683  52.716  1.00  0.00    -0.353 OA
HETATM   20  C   UNL     1      30.372  42.654  53.385  1.00  0.00     0.210 C 
ENDBRANCH  15  19
BRANCH  16  21
HETATM   21  O   UNL     1      28.549  40.269  50.771  1.00  0.00    -0.353 OA
HETATM   22  C   UNL     1      28.095  39.586  49.612  1.00  0.00     0.210 C 
ENDBRANCH  16  21
ENDBRANCH  12  13
ENDBRANCH  11  12
ENDBRANCH   8  11
ENDBRANCH   2   7
BRANCH   1  23
HETATM   23  N   UNL     1      23.392  48.907  48.622  1.00  0.00    -0.321 N 
HETATM   24  C   UNL     1      22.397  49.651  49.230  1.00  0.00     0.265 C 
HETATM   25  O   UNL     1      22.605  50.530  50.062  1.00  0.00    -0.267 OA
HETATM   26  H   UNL     1      23.073  48.186  47.968  1.00  0.00     0.169 HD
BRANCH  24  27
HETATM   27  C   UNL     1      20.974  49.277  48.808  1.00  0.00     0.097 C 
HETATM   28  C   UNL     1      20.047  50.224  48.509  1.00  0.00     0.064 C 
HETATM   29  C   UNL     1      20.300  51.709  48.580  1.00  0.00     0.078 C 
HETATM   30  O   UNL     1      18.741  49.980  48.109  1.00  0.00    -0.353 OA
HETATM   31  C   UNL     1      18.436  48.671  47.634  1.00  0.00     0.185 C 
HETATM   32  C   UNL     1      18.808  47.618  48.653  1.00  0.00     0.106 C 
HETATM   33  S   UNL     1      20.608  47.562  48.768  1.00  0.00    -0.120 SA
ENDBRANCH  24  27
ENDBRANCH   1  23
TORSDOF 8
ENDMDL
MODEL 10
REMARK VINA RESULT:      -7.8      3.888      8.374
REMARK  8 active torsions:
REMARK  status: ('A' for Active; 'I' for Inactive)
REMARK    1  A    between atoms: C_7  and  C_8 
REMARK       I    between atoms: C_8  and  N_9 
REMARK    2  A    between atoms: N_9  and  C_10 
REMARK    3  A    between atoms: C_11  and  C_12 
REMARK       I    between atoms: C_12  and  N_13 
REMARK    4  A    between atoms: N_13  and  C_14 
REMARK    5  A    between atoms: C_14  and  C_15 
REMARK    6  A    between atoms: C_15  and  C_16 
REMARK    7  A    between atoms: C_18  and  O_19 
REMARK    8  A    between atoms: C_21  and  O_22 
ROOT
HETATM    1  C   UNL     1      27.310  44.368  53.089  1.00  0.00     0.050 A 
HETATM    2  C   UNL     1      26.498  45.524  53.146  1.00  0.00     0.058 A 
HETATM    3  C   UNL     1      26.760  46.536  54.089  1.00  0.00     0.019 A 
HETATM    4  C   UNL     1      27.842  46.423  54.959  1.00  0.00     0.001 A 
HETATM    5  C   UNL     1      28.658  45.300  54.896  1.00  0.00     0.002 A 
HETATM    6  C   UNL     1      28.393  44.282  53.973  1.00  0.00     0.030 A 
ENDROOT
BRANCH   2   7
HETATM    7  C   UNL     1      25.348  45.697  52.218  1.00  0.00     0.253 C 
HETATM    8  N   UNL     1      25.491  46.663  51.244  1.00  0.00    -0.356 N 
HETATM    9  H   UNL     1      26.387  47.117  51.116  1.00  0.00     0.162 HD
HETATM   10  O   UNL     1      24.357  44.983  52.314  1.00  0.00    -0.268 OA
BRANCH   8  11
HETATM   11  C   UNL     1      24.438  46.915  50.279  1.00  0.00     0.127 C 
BRANCH  11  12
HETATM   12  C   UNL     1      24.683  48.172  49.439  1.00  0.00     0.058 C 
BRANCH  12  13
HETATM   13  C   UNL     1      23.468  48.996  49.064  1.00  0.00    -0.054 A 
HETATM   14  C   UNL     1      22.186  48.442  48.932  1.00  0.00     0.046 A 
HETATM   15  C   UNL     1      21.088  49.235  48.568  1.00  0.00     0.102 A 
HETATM   16  C   UNL     1      21.273  50.606  48.306  1.00  0.00     0.101 A 
HETATM   17  C   UNL     1      22.552  51.158  48.417  1.00  0.00     0.040 A 
HETATM   18  C   UNL     1      23.637  50.359  48.788  1.00  0.00     0.010 A 
BRANCH  15  19
HETATM   19  O   UNL     1      19.802  48.767  48.439  1.00  0.00    -0.353 OA
HETATM   20  C   UNL     1      19.364  47.773  49.354  1.00  0.00     0.210 C 
ENDBRANCH  15  19
BRANCH  16  21
HETATM   21  O   UNL     1      20.150  51.314  47.956  1.00  0.00    -0.353 OA
HETATM   22  C   UNL     1      19.410  51.933  48.997  1.00  0.00     0.210 C 
ENDBRANCH  16  21
ENDBRANCH  12  13
ENDBRANCH  11  12
ENDBRANCH   8  11
ENDBRANCH   2   7
BRANCH   1  23
HETATM   23  N   UNL     1      27.009  43.343  52.154  1.00  0.00    -0.321 N 
HETATM   24  C   UNL     1      27.177  43.349  50.781  1.00  0.00     0.265 C 
HETATM   25  O   UNL     1      27.597  44.309  50.143  1.00  0.00    -0.267 OA
HETATM   26  H   UNL     1      26.622  42.482  52.553  1.00  0.00     0.169 HD
BRANCH  24  27
HETATM   27  C   UNL     1      26.765  42.049  50.084  1.00  0.00     0.097 C 
HETATM   28  C   UNL     1      25.558  41.919  49.474  1.00  0.00     0.064 C 
HETATM   29  C   UNL     1      24.509  43.001  49.434  1.00  0.00     0.078 C 
HETATM   30  O   UNL     1      25.104  40.788  48.812  1.00  0.00    -0.353 OA
HETATM   31  C   UNL     1      26.078  39.819  48.429  1.00  0.00     0.185 C 
HETATM   32  C   UNL     1      26.890  39.359  49.618  1.00  0.00     0.106 C 
HETATM   33  S   UNL     1      27.926  40.736  50.154  1.00  0.00    -0.120 SA
ENDBRANCH  24  27
ENDBRANCH   1  23
TORSDOF 8
ENDMDL
