MODEL 1
REMARK VINA RESULT:      -9.0      0.000      0.000
REMARK  6 active torsions:
REMARK  status: ('A' for Active; 'I' for Inactive)
REMARK    1  A    between atoms: O_2  and  C_3 
REMARK    2  A    between atoms: C_3  and  C_4 
REMARK    3  A    between atoms: C_4  and  N_5 
REMARK       I    between atoms: N_5  and  C_6 
REMARK    4  A    between atoms: C_6  and  C_7 
REMARK    5  A    between atoms: C_12  and  C_13 
REMARK    6  A    between atoms: C_22  and  C_23 
ROOT
HETATM    1  C   UNL     1      25.615  44.349  50.157  1.00  0.00     0.148 C 
HETATM    2  N   UNL     1      25.499  43.115  50.706  1.00  0.00    -0.165 NA
HETATM    3  N   UNL     1      26.695  42.926  51.287  1.00  0.00    -0.240 N 
HETATM    4  C   UNL     1      27.503  44.025  51.272  1.00  0.00     0.123 C 
HETATM    5  N   UNL     1      28.654  44.053  51.975  1.00  0.00    -0.366 N 
HETATM    6  C   UNL     1      28.970  43.061  53.002  1.00  0.00     0.118 C 
HETATM    7  C   UNL     1      27.781  42.114  53.293  1.00  0.00     0.066 C 
HETATM    8  C   UNL     1      27.022  41.719  52.019  1.00  0.00     0.221 C 
HETATM    9  C   UNL     1      26.876  44.935  50.466  1.00  0.00     0.088 C 
HETATM   10  H   UNL     1      29.264  44.870  51.946  1.00  0.00     0.161 HD
ENDROOT
BRANCH   1  11
HETATM   11  C   UNL     1      24.520  44.985  49.408  1.00  0.00     0.272 C 
HETATM   12  N   UNL     1      24.080  46.163  49.973  1.00  0.00    -0.354 N 
HETATM   13  H   UNL     1      24.672  46.524  50.718  1.00  0.00     0.162 HD
HETATM   14  O   UNL     1      24.084  44.534  48.354  1.00  0.00    -0.266 OA
BRANCH  12  15
HETATM   15  C   UNL     1      23.259  47.089  49.224  1.00  0.00     0.149 C 
BRANCH  15  16
HETATM   16  C   UNL     1      23.934  48.449  49.069  1.00  0.00     0.186 C 
BRANCH  16  17
HETATM   17  O   UNL     1      25.182  48.429  49.773  1.00  0.00    -0.394 OA
HETATM   18  C   UNL     1      26.210  49.075  49.035  1.00  0.00     0.201 C 
ENDBRANCH  16  17
ENDBRANCH  15  16
ENDBRANCH  12  15
ENDBRANCH   1  11
BRANCH   8  19
HETATM   19  C   UNL     1      27.804  40.772  51.139  1.00  0.00     0.409 C 
HETATM   20  F   UNL     1      28.294  41.374  50.034  1.00  0.00    -0.169 F 
HETATM   21  F   UNL     1      28.832  40.169  51.771  1.00  0.00    -0.169 F 
HETATM   22  F   UNL     1      26.985  39.776  50.705  1.00  0.00    -0.169 F 
ENDBRANCH   8  19
BRANCH   6  23
HETATM   23  C   UNL     1      29.394  43.791  54.269  1.00  0.00    -0.034 A 
HETATM   24  C   UNL     1      30.434  43.292  55.068  1.00  0.00     0.034 A 
HETATM   25  C   UNL     1      30.823  43.962  56.235  1.00  0.00     0.056 A 
HETATM   26 CL   UNL     1      32.115  43.279  57.156  1.00  0.00    -0.083 Cl
HETATM   27  C   UNL     1      30.172  45.139  56.619  1.00  0.00     0.055 A 
HETATM   28 CL   UNL     1      30.596  46.014  58.046  1.00  0.00    -0.083 Cl
HETATM   29  C   UNL     1      29.137  45.646  55.831  1.00  0.00     0.026 A 
HETATM   30  C   UNL     1      28.752  44.979  54.666  1.00  0.00     0.011 A 
ENDBRANCH   6  23
TORSDOF 6
ENDMDL
MODEL 2
REMARK VINA RESULT:      -8.5      1.477      2.598
REMARK  6 active torsions:
REMARK  status: ('A' for Active; 'I' for Inactive)
REMARK    1  A    between atoms: O_2  and  C_3 
REMARK    2  A    between atoms: C_3  and  C_4 
REMARK    3  A    between atoms: C_4  and  N_5 
REMARK       I    between atoms: N_5  and  C_6 
REMARK    4  A    between atoms: C_6  and  C_7 
REMARK    5  A    between atoms: C_12  and  C_13 
REMARK    6  A    between atoms: C_22  and  C_23 
ROOT
HETATM    1  C   UNL     1      25.939  44.195  49.990  1.00  0.00     0.148 C 
HETATM    2  N   UNL     1      25.762  42.980  50.564  1.00  0.00    -0.165 NA
HETATM    3  N   UNL     1      26.923  42.774  51.207  1.00  0.00    -0.240 N 
HETATM    4  C   UNL     1      27.763  43.850  51.203  1.00  0.00     0.123 C 
HETATM    5  N   UNL     1      28.879  43.866  51.959  1.00  0.00    -0.366 N 
HETATM    6  C   UNL     1      29.118  42.893  53.025  1.00  0.00     0.118 C 
HETATM    7  C   UNL     1      27.891  41.987  53.282  1.00  0.00     0.066 C 
HETATM    8  C   UNL     1      27.182  41.579  51.984  1.00  0.00     0.221 C 
HETATM    9  C   UNL     1      27.200  44.755  50.345  1.00  0.00     0.088 C 
HETATM   10  H   UNL     1      29.513  44.664  51.939  1.00  0.00     0.161 HD
ENDROOT
BRANCH   1  11
HETATM   11  C   UNL     1      24.899  44.840  49.174  1.00  0.00     0.272 C 
HETATM   12  N   UNL     1      24.441  44.049  48.142  1.00  0.00    -0.354 N 
HETATM   13  H   UNL     1      24.745  43.078  48.183  1.00  0.00     0.162 HD
HETATM   14  O   UNL     1      24.448  45.953  49.427  1.00  0.00    -0.266 OA
BRANCH  12  15
HETATM   15  C   UNL     1      23.211  44.365  47.449  1.00  0.00     0.149 C 
BRANCH  15  16
HETATM   16  C   UNL     1      22.093  43.388  47.802  1.00  0.00     0.186 C 
BRANCH  16  17
HETATM   17  O   UNL     1      22.641  42.321  48.585  1.00  0.00    -0.394 OA
HETATM   18  C   UNL     1      22.763  41.125  47.827  1.00  0.00     0.201 C 
ENDBRANCH  16  17
ENDBRANCH  15  16
ENDBRANCH  12  15
ENDBRANCH   1  11
BRANCH   8  19
HETATM   19  C   UNL     1      27.977  40.587  51.167  1.00  0.00     0.409 C 
HETATM   20  F   UNL     1      27.208  39.603  50.654  1.00  0.00    -0.169 F 
HETATM   21  F   UNL     1      28.662  41.149  50.150  1.00  0.00    -0.169 F 
HETATM   22  F   UNL     1      28.900  39.981  51.961  1.00  0.00    -0.169 F 
ENDBRANCH   8  19
BRANCH   6  23
HETATM   23  C   UNL     1      29.502  43.645  54.292  1.00  0.00    -0.034 A 
HETATM   24  C   UNL     1      30.545  43.183  55.109  1.00  0.00     0.034 A 
HETATM   25  C   UNL     1      30.897  43.873  56.277  1.00  0.00     0.056 A 
HETATM   26 CL   UNL     1      32.195  43.236  57.222  1.00  0.00    -0.083 Cl
HETATM   27  C   UNL     1      30.206  45.034  56.641  1.00  0.00     0.055 A 
HETATM   28 CL   UNL     1      30.584  45.932  58.068  1.00  0.00    -0.083 Cl
HETATM   29  C   UNL     1      29.168  45.503  55.835  1.00  0.00     0.026 A 
HETATM   30  C   UNL     1      28.820  44.816  54.670  1.00  0.00     0.011 A 
ENDBRANCH   6  23
TORSDOF 6
ENDMDL
MODEL 3
REMARK VINA RESULT:      -8.5      1.659      1.976
REMARK  6 active torsions:
REMARK  status: ('A' for Active; 'I' for Inactive)
REMARK    1  A    between atoms: O_2  and  C_3 
REMARK    2  A    between atoms: C_3  and  C_4 
REMARK    3  A    between atoms: C_4  and  N_5 
REMARK       I    between atoms: N_5  and  C_6 
REMARK    4  A    between atoms: C_6  and  C_7 
REMARK    5  A    between atoms: C_12  and  C_13 
REMARK    6  A    between atoms: C_22  and  C_23 
ROOT
HETATM    1  C   UNL     1      24.846  43.833  50.811  1.00  0.00     0.148 C 
HETATM    2  N   UNL     1      25.095  42.569  51.230  1.00  0.00    -0.165 NA
HETATM    3  N   UNL     1      26.385  42.619  51.603  1.00  0.00    -0.240 N 
HETATM    4  C   UNL     1      26.921  43.874  51.591  1.00  0.00     0.123 C 
HETATM    5  N   UNL     1      28.139  44.116  52.114  1.00  0.00    -0.366 N 
HETATM    6  C   UNL     1      28.834  43.150  52.966  1.00  0.00     0.118 C 
HETATM    7  C   UNL     1      27.946  41.934  53.321  1.00  0.00     0.066 C 
HETATM    8  C   UNL     1      27.086  41.470  52.138  1.00  0.00     0.221 C 
HETATM    9  C   UNL     1      25.983  44.672  50.994  1.00  0.00     0.088 C 
HETATM   10  H   UNL     1      28.544  45.052  52.087  1.00  0.00     0.161 HD
ENDROOT
BRANCH   1  11
HETATM   11  C   UNL     1      23.528  44.252  50.309  1.00  0.00     0.272 C 
HETATM   12  N   UNL     1      23.566  45.414  49.568  1.00  0.00    -0.354 N 
HETATM   13  H   UNL     1      24.501  45.730  49.321  1.00  0.00     0.162 HD
HETATM   14  O   UNL     1      22.507  43.595  50.488  1.00  0.00    -0.266 OA
BRANCH  12  15
HETATM   15  C   UNL     1      22.455  45.799  48.726  1.00  0.00     0.149 C 
BRANCH  15  16
HETATM   16  C   UNL     1      22.535  45.149  47.348  1.00  0.00     0.186 C 
BRANCH  16  17
HETATM   17  O   UNL     1      22.150  46.112  46.360  1.00  0.00    -0.394 OA
HETATM   18  C   UNL     1      21.608  45.489  45.204  1.00  0.00     0.201 C 
ENDBRANCH  16  17
ENDBRANCH  15  16
ENDBRANCH  12  15
ENDBRANCH   1  11
BRANCH   8  19
HETATM   19  C   UNL     1      27.895  40.800  51.051  1.00  0.00     0.409 C 
HETATM   20  F   UNL     1      28.217  41.645  50.049  1.00  0.00    -0.169 F 
HETATM   21  F   UNL     1      29.035  40.232  51.496  1.00  0.00    -0.169 F 
HETATM   22  F   UNL     1      27.162  39.799  50.493  1.00  0.00    -0.169 F 
ENDBRANCH   8  19
BRANCH   6  23
HETATM   23  C   UNL     1      29.297  43.862  54.230  1.00  0.00    -0.034 A 
HETATM   24  C   UNL     1      30.324  43.320  55.019  1.00  0.00     0.034 A 
HETATM   25  C   UNL     1      30.749  43.973  56.184  1.00  0.00     0.056 A 
HETATM   26 CL   UNL     1      32.021  43.238  57.093  1.00  0.00    -0.083 Cl
HETATM   27  C   UNL     1      30.149  45.174  56.574  1.00  0.00     0.055 A 
HETATM   28 CL   UNL     1      30.619  46.030  57.999  1.00  0.00    -0.083 Cl
HETATM   29  C   UNL     1      29.128  45.722  55.796  1.00  0.00     0.026 A 
HETATM   30  C   UNL     1      28.707  45.073  54.634  1.00  0.00     0.011 A 
ENDBRANCH   6  23
TORSDOF 6
ENDMDL
MODEL 4
REMARK VINA RESULT:      -8.4      2.240      3.248
REMARK  6 active torsions:
REMARK  status: ('A' for Active; 'I' for Inactive)
REMARK    1  A    between atoms: O_2  and  C_3 
REMARK    2  A    between atoms: C_3  and  C_4 
REMARK    3  A    between atoms: C_4  and  N_5 
REMARK       I    between atoms: N_5  and  C_6 
REMARK    4  A    between atoms: C_6  and  C_7 
REMARK    5  A    between atoms: C_12  and  C_13 
REMARK    6  A    between atoms: C_22  and  C_23 
ROOT
HETATM    1  C   UNL     1      24.829  46.671  49.942  1.00  0.00     0.148 C 
HETATM    2  N   UNL     1      24.201  45.549  50.372  1.00  0.00    -0.165 NA
HETATM    3  N   UNL     1      25.215  44.699  50.601  1.00  0.00    -0.240 N 
HETATM    4  C   UNL     1      26.452  45.264  50.489  1.00  0.00     0.123 C 
HETATM    5  N   UNL     1      27.560  44.595  50.868  1.00  0.00    -0.366 N 
HETATM    6  C   UNL     1      27.503  43.373  51.671  1.00  0.00     0.118 C 
HETATM    7  C   UNL     1      26.070  43.057  52.161  1.00  0.00     0.066 C 
HETATM    8  C   UNL     1      25.007  43.353  51.095  1.00  0.00     0.221 C 
HETATM    9  C   UNL     1      26.244  46.513  49.972  1.00  0.00     0.088 C 
HETATM   10  H   UNL     1      28.484  45.014  50.766  1.00  0.00     0.161 HD
ENDROOT
BRANCH   1  11
HETATM   11  C   UNL     1      24.097  47.892  49.573  1.00  0.00     0.272 C 
HETATM   12  N   UNL     1      22.760  47.674  49.313  1.00  0.00    -0.354 N 
HETATM   13  H   UNL     1      22.421  46.751  49.575  1.00  0.00     0.162 HD
HETATM   14  O   UNL     1      24.619  49.002  49.555  1.00  0.00    -0.266 OA
BRANCH  12  15
HETATM   15  C   UNL     1      21.821  48.773  49.263  1.00  0.00     0.149 C 
BRANCH  15  16
HETATM   16  C   UNL     1      20.397  48.292  49.002  1.00  0.00     0.186 C 
BRANCH  16  17
HETATM   17  O   UNL     1      19.535  48.833  50.011  1.00  0.00    -0.394 OA
HETATM   18  C   UNL     1      19.828  50.198  50.274  1.00  0.00     0.201 C 
ENDBRANCH  16  17
ENDBRANCH  15  16
ENDBRANCH  12  15
ENDBRANCH   1  11
BRANCH   8  19
HETATM   19  C   UNL     1      25.034  42.368  49.949  1.00  0.00     0.409 C 
HETATM   20  F   UNL     1      25.751  42.816  48.896  1.00  0.00    -0.169 F 
HETATM   21  F   UNL     1      25.513  41.154  50.289  1.00  0.00    -0.169 F 
HETATM   22  F   UNL     1      23.768  42.166  49.495  1.00  0.00    -0.169 F 
ENDBRANCH   8  19
BRANCH   6  23
HETATM   23  C   UNL     1      28.451  43.523  52.852  1.00  0.00    -0.034 A 
HETATM   24  C   UNL     1      28.214  44.490  53.841  1.00  0.00     0.034 A 
HETATM   25  C   UNL     1      29.087  44.631  54.927  1.00  0.00     0.056 A 
HETATM   26 CL   UNL     1      28.717  45.844  56.099  1.00  0.00    -0.083 Cl
HETATM   27  C   UNL     1      30.212  43.805  55.035  1.00  0.00     0.055 A 
HETATM   28 CL   UNL     1      31.332  43.926  56.344  1.00  0.00    -0.083 Cl
HETATM   29  C   UNL     1      30.456  42.838  54.058  1.00  0.00     0.026 A 
HETATM   30  C   UNL     1      29.583  42.698  52.978  1.00  0.00     0.011 A 
ENDBRANCH   6  23
TORSDOF 6
ENDMDL
MODEL 5
REMARK VINA RESULT:      -8.2      4.504      7.820
REMARK  6 active torsions:
REMARK  status: ('A' for Active; 'I' for Inactive)
REMARK    1  A    between atoms: O_2  and  C_3 
REMARK    2  A    between atoms: C_3  and  C_4 
REMARK    3  A    between atoms: C_4  and  N_5 
REMARK       I    between atoms: N_5  and  C_6 
REMARK    4  A    between atoms: C_6  and  C_7 
REMARK    5  A    between atoms: C_12  and  C_13 
REMARK    6  A    between atoms: C_22  and  C_23 
ROOT
HETATM    1  C   UNL     1      27.769  44.985  54.058  1.00  0.00     0.148 C 
HETATM    2  N   UNL     1      28.044  44.272  52.939  1.00  0.00    -0.165 NA
HETATM    3  N   UNL     1      26.965  44.485  52.168  1.00  0.00    -0.240 N 
HETATM    4  C   UNL     1      26.096  45.412  52.668  1.00  0.00     0.123 C 
HETATM    5  N   UNL     1      25.067  45.872  51.928  1.00  0.00    -0.366 N 
HETATM    6  C   UNL     1      24.973  45.643  50.486  1.00  0.00     0.118 C 
HETATM    7  C   UNL     1      26.248  44.984  49.910  1.00  0.00     0.066 C 
HETATM    8  C   UNL     1      26.828  43.914  50.844  1.00  0.00     0.221 C 
HETATM    9  C   UNL     1      26.536  45.687  53.934  1.00  0.00     0.088 C 
HETATM   10  H   UNL     1      24.410  46.551  52.312  1.00  0.00     0.161 HD
ENDROOT
BRANCH   1  11
HETATM   11  C   UNL     1      28.696  45.049  55.199  1.00  0.00     0.272 C 
HETATM   12  N   UNL     1      29.843  44.306  55.018  1.00  0.00    -0.354 N 
HETATM   13  H   UNL     1      29.980  43.959  54.071  1.00  0.00     0.162 HD
HETATM   14  O   UNL     1      28.487  45.744  56.188  1.00  0.00    -0.266 OA
BRANCH  12  15
HETATM   15  C   UNL     1      31.001  44.504  55.861  1.00  0.00     0.149 C 
BRANCH  15  16
HETATM   16  C   UNL     1      31.300  43.273  56.713  1.00  0.00     0.186 C 
BRANCH  16  17
HETATM   17  O   UNL     1      31.759  43.703  58.000  1.00  0.00    -0.394 OA
HETATM   18  C   UNL     1      31.169  44.938  58.382  1.00  0.00     0.201 C 
ENDBRANCH  16  17
ENDBRANCH  15  16
ENDBRANCH  12  15
ENDBRANCH   1  11
BRANCH   8  19
HETATM   19  C   UNL     1      25.982  42.663  50.901  1.00  0.00     0.409 C 
HETATM   20  F   UNL     1      26.692  41.572  51.261  1.00  0.00    -0.169 F 
HETATM   21  F   UNL     1      24.925  42.762  51.734  1.00  0.00    -0.169 F 
HETATM   22  F   UNL     1      25.473  42.403  49.667  1.00  0.00    -0.169 F 
ENDBRANCH   8  19
BRANCH   6  23
HETATM   23  C   UNL     1      24.702  46.975  49.800  1.00  0.00    -0.034 A 
HETATM   24  C   UNL     1      25.753  47.864  49.526  1.00  0.00     0.034 A 
HETATM   25  C   UNL     1      25.505  49.091  48.897  1.00  0.00     0.056 A 
HETATM   26 CL   UNL     1      26.858  50.123  48.595  1.00  0.00    -0.083 Cl
HETATM   27  C   UNL     1      24.201  49.444  48.536  1.00  0.00     0.055 A 
HETATM   28 CL   UNL     1      23.822  50.941  47.762  1.00  0.00    -0.083 Cl
HETATM   29  C   UNL     1      23.148  48.566  48.802  1.00  0.00     0.026 A 
HETATM   30  C   UNL     1      23.397  47.343  49.427  1.00  0.00     0.011 A 
ENDBRANCH   6  23
TORSDOF 6
ENDMDL
MODEL 6
REMARK VINA RESULT:      -8.2      3.339      5.791
REMARK  6 active torsions:
REMARK  status: ('A' for Active; 'I' for Inactive)
REMARK    1  A    between atoms: O_2  and  C_3 
REMARK    2  A    between atoms: C_3  and  C_4 
REMARK    3  A    between atoms: C_4  and  N_5 
REMARK       I    between atoms: N_5  and  C_6 
REMARK    4  A    between atoms: C_6  and  C_7 
REMARK    5  A    between atoms: C_12  and  C_13 
REMARK    6  A    between atoms: C_22  and  C_23 
ROOT
HETATM    1  C   UNL     1      27.324  41.433  49.870  1.00  0.00     0.148 C 
HETATM    2  N   UNL     1      27.064  42.695  49.448  1.00  0.00    -0.165 NA
HETATM    3  N   UNL     1      26.683  43.321  50.574  1.00  0.00    -0.240 N 
HETATM    4  C   UNL     1      26.836  42.575  51.706  1.00  0.00     0.123 C 
HETATM    5  N   UNL     1      26.677  43.122  52.928  1.00  0.00    -0.366 N 
HETATM    6  C   UNL     1      26.620  44.569  53.138  1.00  0.00     0.118 C 
HETATM    7  C   UNL     1      26.932  45.364  51.848  1.00  0.00     0.066 C 
HETATM    8  C   UNL     1      26.314  44.721  50.600  1.00  0.00     0.221 C 
HETATM    9  C   UNL     1      27.159  41.315  51.280  1.00  0.00     0.088 C 
HETATM   10  H   UNL     1      26.775  42.557  53.771  1.00  0.00     0.161 HD
ENDROOT
BRANCH   1  11
HETATM   11  C   UNL     1      27.787  40.377  48.957  1.00  0.00     0.272 C 
HETATM   12  N   UNL     1      29.057  39.922  49.241  1.00  0.00    -0.354 N 
HETATM   13  H   UNL     1      29.434  40.242  50.131  1.00  0.00     0.162 HD
HETATM   14  O   UNL     1      27.083  39.911  48.066  1.00  0.00    -0.266 OA
BRANCH  12  15
HETATM   15  C   UNL     1      29.549  38.683  48.681  1.00  0.00     0.149 C 
BRANCH  15  16
HETATM   16  C   UNL     1      30.267  37.833  49.726  1.00  0.00     0.186 C 
BRANCH  16  17
HETATM   17  O   UNL     1      29.332  37.467  50.747  1.00  0.00    -0.394 OA
HETATM   18  C   UNL     1      29.843  36.436  51.581  1.00  0.00     0.201 C 
ENDBRANCH  16  17
ENDBRANCH  15  16
ENDBRANCH  12  15
ENDBRANCH   1  11
BRANCH   8  19
HETATM   19  C   UNL     1      24.810  44.865  50.548  1.00  0.00     0.409 C 
HETATM   20  F   UNL     1      24.169  43.782  51.036  1.00  0.00    -0.169 F 
HETATM   21  F   UNL     1      24.347  45.950  51.201  1.00  0.00    -0.169 F 
HETATM   22  F   UNL     1      24.412  44.999  49.254  1.00  0.00    -0.169 F 
ENDBRANCH   8  19
BRANCH   6  23
HETATM   23  C   UNL     1      27.599  44.939  54.244  1.00  0.00    -0.034 A 
HETATM   24  C   UNL     1      28.703  44.120  54.524  1.00  0.00     0.034 A 
HETATM   25  C   UNL     1      29.603  44.458  55.543  1.00  0.00     0.056 A 
HETATM   26 CL   UNL     1      30.937  43.395  55.817  1.00  0.00    -0.083 Cl
HETATM   27  C   UNL     1      29.406  45.619  56.297  1.00  0.00     0.055 A 
HETATM   28 CL   UNL     1      30.472  46.094  57.570  1.00  0.00    -0.083 Cl
HETATM   29  C   UNL     1      28.311  46.442  56.026  1.00  0.00     0.026 A 
HETATM   30  C   UNL     1      27.417  46.106  55.008  1.00  0.00     0.011 A 
ENDBRANCH   6  23
TORSDOF 6
ENDMDL
MODEL 7
REMARK VINA RESULT:      -8.0      3.293      5.437
REMARK  6 active torsions:
REMARK  status: ('A' for Active; 'I' for Inactive)
REMARK    1  A    between atoms: O_2  and  C_3 
REMARK    2  A    between atoms: C_3  and  C_4 
REMARK    3  A    between atoms: C_4  and  N_5 
REMARK       I    between atoms: N_5  and  C_6 
REMARK    4  A    between atoms: C_6  and  C_7 
REMARK    5  A    between atoms: C_12  and  C_13 
REMARK    6  A    between atoms: C_22  and  C_23 
ROOT
HETATM    1  C   UNL     1      27.651  41.443  49.368  1.00  0.00     0.148 C 
HETATM    2  N   UNL     1      27.062  42.636  49.114  1.00  0.00    -0.165 NA
HETATM    3  N   UNL     1      26.678  43.052  50.332  1.00  0.00    -0.240 N 
HETATM    4  C   UNL     1      27.125  42.270  51.356  1.00  0.00     0.123 C 
HETATM    5  N   UNL     1      26.984  42.655  52.641  1.00  0.00    -0.366 N 
HETATM    6  C   UNL     1      26.619  44.022  53.014  1.00  0.00     0.118 C 
HETATM    7  C   UNL     1      26.592  44.977  51.798  1.00  0.00     0.066 C 
HETATM    8  C   UNL     1      26.002  44.316  50.546  1.00  0.00     0.221 C 
HETATM    9  C   UNL     1      27.678  41.166  50.766  1.00  0.00     0.088 C 
HETATM   10  H   UNL     1      27.303  42.059  53.404  1.00  0.00     0.161 HD
ENDROOT
BRANCH   1  11
HETATM   11  C   UNL     1      28.238  40.611  48.306  1.00  0.00     0.272 C 
HETATM   12  N   UNL     1      28.398  39.290  48.667  1.00  0.00    -0.354 N 
HETATM   13  H   UNL     1      27.938  39.029  49.536  1.00  0.00     0.162 HD
HETATM   14  O   UNL     1      28.504  41.046  47.190  1.00  0.00    -0.266 OA
BRANCH  12  15
HETATM   15  C   UNL     1      28.640  38.269  47.672  1.00  0.00     0.149 C 
BRANCH  15  16
HETATM   16  C   UNL     1      27.379  37.467  47.362  1.00  0.00     0.186 C 
BRANCH  16  17
HETATM   17  O   UNL     1      26.717  38.063  46.240  1.00  0.00    -0.394 OA
HETATM   18  C   UNL     1      25.449  38.593  46.601  1.00  0.00     0.201 C 
ENDBRANCH  16  17
ENDBRANCH  15  16
ENDBRANCH  12  15
ENDBRANCH   1  11
BRANCH   8  19
HETATM   19  C   UNL     1      24.509  44.098  50.645  1.00  0.00     0.409 C 
HETATM   20  F   UNL     1      24.191  42.828  50.973  1.00  0.00    -0.169 F 
HETATM   21  F   UNL     1      23.900  44.918  51.526  1.00  0.00    -0.169 F 
HETATM   22  F   UNL     1      23.935  44.340  49.436  1.00  0.00    -0.169 F 
ENDBRANCH   8  19
BRANCH   6  23
HETATM   23  C   UNL     1      27.606  44.519  54.063  1.00  0.00    -0.034 A 
HETATM   24  C   UNL     1      28.726  43.749  54.411  1.00  0.00     0.034 A 
HETATM   25  C   UNL     1      29.633  44.203  55.377  1.00  0.00     0.056 A 
HETATM   26 CL   UNL     1      30.986  43.193  55.742  1.00  0.00    -0.083 Cl
HETATM   27  C   UNL     1      29.427  45.434  56.009  1.00  0.00     0.055 A 
HETATM   28 CL   UNL     1      30.501  46.054  57.211  1.00  0.00    -0.083 Cl
HETATM   29  C   UNL     1      28.317  46.209  55.668  1.00  0.00     0.026 A 
HETATM   30  C   UNL     1      27.415  45.756  54.703  1.00  0.00     0.011 A 
ENDBRANCH   6  23
TORSDOF 6
ENDMDL
MODEL 8
REMARK VINA RESULT:      -8.0      3.218      5.491
REMARK  6 active torsions:
REMARK  status: ('A' for Active; 'I' for Inactive)
REMARK    1  A    between atoms: O_2  and  C_3 
REMARK    2  A    between atoms: C_3  and  C_4 
REMARK    3  A    between atoms: C_4  and  N_5 
REMARK       I    between atoms: N_5  and  C_6 
REMARK    4  A    between atoms: C_6  and  C_7 
REMARK    5  A    between atoms: C_12  and  C_13 
REMARK    6  A    between atoms: C_22  and  C_23 
ROOT
HETATM    1  C   UNL     1      26.845  41.734  49.274  1.00  0.00     0.148 C 
HETATM    2  N   UNL     1      26.710  43.082  49.224  1.00  0.00    -0.165 NA
HETATM    3  N   UNL     1      26.627  43.429  50.519  1.00  0.00    -0.240 N 
HETATM    4  C   UNL     1      26.857  42.402  51.388  1.00  0.00     0.123 C 
HETATM    5  N   UNL     1      26.995  42.627  52.710  1.00  0.00    -0.366 N 
HETATM    6  C   UNL     1      27.194  43.967  53.262  1.00  0.00     0.118 C 
HETATM    7  C   UNL     1      27.397  45.033  52.160  1.00  0.00     0.066 C 
HETATM    8  C   UNL     1      26.484  44.805  50.949  1.00  0.00     0.221 C 
HETATM    9  C   UNL     1      26.908  41.271  50.620  1.00  0.00     0.088 C 
HETATM   10  H   UNL     1      27.149  41.854  53.358  1.00  0.00     0.161 HD
ENDROOT
BRANCH   1  11
HETATM   11  C   UNL     1      26.979  40.910  48.063  1.00  0.00     0.272 C 
HETATM   12  N   UNL     1      28.120  40.137  48.048  1.00  0.00    -0.354 N 
HETATM   13  H   UNL     1      28.622  40.103  48.933  1.00  0.00     0.162 HD
HETATM   14  O   UNL     1      26.125  40.876  47.182  1.00  0.00    -0.266 OA
BRANCH  12  15
HETATM   15  C   UNL     1      28.263  39.034  47.123  1.00  0.00     0.149 C 
BRANCH  15  16
HETATM   16  C   UNL     1      28.319  37.691  47.845  1.00  0.00     0.186 C 
BRANCH  16  17
HETATM   17  O   UNL     1      27.930  37.883  49.210  1.00  0.00    -0.394 OA
HETATM   18  C   UNL     1      26.826  37.060  49.562  1.00  0.00     0.201 C 
ENDBRANCH  16  17
ENDBRANCH  15  16
ENDBRANCH  12  15
ENDBRANCH   1  11
BRANCH   8  19
HETATM   19  C   UNL     1      25.033  45.112  51.240  1.00  0.00     0.409 C 
HETATM   20  F   UNL     1      24.417  45.730  50.210  1.00  0.00    -0.169 F 
HETATM   21  F   UNL     1      24.305  44.024  51.565  1.00  0.00    -0.169 F 
HETATM   22  F   UNL     1      24.953  45.958  52.302  1.00  0.00    -0.169 F 
ENDBRANCH   8  19
BRANCH   6  23
HETATM   23  C   UNL     1      28.393  43.933  54.201  1.00  0.00    -0.034 A 
HETATM   24  C   UNL     1      28.539  44.898  55.208  1.00  0.00     0.034 A 
HETATM   25  C   UNL     1      29.643  44.870  56.071  1.00  0.00     0.056 A 
HETATM   26 CL   UNL     1      29.741  46.095  57.285  1.00  0.00    -0.083 Cl
HETATM   27  C   UNL     1      30.616  43.874  55.932  1.00  0.00     0.055 A 
HETATM   28 CL   UNL     1      32.003  43.781  56.956  1.00  0.00    -0.083 Cl
HETATM   29  C   UNL     1      30.479  42.908  54.934  1.00  0.00     0.026 A 
HETATM   30  C   UNL     1      29.377  42.936  54.077  1.00  0.00     0.011 A 
ENDBRANCH   6  23
TORSDOF 6
ENDMDL
MODEL 9
REMARK VINA RESULT:      -7.7      7.248     11.188
REMARK  6 active torsions:
REMARK  status: ('A' for Active; 'I' for Inactive)
REMARK    1  A    between atoms: O_2  and  C_3 
REMARK    2  A    between atoms: C_3  and  C_4 
REMARK    3  A    between atoms: C_4  and  N_5 
REMARK       I    between atoms: N_5  and  C_6 
REMARK    4  A    between atoms: C_6  and  C_7 
REMARK    5  A    between atoms: C_12  and  C_13 
REMARK    6  A    between atoms: C_22  and  C_23 
ROOT
HETATM    1  C   UNL     1      22.192  46.363  48.454  1.00  0.00     0.148 C 
HETATM    2  N   UNL     1      22.831  47.285  49.214  1.00  0.00    -0.165 NA
HETATM    3  N   UNL     1      22.280  48.444  48.817  1.00  0.00    -0.240 N 
HETATM    4  C   UNL     1      21.225  48.297  47.965  1.00  0.00     0.123 C 
HETATM    5  N   UNL     1      20.452  49.348  47.625  1.00  0.00    -0.366 N 
HETATM    6  C   UNL     1      20.500  50.622  48.343  1.00  0.00     0.118 C 
HETATM    7  C   UNL     1      21.390  50.552  49.606  1.00  0.00     0.066 C 
HETATM    8  C   UNL     1      22.661  49.722  49.383  1.00  0.00     0.221 C 
HETATM    9  C   UNL     1      21.198  46.970  47.633  1.00  0.00     0.088 C 
HETATM   10  H   UNL     1      19.675  49.237  46.974  1.00  0.00     0.161 HD
ENDROOT
BRANCH   1  11
HETATM   11  C   UNL     1      22.476  44.924  48.556  1.00  0.00     0.272 C 
HETATM   12  N   UNL     1      23.742  44.645  49.024  1.00  0.00    -0.354 N 
HETATM   13  H   UNL     1      24.244  45.448  49.397  1.00  0.00     0.162 HD
HETATM   14  O   UNL     1      21.642  44.060  48.302  1.00  0.00    -0.266 OA
BRANCH  12  15
HETATM   15  C   UNL     1      24.087  43.324  49.503  1.00  0.00     0.149 C 
BRANCH  15  16
HETATM   16  C   UNL     1      25.114  43.379  50.631  1.00  0.00     0.186 C 
BRANCH  16  17
HETATM   17  O   UNL     1      24.452  43.771  51.839  1.00  0.00    -0.394 OA
HETATM   18  C   UNL     1      25.012  44.960  52.381  1.00  0.00     0.201 C 
ENDBRANCH  16  17
ENDBRANCH  15  16
ENDBRANCH  12  15
ENDBRANCH   1  11
BRANCH   8  19
HETATM   19  C   UNL     1      23.664  50.411  48.487  1.00  0.00     0.409 C 
HETATM   20  F   UNL     1      24.936  50.239  48.904  1.00  0.00    -0.169 F 
HETATM   21  F   UNL     1      23.595  50.022  47.197  1.00  0.00    -0.169 F 
HETATM   22  F   UNL     1      23.433  51.752  48.495  1.00  0.00    -0.169 F 
ENDBRANCH   8  19
BRANCH   6  23
HETATM   23  C   UNL     1      19.079  51.026  48.712  1.00  0.00    -0.034 A 
HETATM   24  C   UNL     1      17.984  50.267  48.273  1.00  0.00     0.034 A 
HETATM   25  C   UNL     1      16.676  50.640  48.608  1.00  0.00     0.056 A 
HETATM   26 CL   UNL     1      15.387  49.646  48.028  1.00  0.00    -0.083 Cl
HETATM   27  C   UNL     1      16.449  51.780  49.387  1.00  0.00     0.055 A 
HETATM   28 CL   UNL     1      14.864  52.300  49.835  1.00  0.00    -0.083 Cl
HETATM   29  C   UNL     1      17.531  52.541  49.831  1.00  0.00     0.026 A 
HETATM   30  C   UNL     1      18.835  52.167  49.497  1.00  0.00     0.011 A 
ENDBRANCH   6  23
TORSDOF 6
ENDMDL
MODEL 10
REMARK VINA RESULT:      -7.6      4.149      5.680
REMARK  6 active torsions:
REMARK  status: ('A' for Active; 'I' for Inactive)
REMARK    1  A    between atoms: O_2  and  C_3 
REMARK    2  A    between atoms: C_3  and  C_4 
REMARK    3  A    between atoms: C_4  and  N_5 
REMARK       I    between atoms: N_5  and  C_6 
REMARK    4  A    between atoms: C_6  and  C_7 
REMARK    5  A    between atoms: C_12  and  C_13 
REMARK    6  A    between atoms: C_22  and  C_23 
ROOT
HETATM    1  C   UNL     1      24.723  46.739  50.719  1.00  0.00     0.148 C 
HETATM    2  N   UNL     1      25.759  46.963  51.564  1.00  0.00    -0.165 NA
HETATM    3  N   UNL     1      25.959  45.760  52.127  1.00  0.00    -0.240 N 
HETATM    4  C   UNL     1      25.217  44.756  51.578  1.00  0.00     0.123 C 
HETATM    5  N   UNL     1      25.439  43.466  51.904  1.00  0.00    -0.366 N 
HETATM    6  C   UNL     1      26.639  43.034  52.620  1.00  0.00     0.118 C 
HETATM    7  C   UNL     1      27.667  44.177  52.791  1.00  0.00     0.066 C 
HETATM    8  C   UNL     1      26.999  45.522  53.107  1.00  0.00     0.221 C 
HETATM    9  C   UNL     1      24.336  45.368  50.728  1.00  0.00     0.088 C 
HETATM   10  H   UNL     1      24.869  42.720  51.504  1.00  0.00     0.161 HD
ENDROOT
BRANCH   1  11
HETATM   11  C   UNL     1      24.157  47.798  49.870  1.00  0.00     0.272 C 
HETATM   12  N   UNL     1      22.830  47.596  49.552  1.00  0.00    -0.354 N 
HETATM   13  H   UNL     1      22.375  46.853  50.078  1.00  0.00     0.162 HD
HETATM   14  O   UNL     1      24.793  48.789  49.527  1.00  0.00    -0.266 OA
BRANCH  12  15
HETATM   15  C   UNL     1      22.019  48.668  49.018  1.00  0.00     0.149 C 
BRANCH  15  16
HETATM   16  C   UNL     1      20.603  48.202  48.692  1.00  0.00     0.186 C 
BRANCH  16  17
HETATM   17  O   UNL     1      19.670  49.126  49.264  1.00  0.00    -0.394 OA
HETATM   18  C   UNL     1      18.959  48.547  50.350  1.00  0.00     0.201 C 
ENDBRANCH  16  17
ENDBRANCH  15  16
ENDBRANCH  12  15
ENDBRANCH   1  11
BRANCH   8  19
HETATM   19  C   UNL     1      26.423  45.579  54.503  1.00  0.00     0.409 C 
HETATM   20  F   UNL     1      26.497  46.813  55.045  1.00  0.00    -0.169 F 
HETATM   21  F   UNL     1      25.139  45.171  54.576  1.00  0.00    -0.169 F 
HETATM   22  F   UNL     1      27.133  44.756  55.321  1.00  0.00    -0.169 F 
ENDBRANCH   8  19
BRANCH   6  23
HETATM   23  C   UNL     1      27.260  41.865  51.866  1.00  0.00    -0.034 A 
HETATM   24  C   UNL     1      26.675  41.386  50.684  1.00  0.00     0.034 A 
HETATM   25  C   UNL     1      27.243  40.309  49.991  1.00  0.00     0.056 A 
HETATM   26 CL   UNL     1      26.459  39.786  48.543  1.00  0.00    -0.083 Cl
HETATM   27  C   UNL     1      28.405  39.698  50.475  1.00  0.00     0.055 A 
HETATM   28 CL   UNL     1      29.157  38.365  49.675  1.00  0.00    -0.083 Cl
HETATM   29  C   UNL     1      28.996  40.168  51.649  1.00  0.00     0.026 A 
HETATM   30  C   UNL     1      28.430  41.243  52.337  1.00  0.00     0.011 A 
ENDBRANCH   6  23
TORSDOF 6
ENDMDL
