MODEL 1
REMARK VINA RESULT:      -8.6      0.000      0.000
REMARK  5 active torsions:
REMARK  status: ('A' for Active; 'I' for Inactive)
REMARK    1  A    between atoms: C_2  and  C_3 
REMARK    2  A    between atoms: C_3  and  N_4 
REMARK    3  A    between atoms: C_3  and  C_18 
REMARK    4  A    between atoms: N_4  and  C_7 
REMARK    5  A    between atoms: C_7  and  C_8 
ROOT
HETATM    1  N   UNL     1      25.674  46.243  52.586  1.00  0.00    -0.056 N 
HETATM    2  H   UNL     1      24.723  46.622  52.507  1.00  0.00     0.278 HD
HETATM    3  H   UNL     1      25.528  45.240  52.749  1.00  0.00     0.278 HD
ENDROOT
BRANCH   1   4
HETATM    4  C   UNL     1      26.351  46.395  51.252  1.00  0.00     0.292 C 
BRANCH   4   5
HETATM    5  C   UNL     1      25.658  47.401  50.350  1.00  0.00    -0.020 A 
HETATM    6  C   UNL     1      26.429  48.344  49.645  1.00  0.00     0.011 A 
HETATM    7  C   UNL     1      25.818  49.299  48.826  1.00  0.00     0.024 A 
HETATM    8  C   UNL     1      24.433  49.324  48.701  1.00  0.00     0.034 A 
HETATM    9  C   UNL     1      23.650  48.399  49.388  1.00  0.00     0.024 A 
HETATM   10 CL   UNL     1      23.684  50.498  47.695  1.00  0.00    -0.084 Cl
HETATM   11  C   UNL     1      24.256  47.444  50.209  1.00  0.00     0.011 A 
ENDBRANCH   4   5
BRANCH   4  12
HETATM   12  C   UNL     1      26.373  45.097  50.492  1.00  0.00     0.190 A 
HETATM   13  N   UNL     1      27.323  44.777  49.608  1.00  0.00    -0.109 NA
HETATM   14  O   UNL     1      26.966  43.483  49.214  1.00  0.00    -0.205 OA
HETATM   15  C   UNL     1      25.862  43.152  49.935  1.00  0.00     0.288 A 
HETATM   16  N   UNL     1      25.465  44.093  50.762  1.00  0.00    -0.215 NA
ENDBRANCH   4  12
ENDBRANCH   1   4
BRANCH   1  17
HETATM   17  C   UNL     1      26.377  46.842  53.742  1.00  0.00     0.272 C 
BRANCH  17  18
HETATM   18  C   UNL     1      27.440  45.912  54.249  1.00  0.00    -0.030 A 
HETATM   19  C   UNL     1      28.332  46.334  55.249  1.00  0.00     0.048 A 
HETATM   20  C   UNL     1      29.291  45.455  55.754  1.00  0.00     0.102 A 
HETATM   21  C   UNL     1      29.385  44.156  55.254  1.00  0.00     0.102 A 
HETATM   22  O   UNL     1      30.109  45.945  56.737  1.00  0.00    -0.346 OA
HETATM   23  O   UNL     1      30.323  43.255  55.679  1.00  0.00    -0.346 OA
HETATM   24  C   UNL     1      28.492  43.720  54.278  1.00  0.00     0.040 A 
HETATM   25  C   UNL     1      31.392  43.905  56.378  1.00  0.00     0.202 C 
HETATM   26  C   UNL     1      30.842  44.897  57.390  1.00  0.00     0.202 C 
HETATM   27  C   UNL     1      27.522  44.592  53.777  1.00  0.00     0.012 A 
ENDBRANCH  17  18
ENDBRANCH   1  17
TORSDOF 5
ENDMDL
MODEL 2
REMARK VINA RESULT:      -8.4      4.864      9.286
REMARK  5 active torsions:
REMARK  status: ('A' for Active; 'I' for Inactive)
REMARK    1  A    between atoms: C_2  and  C_3 
REMARK    2  A    between atoms: C_3  and  N_4 
REMARK    3  A    between atoms: C_3  and  C_18 
REMARK    4  A    between atoms: N_4  and  C_7 
REMARK    5  A    between atoms: C_7  and  C_8 
ROOT
HETATM    1  N   UNL     1      23.537  47.663  50.011  1.00  0.00    -0.056 N 
HETATM    2  H   UNL     1      23.090  47.461  50.913  1.00  0.00     0.278 HD
HETATM    3  H   UNL     1      23.867  48.630  50.109  1.00  0.00     0.278 HD
ENDROOT
BRANCH   1   4
HETATM    4  C   UNL     1      24.746  46.779  49.880  1.00  0.00     0.292 C 
BRANCH   4   5
HETATM    5  C   UNL     1      25.095  46.061  51.171  1.00  0.00    -0.020 A 
HETATM    6  C   UNL     1      24.992  44.659  51.233  1.00  0.00     0.011 A 
HETATM    7  C   UNL     1      25.282  43.971  52.415  1.00  0.00     0.024 A 
HETATM    8  C   UNL     1      25.678  44.674  53.549  1.00  0.00     0.034 A 
HETATM    9  C   UNL     1      25.789  46.061  53.510  1.00  0.00     0.024 A 
HETATM   10 CL   UNL     1      26.034  43.828  55.001  1.00  0.00    -0.084 Cl
HETATM   11  C   UNL     1      25.499  46.753  52.332  1.00  0.00     0.011 A 
ENDBRANCH   4   5
BRANCH   4  12
HETATM   12  C   UNL     1      25.968  47.567  49.496  1.00  0.00     0.190 A 
HETATM   13  N   UNL     1      27.135  47.003  49.166  1.00  0.00    -0.109 NA
HETATM   14  O   UNL     1      27.935  48.102  48.834  1.00  0.00    -0.205 OA
HETATM   15  C   UNL     1      27.148  49.203  48.963  1.00  0.00     0.288 A 
HETATM   16  N   UNL     1      25.917  48.937  49.338  1.00  0.00    -0.215 NA
ENDBRANCH   4  12
ENDBRANCH   1   4
BRANCH   1  17
HETATM   17  C   UNL     1      22.550  47.580  48.912  1.00  0.00     0.272 C 
BRANCH  17  18
HETATM   18  C   UNL     1      21.768  48.857  48.810  1.00  0.00    -0.030 A 
HETATM   19  C   UNL     1      20.436  48.909  49.248  1.00  0.00     0.048 A 
HETATM   20  C   UNL     1      19.723  50.108  49.197  1.00  0.00     0.102 A 
HETATM   21  C   UNL     1      20.323  51.260  48.689  1.00  0.00     0.102 A 
HETATM   22  O   UNL     1      18.434  50.071  49.659  1.00  0.00    -0.346 OA
HETATM   23  O   UNL     1      19.672  52.458  48.577  1.00  0.00    -0.346 OA
HETATM   24  C   UNL     1      21.651  51.225  48.272  1.00  0.00     0.040 A 
HETATM   25  C   UNL     1      18.252  52.291  48.671  1.00  0.00     0.202 C 
HETATM   26  C   UNL     1      17.898  51.390  49.843  1.00  0.00     0.202 C 
HETATM   27  C   UNL     1      22.374  50.031  48.332  1.00  0.00     0.012 A 
ENDBRANCH  17  18
ENDBRANCH   1  17
TORSDOF 5
ENDMDL
MODEL 3
REMARK VINA RESULT:      -8.4      2.656      3.943
REMARK  5 active torsions:
REMARK  status: ('A' for Active; 'I' for Inactive)
REMARK    1  A    between atoms: C_2  and  C_3 
REMARK    2  A    between atoms: C_3  and  N_4 
REMARK    3  A    between atoms: C_3  and  C_18 
REMARK    4  A    between atoms: N_4  and  C_7 
REMARK    5  A    between atoms: C_7  and  C_8 
ROOT
HETATM    1  N   UNL     1      26.713  47.028  52.703  1.00  0.00    -0.056 N 
HETATM    2  H   UNL     1      27.559  46.596  52.314  1.00  0.00     0.278 HD
HETATM    3  H   UNL     1      26.877  48.035  52.592  1.00  0.00     0.278 HD
ENDROOT
BRANCH   1   4
HETATM    4  C   UNL     1      25.551  46.654  51.826  1.00  0.00     0.292 C 
BRANCH   4   5
HETATM    5  C   UNL     1      25.660  45.245  51.270  1.00  0.00    -0.020 A 
HETATM    6  C   UNL     1      24.643  44.312  51.546  1.00  0.00     0.011 A 
HETATM    7  C   UNL     1      24.728  43.000  51.070  1.00  0.00     0.024 A 
HETATM    8  C   UNL     1      25.827  42.604  50.314  1.00  0.00     0.034 A 
HETATM    9  C   UNL     1      26.844  43.511  50.027  1.00  0.00     0.024 A 
HETATM   10 CL   UNL     1      25.929  40.992  49.730  1.00  0.00    -0.084 Cl
HETATM   11  C   UNL     1      26.765  44.823  50.502  1.00  0.00     0.011 A 
ENDBRANCH   4   5
BRANCH   4  12
HETATM   12  C   UNL     1      25.441  47.566  50.634  1.00  0.00     0.190 A 
HETATM   13  N   UNL     1      24.278  47.893  50.061  1.00  0.00    -0.109 NA
HETATM   14  O   UNL     1      24.662  48.788  49.056  1.00  0.00    -0.205 OA
HETATM   15  C   UNL     1      26.010  48.931  49.162  1.00  0.00     0.288 A 
HETATM   16  N   UNL     1      26.544  48.228  50.135  1.00  0.00    -0.215 NA
ENDBRANCH   4  12
ENDBRANCH   1   4
BRANCH   1  17
HETATM   17  C   UNL     1      26.575  46.699  54.139  1.00  0.00     0.272 C 
BRANCH  17  18
HETATM   18  C   UNL     1      27.678  45.779  54.575  1.00  0.00    -0.030 A 
HETATM   19  C   UNL     1      28.499  46.124  55.660  1.00  0.00     0.048 A 
HETATM   20  C   UNL     1      29.495  45.249  56.097  1.00  0.00     0.102 A 
HETATM   21  C   UNL     1      29.695  44.033  55.443  1.00  0.00     0.102 A 
HETATM   22  O   UNL     1      30.240  45.659  57.170  1.00  0.00    -0.346 OA
HETATM   23  O   UNL     1      30.675  43.144  55.796  1.00  0.00    -0.346 OA
HETATM   24  C   UNL     1      28.872  43.670  54.380  1.00  0.00     0.040 A 
HETATM   25  C   UNL     1      31.670  43.765  56.619  1.00  0.00     0.202 C 
HETATM   26  C   UNL     1      31.016  44.584  57.720  1.00  0.00     0.202 C 
HETATM   27  C   UNL     1      27.866  44.538  53.947  1.00  0.00     0.012 A 
ENDBRANCH  17  18
ENDBRANCH   1  17
TORSDOF 5
ENDMDL
MODEL 4
REMARK VINA RESULT:      -8.3      3.484      7.495
REMARK  5 active torsions:
REMARK  status: ('A' for Active; 'I' for Inactive)
REMARK    1  A    between atoms: C_2  and  C_3 
REMARK    2  A    between atoms: C_3  and  N_4 
REMARK    3  A    between atoms: C_3  and  C_18 
REMARK    4  A    between atoms: N_4  and  C_7 
REMARK    5  A    between atoms: C_7  and  C_8 
ROOT
HETATM    1  N   UNL     1      26.866  45.902  54.829  1.00  0.00    -0.056 N 
HETATM    2  H   UNL     1      26.293  45.061  54.694  1.00  0.00     0.278 HD
HETATM    3  H   UNL     1      26.733  46.135  55.820  1.00  0.00     0.278 HD
ENDROOT
BRANCH   1   4
HETATM    4  C   UNL     1      28.309  45.521  54.639  1.00  0.00     0.292 C 
BRANCH   4   5
HETATM    5  C   UNL     1      28.480  44.117  54.087  1.00  0.00    -0.020 A 
HETATM    6  C   UNL     1      29.611  43.814  53.307  1.00  0.00     0.011 A 
HETATM    7  C   UNL     1      29.785  42.537  52.764  1.00  0.00     0.024 A 
HETATM    8  C   UNL     1      28.833  41.549  52.994  1.00  0.00     0.034 A 
HETATM    9  C   UNL     1      27.707  41.825  53.765  1.00  0.00     0.024 A 
HETATM   10 CL   UNL     1      29.048  39.980  52.326  1.00  0.00    -0.084 Cl
HETATM   11  C   UNL     1      27.528  43.101  54.308  1.00  0.00     0.011 A 
ENDBRANCH   4   5
BRANCH   4  12
HETATM   12  C   UNL     1      29.065  45.556  55.938  1.00  0.00     0.190 A 
HETATM   13  N   UNL     1      30.334  45.153  56.063  1.00  0.00    -0.109 NA
HETATM   14  O   UNL     1      30.621  45.423  57.406  1.00  0.00    -0.205 OA
HETATM   15  C   UNL     1      29.505  45.996  57.930  1.00  0.00     0.288 A 
HETATM   16  N   UNL     1      28.523  46.133  57.069  1.00  0.00    -0.215 NA
ENDBRANCH   4  12
ENDBRANCH   1   4
BRANCH   1  17
HETATM   17  C   UNL     1      26.371  47.010  53.983  1.00  0.00     0.272 C 
BRANCH  17  18
HETATM   18  C   UNL     1      25.895  46.487  52.659  1.00  0.00    -0.030 A 
HETATM   19  C   UNL     1      25.145  45.302  52.593  1.00  0.00     0.048 A 
HETATM   20  C   UNL     1      24.662  44.840  51.368  1.00  0.00     0.102 A 
HETATM   21  C   UNL     1      24.941  45.542  50.195  1.00  0.00     0.102 A 
HETATM   22  O   UNL     1      23.928  43.684  51.398  1.00  0.00    -0.346 OA
HETATM   23  O   UNL     1      24.529  45.128  48.957  1.00  0.00    -0.346 OA
HETATM   24  C   UNL     1      25.664  46.731  50.251  1.00  0.00     0.040 A 
HETATM   25  C   UNL     1      24.140  43.749  48.972  1.00  0.00     0.202 C 
HETATM   26  C   UNL     1      23.237  43.461  50.160  1.00  0.00     0.202 C 
HETATM   27  C   UNL     1      26.140  47.204  51.477  1.00  0.00     0.012 A 
ENDBRANCH  17  18
ENDBRANCH   1  17
TORSDOF 5
ENDMDL
MODEL 5
REMARK VINA RESULT:      -8.3      1.430      2.389
REMARK  5 active torsions:
REMARK  status: ('A' for Active; 'I' for Inactive)
REMARK    1  A    between atoms: C_2  and  C_3 
REMARK    2  A    between atoms: C_3  and  N_4 
REMARK    3  A    between atoms: C_3  and  C_18 
REMARK    4  A    between atoms: N_4  and  C_7 
REMARK    5  A    between atoms: C_7  and  C_8 
ROOT
HETATM    1  N   UNL     1      26.729  44.883  52.266  1.00  0.00    -0.056 N 
HETATM    2  H   UNL     1      27.037  45.837  52.486  1.00  0.00     0.278 HD
HETATM    3  H   UNL     1      25.887  44.756  52.839  1.00  0.00     0.278 HD
ENDROOT
BRANCH   1   4
HETATM    4  C   UNL     1      26.310  44.847  50.822  1.00  0.00     0.292 C 
BRANCH   4   5
HETATM    5  C   UNL     1      25.881  46.207  50.299  1.00  0.00    -0.020 A 
HETATM    6  C   UNL     1      24.518  46.556  50.318  1.00  0.00     0.011 A 
HETATM    7  C   UNL     1      24.088  47.791  49.821  1.00  0.00     0.024 A 
HETATM    8  C   UNL     1      25.014  48.689  49.299  1.00  0.00     0.034 A 
HETATM    9  C   UNL     1      26.368  48.366  49.272  1.00  0.00     0.024 A 
HETATM   10 CL   UNL     1      24.485  50.205  48.688  1.00  0.00    -0.084 Cl
HETATM   11  C   UNL     1      26.801  47.133  49.767  1.00  0.00     0.011 A 
ENDBRANCH   4   5
BRANCH   4  12
HETATM   12  C   UNL     1      25.138  43.928  50.609  1.00  0.00     0.190 A 
HETATM   13  N   UNL     1      24.260  43.619  51.569  1.00  0.00    -0.109 NA
HETATM   14  O   UNL     1      23.337  42.805  50.904  1.00  0.00    -0.205 OA
HETATM   15  C   UNL     1      23.740  42.748  49.607  1.00  0.00     0.288 A 
HETATM   16  N   UNL     1      24.826  43.444  49.356  1.00  0.00    -0.215 NA
ENDBRANCH   4  12
ENDBRANCH   1   4
BRANCH   1  17
HETATM   17  C   UNL     1      27.759  43.899  52.667  1.00  0.00     0.272 C 
BRANCH  17  18
HETATM   18  C   UNL     1      28.469  44.357  53.907  1.00  0.00    -0.030 A 
HETATM   19  C   UNL     1      29.405  43.521  54.537  1.00  0.00     0.048 A 
HETATM   20  C   UNL     1      30.100  43.965  55.663  1.00  0.00     0.102 A 
HETATM   21  C   UNL     1      29.853  45.234  56.185  1.00  0.00     0.102 A 
HETATM   22  O   UNL     1      31.004  43.089  56.205  1.00  0.00    -0.346 OA
HETATM   23  O   UNL     1      30.472  45.719  57.305  1.00  0.00    -0.346 OA
HETATM   24  C   UNL     1      28.944  46.080  55.555  1.00  0.00     0.040 A 
HETATM   25  C   UNL     1      31.077  44.663  58.064  1.00  0.00     0.202 C 
HETATM   26  C   UNL     1      31.866  43.736  57.153  1.00  0.00     0.202 C 
HETATM   27  C   UNL     1      28.254  45.646  54.420  1.00  0.00     0.012 A 
ENDBRANCH  17  18
ENDBRANCH   1  17
TORSDOF 5
ENDMDL
MODEL 6
REMARK VINA RESULT:      -8.3      4.348      7.566
REMARK  5 active torsions:
REMARK  status: ('A' for Active; 'I' for Inactive)
REMARK    1  A    between atoms: C_2  and  C_3 
REMARK    2  A    between atoms: C_3  and  N_4 
REMARK    3  A    between atoms: C_3  and  C_18 
REMARK    4  A    between atoms: N_4  and  C_7 
REMARK    5  A    between atoms: C_7  and  C_8 
ROOT
HETATM    1  N   UNL     1      26.919  42.982  52.723  1.00  0.00    -0.056 N 
HETATM    2  H   UNL     1      27.541  42.200  52.957  1.00  0.00     0.278 HD
HETATM    3  H   UNL     1      26.175  42.926  53.428  1.00  0.00     0.278 HD
ENDROOT
BRANCH   1   4
HETATM    4  C   UNL     1      27.671  44.264  52.952  1.00  0.00     0.292 C 
BRANCH   4   5
HETATM    5  C   UNL     1      28.761  44.129  54.001  1.00  0.00    -0.020 A 
HETATM    6  C   UNL     1      29.517  42.944  54.064  1.00  0.00     0.011 A 
HETATM    7  C   UNL     1      30.511  42.780  55.033  1.00  0.00     0.024 A 
HETATM    8  C   UNL     1      30.761  43.795  55.951  1.00  0.00     0.034 A 
HETATM    9  C   UNL     1      30.027  44.978  55.906  1.00  0.00     0.024 A 
HETATM   10 CL   UNL     1      31.982  43.592  57.142  1.00  0.00    -0.084 Cl
HETATM   11  C   UNL     1      29.031  45.146  54.939  1.00  0.00     0.011 A 
ENDBRANCH   4   5
BRANCH   4  12
HETATM   12  C   UNL     1      26.760  45.360  53.434  1.00  0.00     0.190 A 
HETATM   13  N   UNL     1      26.033  45.276  54.554  1.00  0.00    -0.109 NA
HETATM   14  O   UNL     1      25.409  46.526  54.621  1.00  0.00    -0.205 OA
HETATM   15  C   UNL     1      25.861  47.239  53.555  1.00  0.00     0.288 A 
HETATM   16  N   UNL     1      26.719  46.587  52.804  1.00  0.00    -0.215 NA
ENDBRANCH   4  12
ENDBRANCH   1   4
BRANCH   1  17
HETATM   17  C   UNL     1      26.342  42.801  51.372  1.00  0.00     0.272 C 
BRANCH  17  18
HETATM   18  C   UNL     1      27.104  41.755  50.612  1.00  0.00    -0.030 A 
HETATM   19  C   UNL     1      27.913  40.832  51.294  1.00  0.00     0.048 A 
HETATM   20  C   UNL     1      28.585  39.830  50.592  1.00  0.00     0.102 A 
HETATM   21  C   UNL     1      28.475  39.752  49.204  1.00  0.00     0.102 A 
HETATM   22  O   UNL     1      29.340  38.964  51.339  1.00  0.00    -0.346 OA
HETATM   23  O   UNL     1      29.133  38.817  48.451  1.00  0.00    -0.346 OA
HETATM   24  C   UNL     1      27.658  40.648  48.519  1.00  0.00     0.040 A 
HETATM   25  C   UNL     1      30.204  38.214  49.188  1.00  0.00     0.202 C 
HETATM   26  C   UNL     1      29.737  37.814  50.578  1.00  0.00     0.202 C 
HETATM   27  C   UNL     1      26.973  41.646  49.218  1.00  0.00     0.012 A 
ENDBRANCH  17  18
ENDBRANCH   1  17
TORSDOF 5
ENDMDL
MODEL 7
REMARK VINA RESULT:      -8.2      2.112      3.044
REMARK  5 active torsions:
REMARK  status: ('A' for Active; 'I' for Inactive)
REMARK    1  A    between atoms: C_2  and  C_3 
REMARK    2  A    between atoms: C_3  and  N_4 
REMARK    3  A    between atoms: C_3  and  C_18 
REMARK    4  A    between atoms: N_4  and  C_7 
REMARK    5  A    between atoms: C_7  and  C_8 
ROOT
HETATM    1  N   UNL     1      25.680  45.341  51.463  1.00  0.00    -0.056 N 
HETATM    2  H   UNL     1      25.238  44.572  50.946  1.00  0.00     0.278 HD
HETATM    3  H   UNL     1      26.685  45.184  51.328  1.00  0.00     0.278 HD
ENDROOT
BRANCH   1   4
HETATM    4  C   UNL     1      25.323  46.631  50.777  1.00  0.00     0.292 C 
BRANCH   4   5
HETATM    5  C   UNL     1      24.184  46.476  49.784  1.00  0.00    -0.020 A 
HETATM    6  C   UNL     1      23.471  47.615  49.367  1.00  0.00     0.011 A 
HETATM    7  C   UNL     1      22.402  47.502  48.472  1.00  0.00     0.024 A 
HETATM    8  C   UNL     1      22.032  46.252  47.985  1.00  0.00     0.034 A 
HETATM    9  C   UNL     1      22.725  45.112  48.383  1.00  0.00     0.024 A 
HETATM   10 CL   UNL     1      20.719  46.114  46.887  1.00  0.00    -0.084 Cl
HETATM   11  C   UNL     1      23.793  45.220  49.278  1.00  0.00     0.011 A 
ENDBRANCH   4   5
BRANCH   4  12
HETATM   12  C   UNL     1      26.485  47.183  49.999  1.00  0.00     0.190 A 
HETATM   13  N   UNL     1      27.324  46.422  49.288  1.00  0.00    -0.109 NA
HETATM   14  O   UNL     1      28.183  47.359  48.703  1.00  0.00    -0.205 OA
HETATM   15  C   UNL     1      27.740  48.584  49.094  1.00  0.00     0.288 A 
HETATM   16  N   UNL     1      26.679  48.543  49.868  1.00  0.00    -0.215 NA
ENDBRANCH   4  12
ENDBRANCH   1   4
BRANCH   1  17
HETATM   17  C   UNL     1      25.348  45.258  52.902  1.00  0.00     0.272 C 
BRANCH  17  18
HETATM   18  C   UNL     1      26.584  45.429  53.737  1.00  0.00    -0.030 A 
HETATM   19  C   UNL     1      27.434  44.338  53.975  1.00  0.00     0.048 A 
HETATM   20  C   UNL     1      28.608  44.506  54.712  1.00  0.00     0.102 A 
HETATM   21  C   UNL     1      28.933  45.757  55.236  1.00  0.00     0.102 A 
HETATM   22  O   UNL     1      29.385  43.391  54.883  1.00  0.00    -0.346 OA
HETATM   23  O   UNL     1      30.049  45.985  55.995  1.00  0.00    -0.346 OA
HETATM   24  C   UNL     1      28.109  46.851  54.987  1.00  0.00     0.040 A 
HETATM   25  C   UNL     1      30.600  44.759  56.493  1.00  0.00     0.202 C 
HETATM   26  C   UNL     1      30.689  43.725  55.382  1.00  0.00     0.202 C 
HETATM   27  C   UNL     1      26.939  46.691  54.240  1.00  0.00     0.012 A 
ENDBRANCH  17  18
ENDBRANCH   1  17
TORSDOF 5
ENDMDL
MODEL 8
REMARK VINA RESULT:      -8.1      3.753      7.717
REMARK  5 active torsions:
REMARK  status: ('A' for Active; 'I' for Inactive)
REMARK    1  A    between atoms: C_2  and  C_3 
REMARK    2  A    between atoms: C_3  and  N_4 
REMARK    3  A    between atoms: C_3  and  C_18 
REMARK    4  A    between atoms: N_4  and  C_7 
REMARK    5  A    between atoms: C_7  and  C_8 
ROOT
HETATM    1  N   UNL     1      27.663  43.427  52.079  1.00  0.00    -0.056 N 
HETATM    2  H   UNL     1      28.420  42.762  52.277  1.00  0.00     0.278 HD
HETATM    3  H   UNL     1      26.808  42.870  52.191  1.00  0.00     0.278 HD
ENDROOT
BRANCH   1   4
HETATM    4  C   UNL     1      27.669  44.477  53.156  1.00  0.00     0.292 C 
BRANCH   4   5
HETATM    5  C   UNL     1      28.797  44.291  54.155  1.00  0.00    -0.020 A 
HETATM    6  C   UNL     1      29.611  43.146  54.073  1.00  0.00     0.011 A 
HETATM    7  C   UNL     1      30.643  42.934  54.993  1.00  0.00     0.024 A 
HETATM    8  C   UNL     1      30.873  43.861  56.005  1.00  0.00     0.034 A 
HETATM    9  C   UNL     1      30.081  45.002  56.104  1.00  0.00     0.024 A 
HETATM   10 CL   UNL     1      32.140  43.599  57.135  1.00  0.00    -0.084 Cl
HETATM   11  C   UNL     1      29.048  45.217  55.188  1.00  0.00     0.011 A 
ENDBRANCH   4   5
BRANCH   4  12
HETATM   12  C   UNL     1      26.395  44.455  53.955  1.00  0.00     0.190 A 
HETATM   13  N   UNL     1      25.375  45.293  53.740  1.00  0.00    -0.109 NA
HETATM   14  O   UNL     1      24.414  44.864  54.661  1.00  0.00    -0.205 OA
HETATM   15  C   UNL     1      24.945  43.789  55.301  1.00  0.00     0.288 A 
HETATM   16  N   UNL     1      26.151  43.469  54.889  1.00  0.00    -0.215 NA
ENDBRANCH   4  12
ENDBRANCH   1   4
BRANCH   1  17
HETATM   17  C   UNL     1      27.759  43.924  50.689  1.00  0.00     0.272 C 
BRANCH  17  18
HETATM   18  C   UNL     1      26.577  44.787  50.357  1.00  0.00    -0.030 A 
HETATM   19  C   UNL     1      26.750  46.157  50.102  1.00  0.00     0.048 A 
HETATM   20  C   UNL     1      25.658  46.951  49.747  1.00  0.00     0.102 A 
HETATM   21  C   UNL     1      24.382  46.394  49.666  1.00  0.00     0.102 A 
HETATM   22  O   UNL     1      25.920  48.274  49.502  1.00  0.00    -0.346 OA
HETATM   23  O   UNL     1      23.264  47.121  49.359  1.00  0.00    -0.346 OA
HETATM   24  C   UNL     1      24.202  45.032  49.895  1.00  0.00     0.040 A 
HETATM   25  C   UNL     1      23.497  48.526  49.515  1.00  0.00     0.202 C 
HETATM   26  C   UNL     1      24.812  48.925  48.864  1.00  0.00     0.202 C 
HETATM   27  C   UNL     1      25.294  44.229  50.238  1.00  0.00     0.012 A 
ENDBRANCH  17  18
ENDBRANCH   1  17
TORSDOF 5
ENDMDL
MODEL 9
REMARK VINA RESULT:      -8.1      3.703      5.321
REMARK  5 active torsions:
REMARK  status: ('A' for Active; 'I' for Inactive)
REMARK    1  A    between atoms: C_2  and  C_3 
REMARK    2  A    between atoms: C_3  and  N_4 
REMARK    3  A    between atoms: C_3  and  C_18 
REMARK    4  A    between atoms: N_4  and  C_7 
REMARK    5  A    between atoms: C_7  and  C_8 
ROOT
HETATM    1  N   UNL     1      22.714  47.564  49.564  1.00  0.00    -0.056 N 
HETATM    2  H   UNL     1      22.372  47.323  50.502  1.00  0.00     0.278 HD
HETATM    3  H   UNL     1      21.942  47.298  48.943  1.00  0.00     0.278 HD
ENDROOT
BRANCH   1   4
HETATM    4  C   UNL     1      22.865  49.059  49.492  1.00  0.00     0.292 C 
BRANCH   4   5
HETATM    5  C   UNL     1      21.676  49.741  48.840  1.00  0.00    -0.020 A 
HETATM    6  C   UNL     1      20.897  49.031  47.907  1.00  0.00     0.011 A 
HETATM    7  C   UNL     1      19.810  49.640  47.271  1.00  0.00     0.024 A 
HETATM    8  C   UNL     1      19.489  50.962  47.558  1.00  0.00     0.034 A 
HETATM    9  C   UNL     1      20.244  51.683  48.480  1.00  0.00     0.024 A 
HETATM   10 CL   UNL     1      18.154  51.709  46.776  1.00  0.00    -0.084 Cl
HETATM   11  C   UNL     1      21.332  51.080  49.116  1.00  0.00     0.011 A 
ENDBRANCH   4   5
BRANCH   4  12
HETATM   12  C   UNL     1      24.069  49.454  48.682  1.00  0.00     0.190 A 
HETATM   13  N   UNL     1      23.998  49.887  47.419  1.00  0.00    -0.109 NA
HETATM   14  O   UNL     1      25.330  50.184  47.111  1.00  0.00    -0.205 OA
HETATM   15  C   UNL     1      26.050  49.935  48.236  1.00  0.00     0.288 A 
HETATM   16  N   UNL     1      25.326  49.512  49.248  1.00  0.00    -0.215 NA
ENDBRANCH   4  12
ENDBRANCH   1   4
BRANCH   1  17
HETATM   17  C   UNL     1      23.920  46.774  49.232  1.00  0.00     0.272 C 
BRANCH  17  18
HETATM   18  C   UNL     1      24.506  46.163  50.471  1.00  0.00    -0.030 A 
HETATM   19  C   UNL     1      25.215  46.959  51.386  1.00  0.00     0.048 A 
HETATM   20  C   UNL     1      25.720  46.402  52.561  1.00  0.00     0.102 A 
HETATM   21  C   UNL     1      25.543  45.044  52.826  1.00  0.00     0.102 A 
HETATM   22  O   UNL     1      26.385  47.254  53.403  1.00  0.00    -0.346 OA
HETATM   23  O   UNL     1      26.042  44.426  53.941  1.00  0.00    -0.346 OA
HETATM   24  C   UNL     1      24.823  44.250  51.937  1.00  0.00     0.040 A 
HETATM   25  C   UNL     1      27.055  45.222  54.569  1.00  0.00     0.202 C 
HETATM   26  C   UNL     1      26.597  46.666  54.695  1.00  0.00     0.202 C 
HETATM   27  C   UNL     1      24.305  44.805  50.764  1.00  0.00     0.012 A 
ENDBRANCH  17  18
ENDBRANCH   1  17
TORSDOF 5
ENDMDL
MODEL 10
REMARK VINA RESULT:      -8.0      2.310      3.398
REMARK  5 active torsions:
REMARK  status: ('A' for Active; 'I' for Inactive)
REMARK    1  A    between atoms: C_2  and  C_3 
REMARK    2  A    between atoms: C_3  and  N_4 
REMARK    3  A    between atoms: C_3  and  C_18 
REMARK    4  A    between atoms: N_4  and  C_7 
REMARK    5  A    between atoms: C_7  and  C_8 
ROOT
HETATM    1  N   UNL     1      28.009  42.566  52.357  1.00  0.00    -0.056 N 
HETATM    2  H   UNL     1      27.385  43.146  52.930  1.00  0.00     0.278 HD
HETATM    3  H   UNL     1      27.689  41.607  52.536  1.00  0.00     0.278 HD
ENDROOT
BRANCH   1   4
HETATM    4  C   UNL     1      27.740  42.876  50.911  1.00  0.00     0.292 C 
BRANCH   4   5
HETATM    5  C   UNL     1      26.860  44.099  50.724  1.00  0.00    -0.020 A 
HETATM    6  C   UNL     1      25.616  44.163  51.380  1.00  0.00     0.011 A 
HETATM    7  C   UNL     1      24.773  45.265  51.208  1.00  0.00     0.024 A 
HETATM    8  C   UNL     1      25.159  46.315  50.381  1.00  0.00     0.034 A 
HETATM    9  C   UNL     1      26.386  46.274  49.724  1.00  0.00     0.024 A 
HETATM   10 CL   UNL     1      24.122  47.667  50.171  1.00  0.00    -0.084 Cl
HETATM   11  C   UNL     1      27.232  45.174  49.891  1.00  0.00     0.011 A 
ENDBRANCH   4   5
BRANCH   4  12
HETATM   12  C   UNL     1      27.030  41.742  50.225  1.00  0.00     0.190 A 
HETATM   13  N   UNL     1      26.835  41.685  48.903  1.00  0.00    -0.109 NA
HETATM   14  O   UNL     1      26.203  40.450  48.729  1.00  0.00    -0.205 OA
HETATM   15  C   UNL     1      26.125  39.880  49.960  1.00  0.00     0.288 A 
HETATM   16  N   UNL     1      26.644  40.613  50.919  1.00  0.00    -0.215 NA
ENDBRANCH   4  12
ENDBRANCH   1   4
BRANCH   1  17
HETATM   17  C   UNL     1      29.413  42.715  52.802  1.00  0.00     0.272 C 
BRANCH  17  18
HETATM   18  C   UNL     1      29.486  43.581  54.026  1.00  0.00    -0.030 A 
HETATM   19  C   UNL     1      30.375  43.264  55.066  1.00  0.00     0.048 A 
HETATM   20  C   UNL     1      30.478  44.093  56.184  1.00  0.00     0.102 A 
HETATM   21  C   UNL     1      29.680  45.233  56.286  1.00  0.00     0.102 A 
HETATM   22  O   UNL     1      31.380  43.716  57.142  1.00  0.00    -0.346 OA
HETATM   23  O   UNL     1      29.704  46.070  57.369  1.00  0.00    -0.346 OA
HETATM   24  C   UNL     1      28.811  45.569  55.252  1.00  0.00     0.040 A 
HETATM   25  C   UNL     1      30.327  45.445  58.498  1.00  0.00     0.202 C 
HETATM   26  C   UNL     1      31.625  44.770  58.085  1.00  0.00     0.202 C 
HETATM   27  C   UNL     1      28.713  44.749  54.125  1.00  0.00     0.012 A 
ENDBRANCH  17  18
ENDBRANCH   1  17
TORSDOF 5
ENDMDL
