MODEL 1
REMARK VINA RESULT:      -8.8      0.000      0.000
REMARK  9 active torsions:
REMARK  status: ('A' for Active; 'I' for Inactive)
REMARK    1  A    between atoms: C_2  and  N_3 
REMARK    2  A    between atoms: C_4  and  S_5 
REMARK    3  A    between atoms: S_5  and  C_6 
REMARK    4  A    between atoms: C_6  and  C_7 
REMARK       I    between atoms: C_7  and  N_8 
REMARK    5  A    between atoms: N_8  and  C_9 
REMARK    6  A    between atoms: C_9  and  C_10 
REMARK    7  A    between atoms: C_10  and  O_11 
REMARK    8  A    between atoms: O_11  and  C_12 
REMARK    9  A    between atoms: C_22  and  C_23 
ROOT
HETATM    1  C   UNL     1      24.778  47.057  50.795  1.00  0.00     0.185 C 
ENDROOT
BRANCH   1   2
HETATM    2  S   UNL     1      23.806  47.022  49.262  1.00  0.00    -0.081 SA
BRANCH   2   3
HETATM    3  C   UNL     1      23.069  48.584  49.362  1.00  0.00     0.192 A 
HETATM    4  N   UNL     1      21.733  48.829  49.181  1.00  0.00    -0.308 N 
HETATM    5  C   UNL     1      21.594  50.202  49.281  1.00  0.00     0.164 A 
HETATM    6  N   UNL     1      22.785  50.721  49.526  1.00  0.00    -0.128 NA
HETATM    7  N   UNL     1      23.703  49.707  49.592  1.00  0.00    -0.122 NA
BRANCH   4   8
HETATM    8  C   UNL     1      20.710  47.869  48.821  1.00  0.00     0.128 C 
HETATM    9  C   UNL     1      20.626  47.626  47.322  1.00  0.00     0.027 C 
ENDBRANCH   4   8
BRANCH   5  10
HETATM   10  C   UNL     1      20.378  50.984  49.069  1.00  0.00     0.012 A 
HETATM   11  C   UNL     1      19.598  51.344  50.177  1.00  0.00     0.015 A 
HETATM   12  C   UNL     1      18.424  52.084  50.014  1.00  0.00     0.001 A 
HETATM   13  C   UNL     1      18.013  52.463  48.739  1.00  0.00     0.000 A 
HETATM   14  C   UNL     1      18.767  52.092  47.627  1.00  0.00     0.001 A 
HETATM   15  C   UNL     1      19.941  51.350  47.791  1.00  0.00     0.015 A 
ENDBRANCH   5  10
ENDBRANCH   2   3
ENDBRANCH   1   2
BRANCH   1  16
HETATM   16  C   UNL     1      25.817  45.952  50.778  1.00  0.00     0.227 C 
HETATM   17  N   UNL     1      25.568  44.914  51.654  1.00  0.00    -0.358 N 
HETATM   18  H   UNL     1      24.766  44.968  52.271  1.00  0.00     0.162 HD
HETATM   19  O   UNL     1      26.805  45.981  50.048  1.00  0.00    -0.273 OA
BRANCH  17  20
HETATM   20  C   UNL     1      26.548  43.873  51.903  1.00  0.00     0.149 C 
BRANCH  20  21
HETATM   21  C   UNL     1      27.009  43.764  53.358  1.00  0.00     0.195 C 
BRANCH  21  22
HETATM   22  O   UNL     1      28.431  43.613  53.347  1.00  0.00    -0.350 OA
BRANCH  22  23
HETATM   23  C   UNL     1      29.121  44.091  54.426  1.00  0.00     0.069 A 
HETATM   24  C   UNL     1      30.166  43.440  55.087  1.00  0.00     0.043 A 
HETATM   25  C   UNL     1      30.800  44.046  56.185  1.00  0.00    -0.059 A 
HETATM   26  C   UNL     1      31.918  43.353  56.907  1.00  0.00     0.048 C 
HETATM   27  C   UNL     1      30.366  45.303  56.622  1.00  0.00     0.007 A 
HETATM   28  C   UNL     1      29.320  45.951  55.968  1.00  0.00     0.003 A 
HETATM   29  C   UNL     1      28.701  45.344  54.876  1.00  0.00     0.037 A 
ENDBRANCH  22  23
ENDBRANCH  21  22
ENDBRANCH  20  21
ENDBRANCH  17  20
ENDBRANCH   1  16
TORSDOF 9
ENDMDL
MODEL 2
REMARK VINA RESULT:      -8.6      2.360     11.157
REMARK  9 active torsions:
REMARK  status: ('A' for Active; 'I' for Inactive)
REMARK    1  A    between atoms: C_2  and  N_3 
REMARK    2  A    between atoms: C_4  and  S_5 
REMARK    3  A    between atoms: S_5  and  C_6 
REMARK    4  A    between atoms: C_6  and  C_7 
REMARK       I    between atoms: C_7  and  N_8 
REMARK    5  A    between atoms: N_8  and  C_9 
REMARK    6  A    between atoms: C_9  and  C_10 
REMARK    7  A    between atoms: C_10  and  O_11 
REMARK    8  A    between atoms: O_11  and  C_12 
REMARK    9  A    between atoms: C_22  and  C_23 
ROOT
HETATM    1  C   UNL     1      27.249  44.419  50.767  1.00  0.00     0.185 C 
ENDROOT
BRANCH   1   2
HETATM    2  S   UNL     1      26.195  44.224  52.232  1.00  0.00    -0.081 SA
BRANCH   2   3
HETATM    3  C   UNL     1      27.241  44.917  53.423  1.00  0.00     0.192 A 
HETATM    4  N   UNL     1      28.189  44.222  54.128  1.00  0.00    -0.308 N 
HETATM    5  C   UNL     1      28.739  45.139  55.007  1.00  0.00     0.164 A 
HETATM    6  N   UNL     1      28.152  46.307  54.807  1.00  0.00    -0.128 NA
HETATM    7  N   UNL     1      27.227  46.170  53.806  1.00  0.00    -0.122 NA
BRANCH   4   8
HETATM    8  C   UNL     1      28.457  42.801  54.064  1.00  0.00     0.128 C 
HETATM    9  C   UNL     1      29.478  42.436  52.997  1.00  0.00     0.027 C 
ENDBRANCH   4   8
BRANCH   5  10
HETATM   10  C   UNL     1      29.730  44.878  56.048  1.00  0.00     0.012 A 
HETATM   11  C   UNL     1      29.707  45.649  57.219  1.00  0.00     0.015 A 
HETATM   12  C   UNL     1      30.642  45.435  58.233  1.00  0.00     0.001 A 
HETATM   13  C   UNL     1      31.618  44.452  58.083  1.00  0.00     0.000 A 
HETATM   14  C   UNL     1      31.665  43.693  56.915  1.00  0.00     0.001 A 
HETATM   15  C   UNL     1      30.729  43.909  55.899  1.00  0.00     0.015 A 
ENDBRANCH   5  10
ENDBRANCH   2   3
ENDBRANCH   1   2
BRANCH   1  16
HETATM   16  C   UNL     1      27.035  45.789  50.150  1.00  0.00     0.227 C 
HETATM   17  N   UNL     1      26.104  46.574  50.800  1.00  0.00    -0.358 N 
HETATM   18  H   UNL     1      25.599  46.192  51.590  1.00  0.00     0.162 HD
HETATM   19  O   UNL     1      27.637  46.166  49.147  1.00  0.00    -0.273 OA
BRANCH  17  20
HETATM   20  C   UNL     1      25.641  47.831  50.240  1.00  0.00     0.149 C 
BRANCH  20  21
HETATM   21  C   UNL     1      24.207  47.804  49.710  1.00  0.00     0.195 C 
BRANCH  21  22
HETATM   22  O   UNL     1      23.817  49.156  49.456  1.00  0.00    -0.350 OA
BRANCH  22  23
HETATM   23  C   UNL     1      22.522  49.376  49.076  1.00  0.00     0.069 A 
HETATM   24  C   UNL     1      21.876  50.614  49.035  1.00  0.00     0.043 A 
HETATM   25  C   UNL     1      20.538  50.705  48.618  1.00  0.00    -0.059 A 
HETATM   26  C   UNL     1      19.833  52.029  48.578  1.00  0.00     0.048 C 
HETATM   27  C   UNL     1      19.850  49.541  48.255  1.00  0.00     0.007 A 
HETATM   28  C   UNL     1      20.490  48.305  48.302  1.00  0.00     0.003 A 
HETATM   29  C   UNL     1      21.820  48.226  48.712  1.00  0.00     0.037 A 
ENDBRANCH  22  23
ENDBRANCH  21  22
ENDBRANCH  20  21
ENDBRANCH  17  20
ENDBRANCH   1  16
TORSDOF 9
ENDMDL
MODEL 3
REMARK VINA RESULT:      -8.3      2.289     11.708
REMARK  9 active torsions:
REMARK  status: ('A' for Active; 'I' for Inactive)
REMARK    1  A    between atoms: C_2  and  N_3 
REMARK    2  A    between atoms: C_4  and  S_5 
REMARK    3  A    between atoms: S_5  and  C_6 
REMARK    4  A    between atoms: C_6  and  C_7 
REMARK       I    between atoms: C_7  and  N_8 
REMARK    5  A    between atoms: N_8  and  C_9 
REMARK    6  A    between atoms: C_9  and  C_10 
REMARK    7  A    between atoms: C_10  and  O_11 
REMARK    8  A    between atoms: O_11  and  C_12 
REMARK    9  A    between atoms: C_22  and  C_23 
ROOT
HETATM    1  C   UNL     1      25.674  46.908  51.333  1.00  0.00     0.185 C 
ENDROOT
BRANCH   1   2
HETATM    2  S   UNL     1      25.462  45.542  52.511  1.00  0.00    -0.081 SA
BRANCH   2   3
HETATM    3  C   UNL     1      26.710  45.949  53.638  1.00  0.00     0.192 A 
HETATM    4  N   UNL     1      27.594  45.054  54.181  1.00  0.00    -0.308 N 
HETATM    5  C   UNL     1      28.361  45.787  55.069  1.00  0.00     0.164 A 
HETATM    6  N   UNL     1      27.954  47.044  55.027  1.00  0.00    -0.128 NA
HETATM    7  N   UNL     1      26.933  47.147  54.120  1.00  0.00    -0.122 NA
BRANCH   4   8
HETATM    8  C   UNL     1      27.622  43.621  53.974  1.00  0.00     0.128 C 
HETATM    9  C   UNL     1      28.319  43.221  52.683  1.00  0.00     0.027 C 
ENDBRANCH   4   8
BRANCH   5  10
HETATM   10  C   UNL     1      29.388  45.278  55.976  1.00  0.00     0.012 A 
HETATM   11  C   UNL     1      29.528  45.863  57.243  1.00  0.00     0.015 A 
HETATM   12  C   UNL     1      30.502  45.410  58.134  1.00  0.00     0.001 A 
HETATM   13  C   UNL     1      31.355  44.372  57.764  1.00  0.00     0.000 A 
HETATM   14  C   UNL     1      31.240  43.797  56.500  1.00  0.00     0.001 A 
HETATM   15  C   UNL     1      30.266  44.252  55.607  1.00  0.00     0.015 A 
ENDBRANCH   5  10
ENDBRANCH   2   3
ENDBRANCH   1   2
BRANCH   1  16
HETATM   16  C   UNL     1      24.539  46.907  50.326  1.00  0.00     0.227 C 
HETATM   17  N   UNL     1      23.966  48.144  50.102  1.00  0.00    -0.358 N 
HETATM   18  H   UNL     1      24.286  48.942  50.636  1.00  0.00     0.162 HD
HETATM   19  O   UNL     1      24.155  45.886  49.760  1.00  0.00    -0.273 OA
BRANCH  17  20
HETATM   20  C   UNL     1      22.754  48.293  49.317  1.00  0.00     0.149 C 
BRANCH  20  21
HETATM   21  C   UNL     1      22.127  49.687  49.369  1.00  0.00     0.195 C 
BRANCH  21  22
HETATM   22  O   UNL     1      20.768  49.531  49.787  1.00  0.00    -0.350 OA
BRANCH  22  23
HETATM   23  C   UNL     1      19.885  50.512  49.430  1.00  0.00     0.069 A 
HETATM   24  C   UNL     1      18.573  50.644  49.891  1.00  0.00     0.043 A 
HETATM   25  C   UNL     1      17.767  51.706  49.448  1.00  0.00    -0.059 A 
HETATM   26  C   UNL     1      16.353  51.852  49.930  1.00  0.00     0.048 C 
HETATM   27  C   UNL     1      18.285  52.625  48.528  1.00  0.00     0.007 A 
HETATM   28  C   UNL     1      19.591  52.492  48.062  1.00  0.00     0.003 A 
HETATM   29  C   UNL     1      20.385  51.438  48.512  1.00  0.00     0.037 A 
ENDBRANCH  22  23
ENDBRANCH  21  22
ENDBRANCH  20  21
ENDBRANCH  17  20
ENDBRANCH   1  16
TORSDOF 9
ENDMDL
MODEL 4
REMARK VINA RESULT:      -8.3      2.039     11.529
REMARK  9 active torsions:
REMARK  status: ('A' for Active; 'I' for Inactive)
REMARK    1  A    between atoms: C_2  and  N_3 
REMARK    2  A    between atoms: C_4  and  S_5 
REMARK    3  A    between atoms: S_5  and  C_6 
REMARK    4  A    between atoms: C_6  and  C_7 
REMARK       I    between atoms: C_7  and  N_8 
REMARK    5  A    between atoms: N_8  and  C_9 
REMARK    6  A    between atoms: C_9  and  C_10 
REMARK    7  A    between atoms: C_10  and  O_11 
REMARK    8  A    between atoms: O_11  and  C_12 
REMARK    9  A    between atoms: C_22  and  C_23 
ROOT
HETATM    1  C   UNL     1      25.667  45.816  49.944  1.00  0.00     0.185 C 
ENDROOT
BRANCH   1   2
HETATM    2  S   UNL     1      25.066  44.925  51.407  1.00  0.00    -0.081 SA
BRANCH   2   3
HETATM    3  C   UNL     1      26.582  44.429  52.075  1.00  0.00     0.192 A 
HETATM    4  N   UNL     1      26.999  44.701  53.352  1.00  0.00    -0.308 N 
HETATM    5  C   UNL     1      28.279  44.184  53.439  1.00  0.00     0.164 A 
HETATM    6  N   UNL     1      28.579  43.625  52.279  1.00  0.00    -0.128 NA
HETATM    7  N   UNL     1      27.512  43.765  51.433  1.00  0.00    -0.122 NA
BRANCH   4   8
HETATM    8  C   UNL     1      26.302  45.487  54.349  1.00  0.00     0.128 C 
HETATM    9  C   UNL     1      26.350  46.981  54.067  1.00  0.00     0.027 C 
ENDBRANCH   4   8
BRANCH   5  10
HETATM   10  C   UNL     1      29.201  44.296  54.567  1.00  0.00     0.012 A 
HETATM   11  C   UNL     1      30.040  43.214  54.872  1.00  0.00     0.015 A 
HETATM   12  C   UNL     1      30.929  43.281  55.947  1.00  0.00     0.001 A 
HETATM   13  C   UNL     1      30.981  44.428  56.736  1.00  0.00     0.000 A 
HETATM   14  C   UNL     1      30.137  45.501  56.458  1.00  0.00     0.001 A 
HETATM   15  C   UNL     1      29.246  45.433  55.382  1.00  0.00     0.015 A 
ENDBRANCH   5  10
ENDBRANCH   2   3
ENDBRANCH   1   2
BRANCH   1  16
HETATM   16  C   UNL     1      25.295  47.284  50.039  1.00  0.00     0.227 C 
HETATM   17  N   UNL     1      24.032  47.590  49.572  1.00  0.00    -0.358 N 
HETATM   18  H   UNL     1      23.465  46.858  49.163  1.00  0.00     0.162 HD
HETATM   19  O   UNL     1      26.060  48.135  50.488  1.00  0.00    -0.273 OA
BRANCH  17  20
HETATM   20  C   UNL     1      23.588  48.963  49.415  1.00  0.00     0.149 C 
BRANCH  20  21
HETATM   21  C   UNL     1      22.122  49.117  49.007  1.00  0.00     0.195 C 
BRANCH  21  22
HETATM   22  O   UNL     1      21.877  50.512  48.804  1.00  0.00    -0.350 OA
BRANCH  22  23
HETATM   23  C   UNL     1      20.603  50.885  48.476  1.00  0.00     0.069 A 
HETATM   24  C   UNL     1      19.743  51.652  49.265  1.00  0.00     0.043 A 
HETATM   25  C   UNL     1      18.454  51.972  48.806  1.00  0.00    -0.059 A 
HETATM   26  C   UNL     1      17.519  52.789  49.649  1.00  0.00     0.048 C 
HETATM   27  C   UNL     1      18.033  51.505  47.556  1.00  0.00     0.007 A 
HETATM   28  C   UNL     1      18.887  50.734  46.770  1.00  0.00     0.003 A 
HETATM   29  C   UNL     1      20.166  50.426  47.231  1.00  0.00     0.037 A 
ENDBRANCH  22  23
ENDBRANCH  21  22
ENDBRANCH  20  21
ENDBRANCH  17  20
ENDBRANCH   1  16
TORSDOF 9
ENDMDL
MODEL 5
REMARK VINA RESULT:      -8.2      2.524     11.115
REMARK  9 active torsions:
REMARK  status: ('A' for Active; 'I' for Inactive)
REMARK    1  A    between atoms: C_2  and  N_3 
REMARK    2  A    between atoms: C_4  and  S_5 
REMARK    3  A    between atoms: S_5  and  C_6 
REMARK    4  A    between atoms: C_6  and  C_7 
REMARK       I    between atoms: C_7  and  N_8 
REMARK    5  A    between atoms: N_8  and  C_9 
REMARK    6  A    between atoms: C_9  and  C_10 
REMARK    7  A    between atoms: C_10  and  O_11 
REMARK    8  A    between atoms: O_11  and  C_12 
REMARK    9  A    between atoms: C_22  and  C_23 
ROOT
HETATM    1  C   UNL     1      24.918  45.148  51.737  1.00  0.00     0.185 C 
ENDROOT
BRANCH   1   2
HETATM    2  S   UNL     1      26.268  43.960  51.987  1.00  0.00    -0.081 SA
BRANCH   2   3
HETATM    3  C   UNL     1      27.144  44.789  53.227  1.00  0.00     0.192 A 
HETATM    4  N   UNL     1      28.122  44.224  54.003  1.00  0.00    -0.308 N 
HETATM    5  C   UNL     1      28.500  45.211  54.896  1.00  0.00     0.164 A 
HETATM    6  N   UNL     1      27.790  46.296  54.637  1.00  0.00    -0.128 NA
HETATM    7  N   UNL     1      26.954  46.036  53.583  1.00  0.00    -0.122 NA
BRANCH   4   8
HETATM    8  C   UNL     1      28.564  42.845  53.983  1.00  0.00     0.128 C 
HETATM    9  C   UNL     1      29.585  42.564  52.893  1.00  0.00     0.027 C 
ENDBRANCH   4   8
BRANCH   5  10
HETATM   10  C   UNL     1      29.446  45.085  56.002  1.00  0.00     0.012 A 
HETATM   11  C   UNL     1      30.511  44.179  55.887  1.00  0.00     0.015 A 
HETATM   12  C   UNL     1      31.431  44.025  56.926  1.00  0.00     0.001 A 
HETATM   13  C   UNL     1      31.291  44.768  58.096  1.00  0.00     0.000 A 
HETATM   14  C   UNL     1      30.225  45.655  58.231  1.00  0.00     0.001 A 
HETATM   15  C   UNL     1      29.303  45.809  57.191  1.00  0.00     0.015 A 
ENDBRANCH   5  10
ENDBRANCH   2   3
ENDBRANCH   1   2
BRANCH   1  16
HETATM   16  C   UNL     1      23.910  44.590  50.749  1.00  0.00     0.227 C 
HETATM   17  N   UNL     1      23.531  45.470  49.755  1.00  0.00    -0.358 N 
HETATM   18  H   UNL     1      23.891  46.416  49.767  1.00  0.00     0.162 HD
HETATM   19  O   UNL     1      23.462  43.449  50.831  1.00  0.00    -0.273 OA
BRANCH  17  20
HETATM   20  C   UNL     1      22.442  45.168  48.843  1.00  0.00     0.149 C 
BRANCH  20  21
HETATM   21  C   UNL     1      22.048  46.319  47.916  1.00  0.00     0.195 C 
BRANCH  21  22
HETATM   22  O   UNL     1      21.203  47.200  48.662  1.00  0.00    -0.350 OA
BRANCH  22  23
HETATM   23  C   UNL     1      21.434  48.543  48.541  1.00  0.00     0.069 A 
HETATM   24  C   UNL     1      20.472  49.553  48.622  1.00  0.00     0.043 A 
HETATM   25  C   UNL     1      20.843  50.901  48.487  1.00  0.00    -0.059 A 
HETATM   26  C   UNL     1      19.816  51.993  48.564  1.00  0.00     0.048 C 
HETATM   27  C   UNL     1      22.185  51.225  48.256  1.00  0.00     0.007 A 
HETATM   28  C   UNL     1      23.145  50.220  48.168  1.00  0.00     0.003 A 
HETATM   29  C   UNL     1      22.768  48.885  48.310  1.00  0.00     0.037 A 
ENDBRANCH  22  23
ENDBRANCH  21  22
ENDBRANCH  20  21
ENDBRANCH  17  20
ENDBRANCH   1  16
TORSDOF 9
ENDMDL
MODEL 6
REMARK VINA RESULT:      -8.0      1.595      2.501
REMARK  9 active torsions:
REMARK  status: ('A' for Active; 'I' for Inactive)
REMARK    1  A    between atoms: C_2  and  N_3 
REMARK    2  A    between atoms: C_4  and  S_5 
REMARK    3  A    between atoms: S_5  and  C_6 
REMARK    4  A    between atoms: C_6  and  C_7 
REMARK       I    between atoms: C_7  and  N_8 
REMARK    5  A    between atoms: N_8  and  C_9 
REMARK    6  A    between atoms: C_9  and  C_10 
REMARK    7  A    between atoms: C_10  and  O_11 
REMARK    8  A    between atoms: O_11  and  C_12 
REMARK    9  A    between atoms: C_22  and  C_23 
ROOT
HETATM    1  C   UNL     1      24.713  45.756  49.797  1.00  0.00     0.185 C 
ENDROOT
BRANCH   1   2
HETATM    2  S   UNL     1      24.474  47.552  49.909  1.00  0.00    -0.081 SA
BRANCH   2   3
HETATM    3  C   UNL     1      22.912  47.673  49.176  1.00  0.00     0.192 A 
HETATM    4  N   UNL     1      22.194  48.834  49.055  1.00  0.00    -0.308 N 
HETATM    5  C   UNL     1      20.992  48.464  48.478  1.00  0.00     0.164 A 
HETATM    6  N   UNL     1      21.021  47.161  48.259  1.00  0.00    -0.128 NA
HETATM    7  N   UNL     1      22.228  46.670  48.681  1.00  0.00    -0.122 NA
BRANCH   4   8
HETATM    8  C   UNL     1      22.560  50.143  49.556  1.00  0.00     0.128 C 
HETATM    9  C   UNL     1      23.157  51.042  48.485  1.00  0.00     0.027 C 
ENDBRANCH   4   8
BRANCH   5  10
HETATM   10  C   UNL     1      19.835  49.321  48.224  1.00  0.00     0.012 A 
HETATM   11  C   UNL     1      19.774  50.046  47.025  1.00  0.00     0.015 A 
HETATM   12  C   UNL     1      18.690  50.881  46.750  1.00  0.00     0.001 A 
HETATM   13  C   UNL     1      17.658  51.008  47.677  1.00  0.00     0.000 A 
HETATM   14  C   UNL     1      17.716  50.310  48.882  1.00  0.00     0.001 A 
HETATM   15  C   UNL     1      18.803  49.475  49.157  1.00  0.00     0.015 A 
ENDBRANCH   5  10
ENDBRANCH   2   3
ENDBRANCH   1   2
BRANCH   1  16
HETATM   16  C   UNL     1      24.608  45.130  51.175  1.00  0.00     0.227 C 
HETATM   17  N   UNL     1      25.349  45.763  52.153  1.00  0.00    -0.358 N 
HETATM   18  H   UNL     1      25.938  46.546  51.900  1.00  0.00     0.162 HD
HETATM   19  O   UNL     1      23.924  44.135  51.401  1.00  0.00    -0.273 OA
BRANCH  17  20
HETATM   20  C   UNL     1      25.513  45.190  53.477  1.00  0.00     0.149 C 
BRANCH  20  21
HETATM   21  C   UNL     1      26.651  45.797  54.299  1.00  0.00     0.195 C 
BRANCH  21  22
HETATM   22  O   UNL     1      27.877  45.247  53.807  1.00  0.00    -0.350 OA
BRANCH  22  23
HETATM   23  C   UNL     1      28.840  44.937  54.727  1.00  0.00     0.069 A 
HETATM   24  C   UNL     1      29.147  45.671  55.875  1.00  0.00     0.043 A 
HETATM   25  C   UNL     1      30.160  45.238  56.746  1.00  0.00    -0.059 A 
HETATM   26  C   UNL     1      30.503  46.023  57.978  1.00  0.00     0.048 C 
HETATM   27  C   UNL     1      30.872  44.070  56.447  1.00  0.00     0.007 A 
HETATM   28  C   UNL     1      30.572  43.340  55.299  1.00  0.00     0.003 A 
HETATM   29  C   UNL     1      29.561  43.775  54.444  1.00  0.00     0.037 A 
ENDBRANCH  22  23
ENDBRANCH  21  22
ENDBRANCH  20  21
ENDBRANCH  17  20
ENDBRANCH   1  16
TORSDOF 9
ENDMDL
MODEL 7
REMARK VINA RESULT:      -8.0      3.081     10.581
REMARK  9 active torsions:
REMARK  status: ('A' for Active; 'I' for Inactive)
REMARK    1  A    between atoms: C_2  and  N_3 
REMARK    2  A    between atoms: C_4  and  S_5 
REMARK    3  A    between atoms: S_5  and  C_6 
REMARK    4  A    between atoms: C_6  and  C_7 
REMARK       I    between atoms: C_7  and  N_8 
REMARK    5  A    between atoms: N_8  and  C_9 
REMARK    6  A    between atoms: C_9  and  C_10 
REMARK    7  A    between atoms: C_10  and  O_11 
REMARK    8  A    between atoms: O_11  and  C_12 
REMARK    9  A    between atoms: C_22  and  C_23 
ROOT
HETATM    1  C   UNL     1      22.328  44.137  49.077  1.00  0.00     0.185 C 
ENDROOT
BRANCH   1   2
HETATM    2  S   UNL     1      23.923  44.988  48.908  1.00  0.00    -0.081 SA
BRANCH   2   3
HETATM    3  C   UNL     1      24.422  44.978  50.564  1.00  0.00     0.192 A 
HETATM    4  N   UNL     1      25.543  45.602  51.045  1.00  0.00    -0.308 N 
HETATM    5  C   UNL     1      25.593  45.283  52.391  1.00  0.00     0.164 A 
HETATM    6  N   UNL     1      24.544  44.530  52.676  1.00  0.00    -0.128 NA
HETATM    7  N   UNL     1      23.805  44.353  51.537  1.00  0.00    -0.122 NA
BRANCH   4   8
HETATM    8  C   UNL     1      26.539  46.322  50.278  1.00  0.00     0.128 C 
HETATM    9  C   UNL     1      26.286  47.820  50.235  1.00  0.00     0.027 C 
ENDBRANCH   4   8
BRANCH   5  10
HETATM   10  C   UNL     1      26.651  45.625  53.340  1.00  0.00     0.012 A 
HETATM   11  C   UNL     1      27.589  44.645  53.695  1.00  0.00     0.015 A 
HETATM   12  C   UNL     1      28.609  44.931  54.605  1.00  0.00     0.001 A 
HETATM   13  C   UNL     1      28.696  46.198  55.178  1.00  0.00     0.000 A 
HETATM   14  C   UNL     1      27.756  47.173  54.850  1.00  0.00     0.001 A 
HETATM   15  C   UNL     1      26.734  46.886  53.940  1.00  0.00     0.015 A 
ENDBRANCH   5  10
ENDBRANCH   2   3
ENDBRANCH   1   2
BRANCH   1  16
HETATM   16  C   UNL     1      21.209  45.022  48.560  1.00  0.00     0.227 C 
HETATM   17  N   UNL     1      21.441  46.377  48.687  1.00  0.00    -0.358 N 
HETATM   18  H   UNL     1      22.287  46.694  49.143  1.00  0.00     0.162 HD
HETATM   19  O   UNL     1      20.175  44.568  48.075  1.00  0.00    -0.273 OA
BRANCH  17  20
HETATM   20  C   UNL     1      20.404  47.357  48.419  1.00  0.00     0.149 C 
BRANCH  20  21
HETATM   21  C   UNL     1      19.532  47.709  49.625  1.00  0.00     0.195 C 
BRANCH  21  22
HETATM   22  O   UNL     1      19.947  48.996  50.094  1.00  0.00    -0.350 OA
BRANCH  22  23
HETATM   23  C   UNL     1      19.309  50.089  49.575  1.00  0.00     0.069 A 
HETATM   24  C   UNL     1      17.926  50.283  49.518  1.00  0.00     0.043 A 
HETATM   25  C   UNL     1      17.396  51.459  48.962  1.00  0.00    -0.059 A 
HETATM   26  C   UNL     1      15.913  51.674  48.888  1.00  0.00     0.048 C 
HETATM   27  C   UNL     1      18.264  52.432  48.453  1.00  0.00     0.007 A 
HETATM   28  C   UNL     1      19.643  52.238  48.503  1.00  0.00     0.003 A 
HETATM   29  C   UNL     1      20.160  51.069  49.062  1.00  0.00     0.037 A 
ENDBRANCH  22  23
ENDBRANCH  21  22
ENDBRANCH  20  21
ENDBRANCH  17  20
ENDBRANCH   1  16
TORSDOF 9
ENDMDL
MODEL 8
REMARK VINA RESULT:      -7.9      2.905     10.360
REMARK  9 active torsions:
REMARK  status: ('A' for Active; 'I' for Inactive)
REMARK    1  A    between atoms: C_2  and  N_3 
REMARK    2  A    between atoms: C_4  and  S_5 
REMARK    3  A    between atoms: S_5  and  C_6 
REMARK    4  A    between atoms: C_6  and  C_7 
REMARK       I    between atoms: C_7  and  N_8 
REMARK    5  A    between atoms: N_8  and  C_9 
REMARK    6  A    between atoms: C_9  and  C_10 
REMARK    7  A    between atoms: C_10  and  O_11 
REMARK    8  A    between atoms: O_11  and  C_12 
REMARK    9  A    between atoms: C_22  and  C_23 
ROOT
HETATM    1  C   UNL     1      24.261  43.752  51.190  1.00  0.00     0.185 C 
ENDROOT
BRANCH   1   2
HETATM    2  S   UNL     1      25.137  45.327  51.413  1.00  0.00    -0.081 SA
BRANCH   2   3
HETATM    3  C   UNL     1      26.632  44.728  52.043  1.00  0.00     0.192 A 
HETATM    4  N   UNL     1      27.040  44.863  53.344  1.00  0.00    -0.308 N 
HETATM    5  C   UNL     1      28.306  44.306  53.392  1.00  0.00     0.164 A 
HETATM    6  N   UNL     1      28.606  43.856  52.186  1.00  0.00    -0.128 NA
HETATM    7  N   UNL     1      27.552  44.105  51.348  1.00  0.00    -0.122 NA
BRANCH   4   8
HETATM    8  C   UNL     1      26.352  45.566  54.407  1.00  0.00     0.128 C 
HETATM    9  C   UNL     1      26.435  47.078  54.269  1.00  0.00     0.027 C 
ENDBRANCH   4   8
BRANCH   5  10
HETATM   10  C   UNL     1      29.217  44.284  54.535  1.00  0.00     0.012 A 
HETATM   11  C   UNL     1      29.383  45.449  55.297  1.00  0.00     0.015 A 
HETATM   12  C   UNL     1      30.251  45.469  56.391  1.00  0.00     0.001 A 
HETATM   13  C   UNL     1      30.971  44.326  56.728  1.00  0.00     0.000 A 
HETATM   14  C   UNL     1      30.832  43.168  55.966  1.00  0.00     0.001 A 
HETATM   15  C   UNL     1      29.964  43.148  54.870  1.00  0.00     0.015 A 
ENDBRANCH   5  10
ENDBRANCH   2   3
ENDBRANCH   1   2
BRANCH   1  16
HETATM   16  C   UNL     1      23.457  43.781  49.903  1.00  0.00     0.227 C 
HETATM   17  N   UNL     1      22.582  44.844  49.795  1.00  0.00    -0.358 N 
HETATM   18  H   UNL     1      22.490  45.491  50.568  1.00  0.00     0.162 HD
HETATM   19  O   UNL     1      23.570  42.924  49.030  1.00  0.00    -0.273 OA
BRANCH  17  20
HETATM   20  C   UNL     1      21.606  44.923  48.723  1.00  0.00     0.149 C 
BRANCH  20  21
HETATM   21  C   UNL     1      21.678  46.202  47.887  1.00  0.00     0.195 C 
BRANCH  21  22
HETATM   22  O   UNL     1      21.188  47.273  48.698  1.00  0.00    -0.350 OA
BRANCH  22  23
HETATM   23  C   UNL     1      21.879  48.453  48.665  1.00  0.00     0.069 A 
HETATM   24  C   UNL     1      23.225  48.608  48.326  1.00  0.00     0.043 A 
HETATM   25  C   UNL     1      23.816  49.882  48.325  1.00  0.00    -0.059 A 
HETATM   26  C   UNL     1      25.263  50.059  47.970  1.00  0.00     0.048 C 
HETATM   27  C   UNL     1      23.047  50.997  48.680  1.00  0.00     0.007 A 
HETATM   28  C   UNL     1      21.706  50.844  49.024  1.00  0.00     0.003 A 
HETATM   29  C   UNL     1      21.127  49.576  49.017  1.00  0.00     0.037 A 
ENDBRANCH  22  23
ENDBRANCH  21  22
ENDBRANCH  20  21
ENDBRANCH  17  20
ENDBRANCH   1  16
TORSDOF 9
ENDMDL
MODEL 9
REMARK VINA RESULT:      -7.9      1.909      2.655
REMARK  9 active torsions:
REMARK  status: ('A' for Active; 'I' for Inactive)
REMARK    1  A    between atoms: C_2  and  N_3 
REMARK    2  A    between atoms: C_4  and  S_5 
REMARK    3  A    between atoms: S_5  and  C_6 
REMARK    4  A    between atoms: C_6  and  C_7 
REMARK       I    between atoms: C_7  and  N_8 
REMARK    5  A    between atoms: N_8  and  C_9 
REMARK    6  A    between atoms: C_9  and  C_10 
REMARK    7  A    between atoms: C_10  and  O_11 
REMARK    8  A    between atoms: O_11  and  C_12 
REMARK    9  A    between atoms: C_22  and  C_23 
ROOT
HETATM    1  C   UNL     1      24.919  45.916  51.302  1.00  0.00     0.185 C 
ENDROOT
BRANCH   1   2
HETATM    2  S   UNL     1      25.063  46.393  49.556  1.00  0.00    -0.081 SA
BRANCH   2   3
HETATM    3  C   UNL     1      23.810  47.584  49.487  1.00  0.00     0.192 A 
HETATM    4  N   UNL     1      22.621  47.428  48.824  1.00  0.00    -0.308 N 
HETATM    5  C   UNL     1      21.957  48.633  48.972  1.00  0.00     0.164 A 
HETATM    6  N   UNL     1      22.715  49.437  49.699  1.00  0.00    -0.128 NA
HETATM    7  N   UNL     1      23.866  48.774  50.034  1.00  0.00    -0.122 NA
BRANCH   4   8
HETATM    8  C   UNL     1      22.211  46.295  48.021  1.00  0.00     0.128 C 
HETATM    9  C   UNL     1      21.383  45.285  48.799  1.00  0.00     0.027 C 
ENDBRANCH   4   8
BRANCH   5  10
HETATM   10  C   UNL     1      20.683  49.018  48.369  1.00  0.00     0.012 A 
HETATM   11  C   UNL     1      20.669  50.017  47.384  1.00  0.00     0.015 A 
HETATM   12  C   UNL     1      19.470  50.417  46.791  1.00  0.00     0.001 A 
HETATM   13  C   UNL     1      18.270  49.830  47.183  1.00  0.00     0.000 A 
HETATM   14  C   UNL     1      18.267  48.852  48.176  1.00  0.00     0.001 A 
HETATM   15  C   UNL     1      19.467  48.452  48.771  1.00  0.00     0.015 A 
ENDBRANCH   5  10
ENDBRANCH   2   3
ENDBRANCH   1   2
BRANCH   1  16
HETATM   16  C   UNL     1      25.763  46.835  52.164  1.00  0.00     0.227 C 
HETATM   17  N   UNL     1      25.667  46.601  53.522  1.00  0.00    -0.358 N 
HETATM   18  H   UNL     1      25.028  45.892  53.858  1.00  0.00     0.162 HD
HETATM   19  O   UNL     1      26.471  47.722  51.692  1.00  0.00    -0.273 OA
BRANCH  17  20
HETATM   20  C   UNL     1      26.257  47.502  54.495  1.00  0.00     0.149 C 
BRANCH  20  21
HETATM   21  C   UNL     1      27.767  47.343  54.681  1.00  0.00     0.195 C 
BRANCH  21  22
HETATM   22  O   UNL     1      27.972  46.372  55.711  1.00  0.00    -0.350 OA
BRANCH  22  23
HETATM   23  C   UNL     1      28.843  45.351  55.448  1.00  0.00     0.069 A 
HETATM   24  C   UNL     1      28.753  44.447  54.387  1.00  0.00     0.043 A 
HETATM   25  C   UNL     1      29.722  43.443  54.224  1.00  0.00    -0.059 A 
HETATM   26  C   UNL     1      29.630  42.461  53.093  1.00  0.00     0.048 C 
HETATM   27  C   UNL     1      30.774  43.347  55.143  1.00  0.00     0.007 A 
HETATM   28  C   UNL     1      30.863  44.244  56.205  1.00  0.00     0.003 A 
HETATM   29  C   UNL     1      29.900  45.240  56.355  1.00  0.00     0.037 A 
ENDBRANCH  22  23
ENDBRANCH  21  22
ENDBRANCH  20  21
ENDBRANCH  17  20
ENDBRANCH   1  16
TORSDOF 9
ENDMDL
MODEL 10
REMARK VINA RESULT:      -7.9      2.131     11.167
REMARK  9 active torsions:
REMARK  status: ('A' for Active; 'I' for Inactive)
REMARK    1  A    between atoms: C_2  and  N_3 
REMARK    2  A    between atoms: C_4  and  S_5 
REMARK    3  A    between atoms: S_5  and  C_6 
REMARK    4  A    between atoms: C_6  and  C_7 
REMARK       I    between atoms: C_7  and  N_8 
REMARK    5  A    between atoms: N_8  and  C_9 
REMARK    6  A    between atoms: C_9  and  C_10 
REMARK    7  A    between atoms: C_10  and  O_11 
REMARK    8  A    between atoms: O_11  and  C_12 
REMARK    9  A    between atoms: C_22  and  C_23 
ROOT
HETATM    1  C   UNL     1      24.097  44.650  50.959  1.00  0.00     0.185 C 
ENDROOT
BRANCH   1   2
HETATM    2  S   UNL     1      25.531  43.537  50.968  1.00  0.00    -0.081 SA
BRANCH   2   3
HETATM    3  C   UNL     1      26.251  44.020  52.465  1.00  0.00     0.192 A 
HETATM    4  N   UNL     1      27.579  43.880  52.774  1.00  0.00    -0.308 N 
HETATM    5  C   UNL     1      27.703  44.328  54.077  1.00  0.00     0.164 A 
HETATM    6  N   UNL     1      26.512  44.724  54.493  1.00  0.00    -0.128 NA
HETATM    7  N   UNL     1      25.609  44.546  53.479  1.00  0.00    -0.122 NA
BRANCH   4   8
HETATM    8  C   UNL     1      28.604  43.262  51.958  1.00  0.00     0.128 C 
HETATM    9  C   UNL     1      28.562  41.743  52.002  1.00  0.00     0.027 C 
ENDBRANCH   4   8
BRANCH   5  10
HETATM   10  C   UNL     1      28.904  44.298  54.910  1.00  0.00     0.012 A 
HETATM   11  C   UNL     1      29.243  45.436  55.656  1.00  0.00     0.015 A 
HETATM   12  C   UNL     1      30.387  45.449  56.457  1.00  0.00     0.001 A 
HETATM   13  C   UNL     1      31.210  44.326  56.512  1.00  0.00     0.000 A 
HETATM   14  C   UNL     1      30.896  43.197  55.758  1.00  0.00     0.001 A 
HETATM   15  C   UNL     1      29.751  43.185  54.955  1.00  0.00     0.015 A 
ENDBRANCH   5  10
ENDBRANCH   2   3
ENDBRANCH   1   2
BRANCH   1  16
HETATM   16  C   UNL     1      24.275  45.720  49.898  1.00  0.00     0.227 C 
HETATM   17  N   UNL     1      23.161  46.506  49.681  1.00  0.00    -0.358 N 
HETATM   18  H   UNL     1      22.306  46.304  50.184  1.00  0.00     0.162 HD
HETATM   19  O   UNL     1      25.324  45.869  49.276  1.00  0.00    -0.273 OA
BRANCH  17  20
HETATM   20  C   UNL     1      23.094  47.447  48.578  1.00  0.00     0.149 C 
BRANCH  20  21
HETATM   21  C   UNL     1      23.629  48.844  48.897  1.00  0.00     0.195 C 
BRANCH  21  22
HETATM   22  O   UNL     1      23.050  49.751  47.954  1.00  0.00    -0.350 OA
BRANCH  22  23
HETATM   23  C   UNL     1      21.831  50.286  48.265  1.00  0.00     0.069 A 
HETATM   24  C   UNL     1      20.759  50.456  47.385  1.00  0.00     0.043 A 
HETATM   25  C   UNL     1      19.551  51.016  47.834  1.00  0.00    -0.059 A 
HETATM   26  C   UNL     1      18.397  51.209  46.895  1.00  0.00     0.048 C 
HETATM   27  C   UNL     1      19.435  51.417  49.170  1.00  0.00     0.007 A 
HETATM   28  C   UNL     1      20.504  51.255  50.048  1.00  0.00     0.003 A 
HETATM   29  C   UNL     1      21.696  50.693  49.594  1.00  0.00     0.037 A 
ENDBRANCH  22  23
ENDBRANCH  21  22
ENDBRANCH  20  21
ENDBRANCH  17  20
ENDBRANCH   1  16
TORSDOF 9
ENDMDL
