MODEL 1
REMARK VINA RESULT:      -7.9      0.000      0.000
REMARK  5 active torsions:
REMARK  status: ('A' for Active; 'I' for Inactive)
REMARK    1  A    between atoms: C_2  and  C_3 
REMARK    2  A    between atoms: C_3  and  N_4 
REMARK       I    between atoms: N_4  and  C_5 
REMARK    3  A    between atoms: C_5  and  C_6 
REMARK    4  A    between atoms: C_10  and  N_11 
REMARK       I    between atoms: N_11  and  C_12 
REMARK       I    between atoms: C_12  and  N_13 
REMARK    5  A    between atoms: N_13  and  C_14 
ROOT
HETATM    1  C   UNL     1      26.875  44.903  53.431  1.00  0.00     0.053 A 
HETATM    2  C   UNL     1      26.677  46.262  53.704  1.00  0.00     0.051 A 
HETATM    3 CL   UNL     1      27.464  47.097  55.001  1.00  0.00    -0.083 Cl
HETATM    4  C   UNL     1      25.841  47.033  52.880  1.00  0.00     0.054 A 
HETATM    5  C   UNL     1      25.196  46.464  51.779  1.00  0.00     0.038 A 
HETATM    6  C   UNL     1      25.403  45.111  51.500  1.00  0.00     0.030 A 
HETATM    7  C   UNL     1      26.236  44.339  52.315  1.00  0.00     0.021 A 
ENDROOT
BRANCH   5   8
HETATM    8  N   UNL     1      24.378  47.188  50.890  1.00  0.00    -0.309 N 
HETATM    9  C   UNL     1      24.762  47.846  49.752  1.00  0.00     0.325 C 
HETATM   10  N   UNL     1      23.755  48.307  48.947  1.00  0.00    -0.306 N 
HETATM   11  O   UNL     1      25.922  48.094  49.431  1.00  0.00    -0.247 OA
HETATM   12  H   UNL     1      24.087  48.934  48.224  1.00  0.00     0.171 HD
HETATM   13  H   UNL     1      23.453  47.424  51.221  1.00  0.00     0.170 HD
BRANCH  10  14
HETATM   14  C   UNL     1      22.429  47.928  48.875  1.00  0.00     0.072 A 
HETATM   15  C   UNL     1      21.783  46.769  48.389  1.00  0.00     0.169 A 
HETATM   16  N   UNL     1      20.455  46.827  48.524  1.00  0.00    -0.185 NA
HETATM   17  N   UNL     1      20.244  48.043  49.051  1.00  0.00    -0.287 N 
HETATM   18  H   UNL     1      19.287  48.329  49.232  1.00  0.00     0.188 HD
HETATM   19  C   UNL     1      21.394  48.745  49.270  1.00  0.00     0.140 A 
ENDBRANCH  10  14
ENDBRANCH   5   8
BRANCH   1  20
HETATM   20  C   UNL     1      27.762  43.992  54.207  1.00  0.00     0.253 C 
HETATM   21  N   UNL     1      29.076  44.369  54.372  1.00  0.00    -0.356 N 
HETATM   22  H   UNL     1      29.419  45.128  53.796  1.00  0.00     0.162 HD
HETATM   23  O   UNL     1      27.288  42.969  54.694  1.00  0.00    -0.268 OA
BRANCH  21  24
HETATM   24  C   UNL     1      30.052  43.452  54.931  1.00  0.00     0.126 C 
BRANCH  24  25
HETATM   25  C   UNL     1      31.024  44.134  55.904  1.00  0.00    -0.005 C 
HETATM   26  C   UNL     1      31.467  43.198  57.030  1.00  0.00     0.011 C 
HETATM   27  C   UNL     1      30.368  45.381  56.499  1.00  0.00     0.011 C 
ENDBRANCH  24  25
ENDBRANCH  21  24
ENDBRANCH   1  20
TORSDOF 5
ENDMDL
MODEL 2
REMARK VINA RESULT:      -7.9      1.358      1.697
REMARK  5 active torsions:
REMARK  status: ('A' for Active; 'I' for Inactive)
REMARK    1  A    between atoms: C_2  and  C_3 
REMARK    2  A    between atoms: C_3  and  N_4 
REMARK       I    between atoms: N_4  and  C_5 
REMARK    3  A    between atoms: C_5  and  C_6 
REMARK    4  A    between atoms: C_10  and  N_11 
REMARK       I    between atoms: N_11  and  C_12 
REMARK       I    between atoms: C_12  and  N_13 
REMARK    5  A    between atoms: N_13  and  C_14 
ROOT
HETATM    1  C   UNL     1      27.190  44.716  53.086  1.00  0.00     0.053 A 
HETATM    2  C   UNL     1      26.823  44.364  51.782  1.00  0.00     0.051 A 
HETATM    3 CL   UNL     1      27.180  42.823  51.076  1.00  0.00    -0.083 Cl
HETATM    4  C   UNL     1      26.086  45.259  50.989  1.00  0.00     0.054 A 
HETATM    5  C   UNL     1      25.707  46.509  51.483  1.00  0.00     0.038 A 
HETATM    6  C   UNL     1      26.064  46.857  52.787  1.00  0.00     0.030 A 
HETATM    7  C   UNL     1      26.795  45.969  53.582  1.00  0.00     0.021 A 
ENDROOT
BRANCH   5   8
HETATM    8  N   UNL     1      24.934  47.437  50.756  1.00  0.00    -0.309 N 
HETATM    9  C   UNL     1      25.308  48.144  49.644  1.00  0.00     0.325 C 
HETATM   10  N   UNL     1      24.315  48.832  48.999  1.00  0.00    -0.306 N 
HETATM   11  O   UNL     1      26.457  48.247  49.221  1.00  0.00    -0.247 OA
HETATM   12  H   UNL     1      24.673  49.474  48.302  1.00  0.00     0.171 HD
HETATM   13  H   UNL     1      24.095  47.773  51.206  1.00  0.00     0.170 HD
BRANCH  10  14
HETATM   14  C   UNL     1      22.945  48.665  49.042  1.00  0.00     0.072 A 
HETATM   15  C   UNL     1      22.084  47.645  48.579  1.00  0.00     0.169 A 
HETATM   16  N   UNL     1      20.799  47.900  48.842  1.00  0.00    -0.185 NA
HETATM   17  N   UNL     1      20.831  49.106  49.431  1.00  0.00    -0.287 N 
HETATM   18  H   UNL     1      19.950  49.527  49.713  1.00  0.00     0.188 HD
HETATM   19  C   UNL     1      22.092  49.611  49.564  1.00  0.00     0.140 A 
ENDBRANCH  10  14
ENDBRANCH   5   8
BRANCH   1  20
HETATM   20  C   UNL     1      27.938  43.843  54.033  1.00  0.00     0.253 C 
HETATM   21  N   UNL     1      29.236  44.193  54.333  1.00  0.00    -0.356 N 
HETATM   22  H   UNL     1      29.677  44.894  53.750  1.00  0.00     0.162 HD
HETATM   23  O   UNL     1      27.368  42.877  54.532  1.00  0.00    -0.268 OA
BRANCH  21  24
HETATM   24  C   UNL     1      30.099  43.295  55.077  1.00  0.00     0.126 C 
BRANCH  24  25
HETATM   25  C   UNL     1      31.080  44.034  55.997  1.00  0.00    -0.005 C 
HETATM   26  C   UNL     1      31.523  43.174  57.182  1.00  0.00     0.011 C 
HETATM   27  C   UNL     1      30.436  45.324  56.509  1.00  0.00     0.011 C 
ENDBRANCH  24  25
ENDBRANCH  21  24
ENDBRANCH   1  20
TORSDOF 5
ENDMDL
MODEL 3
REMARK VINA RESULT:      -7.8      3.186      8.979
REMARK  5 active torsions:
REMARK  status: ('A' for Active; 'I' for Inactive)
REMARK    1  A    between atoms: C_2  and  C_3 
REMARK    2  A    between atoms: C_3  and  N_4 
REMARK       I    between atoms: N_4  and  C_5 
REMARK    3  A    between atoms: C_5  and  C_6 
REMARK    4  A    between atoms: C_10  and  N_11 
REMARK       I    between atoms: N_11  and  C_12 
REMARK       I    between atoms: C_12  and  N_13 
REMARK    5  A    between atoms: N_13  and  C_14 
ROOT
HETATM    1  C   UNL     1      24.665  48.668  49.023  1.00  0.00     0.053 A 
HETATM    2  C   UNL     1      26.052  48.617  49.210  1.00  0.00     0.051 A 
HETATM    3 CL   UNL     1      27.121  49.900  48.754  1.00  0.00    -0.083 Cl
HETATM    4  C   UNL     1      26.640  47.507  49.837  1.00  0.00     0.054 A 
HETATM    5  C   UNL     1      25.857  46.439  50.284  1.00  0.00     0.038 A 
HETATM    6  C   UNL     1      24.473  46.494  50.108  1.00  0.00     0.030 A 
HETATM    7  C   UNL     1      23.882  47.598  49.487  1.00  0.00     0.021 A 
ENDROOT
BRANCH   5   8
HETATM    8  N   UNL     1      26.377  45.315  50.957  1.00  0.00    -0.309 N 
HETATM    9  C   UNL     1      26.905  44.181  50.399  1.00  0.00     0.325 C 
HETATM   10  N   UNL     1      27.530  43.315  51.258  1.00  0.00    -0.306 N 
HETATM   11  O   UNL     1      26.816  43.862  49.216  1.00  0.00    -0.247 OA
HETATM   12  H   UNL     1      27.738  42.421  50.830  1.00  0.00     0.171 HD
HETATM   13  H   UNL     1      26.160  45.239  51.940  1.00  0.00     0.170 HD
BRANCH  10  14
HETATM   14  C   UNL     1      28.045  43.532  52.521  1.00  0.00     0.072 A 
HETATM   15  C   UNL     1      27.455  43.883  53.755  1.00  0.00     0.169 A 
HETATM   16  N   UNL     1      28.350  43.987  54.741  1.00  0.00    -0.185 NA
HETATM   17  N   UNL     1      29.522  43.751  54.130  1.00  0.00    -0.287 N 
HETATM   18  H   UNL     1      30.371  43.793  54.685  1.00  0.00     0.188 HD
HETATM   19  C   UNL     1      29.393  43.485  52.798  1.00  0.00     0.140 A 
ENDBRANCH  10  14
ENDBRANCH   5   8
BRANCH   1  20
HETATM   20  C   UNL     1      23.923  49.802  48.405  1.00  0.00     0.253 C 
HETATM   21  N   UNL     1      22.948  50.414  49.161  1.00  0.00    -0.356 N 
HETATM   22  H   UNL     1      22.647  49.941  50.005  1.00  0.00     0.162 HD
HETATM   23  O   UNL     1      24.227  50.169  47.273  1.00  0.00    -0.268 OA
BRANCH  21  24
HETATM   24  C   UNL     1      22.042  51.382  48.571  1.00  0.00     0.126 C 
BRANCH  24  25
HETATM   25  C   UNL     1      20.566  51.001  48.743  1.00  0.00    -0.005 C 
HETATM   26  C   UNL     1      19.630  52.187  48.506  1.00  0.00     0.011 C 
HETATM   27  C   UNL     1      20.338  50.438  50.147  1.00  0.00     0.011 C 
ENDBRANCH  24  25
ENDBRANCH  21  24
ENDBRANCH   1  20
TORSDOF 5
ENDMDL
MODEL 4
REMARK VINA RESULT:      -7.6      1.871      2.314
REMARK  5 active torsions:
REMARK  status: ('A' for Active; 'I' for Inactive)
REMARK    1  A    between atoms: C_2  and  C_3 
REMARK    2  A    between atoms: C_3  and  N_4 
REMARK       I    between atoms: N_4  and  C_5 
REMARK    3  A    between atoms: C_5  and  C_6 
REMARK    4  A    between atoms: C_10  and  N_11 
REMARK       I    between atoms: N_11  and  C_12 
REMARK       I    between atoms: C_12  and  N_13 
REMARK    5  A    between atoms: N_13  and  C_14 
ROOT
HETATM    1  C   UNL     1      27.055  43.932  52.646  1.00  0.00     0.053 A 
HETATM    2  C   UNL     1      25.817  44.435  53.063  1.00  0.00     0.051 A 
HETATM    3 CL   UNL     1      25.160  44.160  54.641  1.00  0.00    -0.083 Cl
HETATM    4  C   UNL     1      25.059  45.247  52.203  1.00  0.00     0.054 A 
HETATM    5  C   UNL     1      25.524  45.567  50.925  1.00  0.00     0.038 A 
HETATM    6  C   UNL     1      26.764  45.074  50.514  1.00  0.00     0.030 A 
HETATM    7  C   UNL     1      27.524  44.268  51.366  1.00  0.00     0.021 A 
ENDROOT
BRANCH   5   8
HETATM    8  N   UNL     1      24.834  46.408  50.029  1.00  0.00    -0.309 N 
HETATM    9  C   UNL     1      23.706  46.113  49.311  1.00  0.00     0.325 C 
HETATM   10  N   UNL     1      23.107  47.161  48.662  1.00  0.00    -0.306 N 
HETATM   11  O   UNL     1      23.229  44.991  49.164  1.00  0.00    -0.247 OA
HETATM   12  H   UNL     1      22.394  46.861  48.009  1.00  0.00     0.171 HD
HETATM   13  H   UNL     1      25.323  47.237  49.724  1.00  0.00     0.170 HD
BRANCH  10  14
HETATM   14  C   UNL     1      23.214  48.520  48.881  1.00  0.00     0.072 A 
HETATM   15  C   UNL     1      22.404  49.452  49.568  1.00  0.00     0.169 A 
HETATM   16  N   UNL     1      22.901  50.691  49.529  1.00  0.00    -0.185 NA
HETATM   17  N   UNL     1      24.005  50.565  48.775  1.00  0.00    -0.287 N 
HETATM   18  H   UNL     1      24.555  51.397  48.584  1.00  0.00     0.188 HD
HETATM   19  C   UNL     1      24.229  49.286  48.354  1.00  0.00     0.140 A 
ENDBRANCH  10  14
ENDBRANCH   5   8
BRANCH   1  20
HETATM   20  C   UNL     1      27.964  43.092  53.476  1.00  0.00     0.253 C 
HETATM   21  N   UNL     1      28.859  43.741  54.298  1.00  0.00    -0.356 N 
HETATM   22  H   UNL     1      28.994  44.734  54.147  1.00  0.00     0.162 HD
HETATM   23  O   UNL     1      27.860  41.870  53.426  1.00  0.00    -0.268 OA
BRANCH  21  24
HETATM   24  C   UNL     1      29.912  43.012  54.979  1.00  0.00     0.126 C 
BRANCH  24  25
HETATM   25  C   UNL     1      30.887  43.931  55.727  1.00  0.00    -0.005 C 
HETATM   26  C   UNL     1      31.497  43.252  56.955  1.00  0.00     0.011 C 
HETATM   27  C   UNL     1      30.167  45.212  56.152  1.00  0.00     0.011 C 
ENDBRANCH  24  25
ENDBRANCH  21  24
ENDBRANCH   1  20
TORSDOF 5
ENDMDL
MODEL 5
REMARK VINA RESULT:      -7.6      3.603      8.796
REMARK  5 active torsions:
REMARK  status: ('A' for Active; 'I' for Inactive)
REMARK    1  A    between atoms: C_2  and  C_3 
REMARK    2  A    between atoms: C_3  and  N_4 
REMARK       I    between atoms: N_4  and  C_5 
REMARK    3  A    between atoms: C_5  and  C_6 
REMARK    4  A    between atoms: C_10  and  N_11 
REMARK       I    between atoms: N_11  and  C_12 
REMARK       I    between atoms: C_12  and  N_13 
REMARK    5  A    between atoms: N_13  and  C_14 
ROOT
HETATM    1  C   UNL     1      24.610  48.424  49.096  1.00  0.00     0.053 A 
HETATM    2  C   UNL     1      25.985  48.317  49.332  1.00  0.00     0.051 A 
HETATM    3 CL   UNL     1      27.113  49.584  48.982  1.00  0.00    -0.083 Cl
HETATM    4  C   UNL     1      26.512  47.158  49.925  1.00  0.00     0.054 A 
HETATM    5  C   UNL     1      25.679  46.097  50.288  1.00  0.00     0.038 A 
HETATM    6  C   UNL     1      24.305  46.208  50.062  1.00  0.00     0.030 A 
HETATM    7  C   UNL     1      23.775  47.361  49.475  1.00  0.00     0.021 A 
ENDROOT
BRANCH   5   8
HETATM    8  N   UNL     1      26.135  44.924  50.922  1.00  0.00    -0.309 N 
HETATM    9  C   UNL     1      25.526  44.234  51.936  1.00  0.00     0.325 C 
HETATM   10  N   UNL     1      26.063  43.013  52.249  1.00  0.00    -0.306 N 
HETATM   11  O   UNL     1      24.583  44.644  52.609  1.00  0.00    -0.247 OA
HETATM   12  H   UNL     1      25.694  42.632  53.112  1.00  0.00     0.171 HD
HETATM   13  H   UNL     1      27.100  44.673  50.763  1.00  0.00     0.170 HD
BRANCH  10  14
HETATM   14  C   UNL     1      26.877  42.183  51.505  1.00  0.00     0.072 A 
HETATM   15  C   UNL     1      26.723  41.556  50.248  1.00  0.00     0.169 A 
HETATM   16  N   UNL     1      27.788  40.827  49.904  1.00  0.00    -0.185 NA
HETATM   17  N   UNL     1      28.606  40.945  50.961  1.00  0.00    -0.287 N 
HETATM   18  H   UNL     1      29.494  40.452  50.941  1.00  0.00     0.188 HD
HETATM   19  C   UNL     1      28.101  41.738  51.950  1.00  0.00     0.140 A 
ENDBRANCH  10  14
ENDBRANCH   5   8
BRANCH   1  20
HETATM   20  C   UNL     1      23.930  49.612  48.508  1.00  0.00     0.253 C 
HETATM   21  N   UNL     1      23.026  50.286  49.299  1.00  0.00    -0.356 N 
HETATM   22  H   UNL     1      22.721  49.830  50.150  1.00  0.00     0.162 HD
HETATM   23  O   UNL     1      24.221  49.964  47.368  1.00  0.00    -0.268 OA
BRANCH  21  24
HETATM   24  C   UNL     1      22.172  51.319  48.744  1.00  0.00     0.126 C 
BRANCH  24  25
HETATM   25  C   UNL     1      20.714  50.868  48.585  1.00  0.00    -0.005 C 
HETATM   26  C   UNL     1      19.745  52.050  48.522  1.00  0.00     0.011 C 
HETATM   27  C   UNL     1      20.329  49.947  49.744  1.00  0.00     0.011 C 
ENDBRANCH  24  25
ENDBRANCH  21  24
ENDBRANCH   1  20
TORSDOF 5
ENDMDL
MODEL 6
REMARK VINA RESULT:      -7.4      2.902      3.821
REMARK  5 active torsions:
REMARK  status: ('A' for Active; 'I' for Inactive)
REMARK    1  A    between atoms: C_2  and  C_3 
REMARK    2  A    between atoms: C_3  and  N_4 
REMARK       I    between atoms: N_4  and  C_5 
REMARK    3  A    between atoms: C_5  and  C_6 
REMARK    4  A    between atoms: C_10  and  N_11 
REMARK       I    between atoms: N_11  and  C_12 
REMARK       I    between atoms: C_12  and  N_13 
REMARK    5  A    between atoms: N_13  and  C_14 
ROOT
HETATM    1  C   UNL     1      25.784  45.189  50.087  1.00  0.00     0.053 A 
HETATM    2  C   UNL     1      24.604  44.864  49.407  1.00  0.00     0.051 A 
HETATM    3 CL   UNL     1      24.258  43.277  48.806  1.00  0.00    -0.083 Cl
HETATM    4  C   UNL     1      23.605  45.834  49.223  1.00  0.00     0.054 A 
HETATM    5  C   UNL     1      23.768  47.132  49.713  1.00  0.00     0.038 A 
HETATM    6  C   UNL     1      24.940  47.454  50.401  1.00  0.00     0.030 A 
HETATM    7  C   UNL     1      25.936  46.492  50.589  1.00  0.00     0.021 A 
ENDROOT
BRANCH   5   8
HETATM    8  N   UNL     1      22.790  48.140  49.599  1.00  0.00    -0.309 N 
HETATM    9  C   UNL     1      22.562  48.963  48.528  1.00  0.00     0.325 C 
HETATM   10  N   UNL     1      21.425  49.726  48.578  1.00  0.00    -0.306 N 
HETATM   11  O   UNL     1      23.314  49.104  47.567  1.00  0.00    -0.247 OA
HETATM   12  H   UNL     1      21.399  50.439  47.858  1.00  0.00     0.171 HD
HETATM   13  H   UNL     1      22.342  48.431  50.456  1.00  0.00     0.170 HD
BRANCH  10  14
HETATM   14  C   UNL     1      20.279  49.566  49.332  1.00  0.00     0.072 A 
HETATM   15  C   UNL     1      19.727  50.290  50.412  1.00  0.00     0.169 A 
HETATM   16  N   UNL     1      18.575  49.770  50.843  1.00  0.00    -0.185 NA
HETATM   17  N   UNL     1      18.412  48.682  50.073  1.00  0.00    -0.287 N 
HETATM   18  H   UNL     1      17.595  48.099  50.230  1.00  0.00     0.188 HD
HETATM   19  C   UNL     1      19.411  48.511  49.160  1.00  0.00     0.140 A 
ENDBRANCH  10  14
ENDBRANCH   5   8
BRANCH   1  20
HETATM   20  C   UNL     1      26.898  44.242  50.375  1.00  0.00     0.253 C 
HETATM   21  N   UNL     1      27.336  44.150  51.677  1.00  0.00    -0.356 N 
HETATM   22  H   UNL     1      27.027  44.865  52.325  1.00  0.00     0.162 HD
HETATM   23  O   UNL     1      27.354  43.562  49.460  1.00  0.00    -0.268 OA
BRANCH  21  24
HETATM   24  C   UNL     1      28.542  43.415  52.009  1.00  0.00     0.126 C 
BRANCH  24  25
HETATM   25  C   UNL     1      28.778  43.308  53.522  1.00  0.00    -0.005 C 
HETATM   26  C   UNL     1      28.386  44.588  54.262  1.00  0.00     0.011 C 
HETATM   27  C   UNL     1      30.249  42.987  53.793  1.00  0.00     0.011 C 
ENDBRANCH  24  25
ENDBRANCH  21  24
ENDBRANCH   1  20
TORSDOF 5
ENDMDL
MODEL 7
REMARK VINA RESULT:      -6.9     12.205     12.928
REMARK  5 active torsions:
REMARK  status: ('A' for Active; 'I' for Inactive)
REMARK    1  A    between atoms: C_2  and  C_3 
REMARK    2  A    between atoms: C_3  and  N_4 
REMARK       I    between atoms: N_4  and  C_5 
REMARK    3  A    between atoms: C_5  and  C_6 
REMARK    4  A    between atoms: C_10  and  N_11 
REMARK       I    between atoms: N_11  and  C_12 
REMARK       I    between atoms: C_12  and  N_13 
REMARK    5  A    between atoms: N_13  and  C_14 
ROOT
HETATM    1  C   UNL     1      30.357  50.593  41.766  1.00  0.00     0.053 A 
HETATM    2  C   UNL     1      29.852  51.774  41.209  1.00  0.00     0.051 A 
HETATM    3 CL   UNL     1      30.742  53.258  41.154  1.00  0.00    -0.083 Cl
HETATM    4  C   UNL     1      28.580  51.786  40.612  1.00  0.00     0.054 A 
HETATM    5  C   UNL     1      27.801  50.627  40.563  1.00  0.00     0.038 A 
HETATM    6  C   UNL     1      28.309  49.446  41.108  1.00  0.00     0.030 A 
HETATM    7  C   UNL     1      29.575  49.428  41.702  1.00  0.00     0.021 A 
ENDROOT
BRANCH   5   8
HETATM    8  N   UNL     1      26.537  50.559  39.944  1.00  0.00    -0.309 N 
HETATM    9  C   UNL     1      26.269  50.396  38.611  1.00  0.00     0.325 C 
HETATM   10  N   UNL     1      24.962  50.159  38.278  1.00  0.00    -0.306 N 
HETATM   11  O   UNL     1      27.091  50.496  37.703  1.00  0.00    -0.247 OA
HETATM   12  H   UNL     1      24.793  50.226  37.281  1.00  0.00     0.171 HD
HETATM   13  H   UNL     1      25.748  50.863  40.497  1.00  0.00     0.170 HD
BRANCH  10  14
HETATM   14  C   UNL     1      23.917  49.697  39.052  1.00  0.00     0.072 A 
HETATM   15  C   UNL     1      23.641  48.448  39.653  1.00  0.00     0.169 A 
HETATM   16  N   UNL     1      22.490  48.448  40.331  1.00  0.00    -0.185 NA
HETATM   17  N   UNL     1      22.002  49.681  40.125  1.00  0.00    -0.287 N 
HETATM   18  H   UNL     1      21.104  49.918  40.537  1.00  0.00     0.188 HD
HETATM   19  C   UNL     1      22.815  50.463  39.357  1.00  0.00     0.140 A 
ENDBRANCH  10  14
ENDBRANCH   5   8
BRANCH   1  20
HETATM   20  C   UNL     1      31.700  50.446  42.394  1.00  0.00     0.253 C 
HETATM   21  N   UNL     1      32.802  50.579  41.579  1.00  0.00    -0.356 N 
HETATM   22  H   UNL     1      32.647  50.564  40.578  1.00  0.00     0.162 HD
HETATM   23  O   UNL     1      31.776  50.251  43.604  1.00  0.00    -0.268 OA
BRANCH  21  24
HETATM   24  C   UNL     1      34.131  50.249  42.060  1.00  0.00     0.126 C 
BRANCH  24  25
HETATM   25  C   UNL     1      35.003  51.488  42.304  1.00  0.00    -0.005 C 
HETATM   26  C   UNL     1      36.489  51.204  42.077  1.00  0.00     0.011 C 
HETATM   27  C   UNL     1      34.788  51.998  43.730  1.00  0.00     0.011 C 
ENDBRANCH  24  25
ENDBRANCH  21  24
ENDBRANCH   1  20
TORSDOF 5
ENDMDL
MODEL 8
REMARK VINA RESULT:      -6.8      7.094     13.155
REMARK  5 active torsions:
REMARK  status: ('A' for Active; 'I' for Inactive)
REMARK    1  A    between atoms: C_2  and  C_3 
REMARK    2  A    between atoms: C_3  and  N_4 
REMARK       I    between atoms: N_4  and  C_5 
REMARK    3  A    between atoms: C_5  and  C_6 
REMARK    4  A    between atoms: C_10  and  N_11 
REMARK       I    between atoms: N_11  and  C_12 
REMARK       I    between atoms: C_12  and  N_13 
REMARK    5  A    between atoms: N_13  and  C_14 
ROOT
HETATM    1  C   UNL     1      16.479  51.983  49.098  1.00  0.00     0.053 A 
HETATM    2  C   UNL     1      16.625  50.737  48.475  1.00  0.00     0.051 A 
HETATM    3 CL   UNL     1      15.375  49.989  47.538  1.00  0.00    -0.083 Cl
HETATM    4  C   UNL     1      17.847  50.049  48.550  1.00  0.00     0.054 A 
HETATM    5  C   UNL     1      18.933  50.590  49.243  1.00  0.00     0.038 A 
HETATM    6  C   UNL     1      18.791  51.837  49.855  1.00  0.00     0.030 A 
HETATM    7  C   UNL     1      17.578  52.528  49.781  1.00  0.00     0.021 A 
ENDROOT
BRANCH   5   8
HETATM    8  N   UNL     1      20.197  49.972  49.323  1.00  0.00    -0.309 N 
HETATM    9  C   UNL     1      20.465  48.631  49.398  1.00  0.00     0.325 C 
HETATM   10  N   UNL     1      21.778  48.266  49.264  1.00  0.00    -0.306 N 
HETATM   11  O   UNL     1      19.638  47.751  49.624  1.00  0.00    -0.247 OA
HETATM   12  H   UNL     1      21.942  47.295  49.505  1.00  0.00     0.171 HD
HETATM   13  H   UNL     1      20.976  50.571  49.554  1.00  0.00     0.170 HD
BRANCH  10  14
HETATM   14  C   UNL     1      22.841  48.953  48.711  1.00  0.00     0.072 A 
HETATM   15  C   UNL     1      22.941  49.883  47.652  1.00  0.00     0.169 A 
HETATM   16  N   UNL     1      24.193  50.306  47.457  1.00  0.00    -0.185 NA
HETATM   17  N   UNL     1      24.905  49.612  48.358  1.00  0.00    -0.287 N 
HETATM   18  H   UNL     1      25.910  49.753  48.390  1.00  0.00     0.188 HD
HETATM   19  C   UNL     1      24.142  48.780  49.126  1.00  0.00     0.140 A 
ENDBRANCH  10  14
ENDBRANCH   5   8
BRANCH   1  20
HETATM   20  C   UNL     1      15.249  52.823  49.060  1.00  0.00     0.253 C 
HETATM   21  N   UNL     1      15.028  53.578  47.929  1.00  0.00    -0.356 N 
HETATM   22  H   UNL     1      15.798  53.682  47.280  1.00  0.00     0.162 HD
HETATM   23  O   UNL     1      14.471  52.786  50.008  1.00  0.00    -0.268 OA
BRANCH  21  24
HETATM   24  C   UNL     1      13.974  54.574  47.891  1.00  0.00     0.126 C 
BRANCH  24  25
HETATM   25  C   UNL     1      13.586  54.979  46.462  1.00  0.00    -0.005 C 
HETATM   26  C   UNL     1      12.120  54.669  46.150  1.00  0.00     0.011 C 
HETATM   27  C   UNL     1      14.489  54.260  45.459  1.00  0.00     0.011 C 
ENDBRANCH  24  25
ENDBRANCH  21  24
ENDBRANCH   1  20
TORSDOF 5
ENDMDL
MODEL 9
REMARK VINA RESULT:      -6.8     12.311     13.062
REMARK  5 active torsions:
REMARK  status: ('A' for Active; 'I' for Inactive)
REMARK    1  A    between atoms: C_2  and  C_3 
REMARK    2  A    between atoms: C_3  and  N_4 
REMARK       I    between atoms: N_4  and  C_5 
REMARK    3  A    between atoms: C_5  and  C_6 
REMARK    4  A    between atoms: C_10  and  N_11 
REMARK       I    between atoms: N_11  and  C_12 
REMARK       I    between atoms: C_12  and  N_13 
REMARK    5  A    between atoms: N_13  and  C_14 
ROOT
HETATM    1  C   UNL     1      30.115  51.312  41.765  1.00  0.00     0.053 A 
HETATM    2  C   UNL     1      29.582  50.019  41.707  1.00  0.00     0.051 A 
HETATM    3 CL   UNL     1      30.327  48.648  42.458  1.00  0.00    -0.083 Cl
HETATM    4  C   UNL     1      28.359  49.787  41.056  1.00  0.00     0.054 A 
HETATM    5  C   UNL     1      27.655  50.836  40.459  1.00  0.00     0.038 A 
HETATM    6  C   UNL     1      28.181  52.128  40.526  1.00  0.00     0.030 A 
HETATM    7  C   UNL     1      29.396  52.365  41.175  1.00  0.00     0.021 A 
ENDROOT
BRANCH   5   8
HETATM    8  N   UNL     1      26.406  50.680  39.826  1.00  0.00    -0.309 N 
HETATM    9  C   UNL     1      26.169  50.384  38.510  1.00  0.00     0.325 C 
HETATM   10  N   UNL     1      24.874  50.086  38.178  1.00  0.00    -0.306 N 
HETATM   11  O   UNL     1      27.007  50.417  37.612  1.00  0.00    -0.247 OA
HETATM   12  H   UNL     1      24.724  50.054  37.176  1.00  0.00     0.171 HD
HETATM   13  H   UNL     1      25.600  51.016  40.334  1.00  0.00     0.170 HD
BRANCH  10  14
HETATM   14  C   UNL     1      23.824  49.675  38.974  1.00  0.00     0.072 A 
HETATM   15  C   UNL     1      23.570  48.489  39.699  1.00  0.00     0.169 A 
HETATM   16  N   UNL     1      22.402  48.524  40.347  1.00  0.00    -0.185 NA
HETATM   17  N   UNL     1      21.883  49.712  39.999  1.00  0.00    -0.287 N 
HETATM   18  H   UNL     1      20.969  49.963  40.363  1.00  0.00     0.188 HD
HETATM   19  C   UNL     1      22.692  50.434  39.170  1.00  0.00     0.140 A 
ENDBRANCH  10  14
ENDBRANCH   5   8
BRANCH   1  20
HETATM   20  C   UNL     1      31.381  51.689  42.454  1.00  0.00     0.253 C 
HETATM   21  N   UNL     1      32.566  51.336  41.848  1.00  0.00    -0.356 N 
HETATM   22  H   UNL     1      32.519  50.671  41.085  1.00  0.00     0.162 HD
HETATM   23  O   UNL     1      31.324  52.323  43.504  1.00  0.00    -0.268 OA
BRANCH  21  24
HETATM   24  C   UNL     1      33.832  51.478  42.542  1.00  0.00     0.126 C 
BRANCH  24  25
HETATM   25  C   UNL     1      34.877  50.447  42.096  1.00  0.00    -0.005 C 
HETATM   26  C   UNL     1      35.968  51.068  41.222  1.00  0.00     0.011 C 
HETATM   27  C   UNL     1      34.190  49.312  41.334  1.00  0.00     0.011 C 
ENDBRANCH  24  25
ENDBRANCH  21  24
ENDBRANCH   1  20
TORSDOF 5
ENDMDL
MODEL 10
REMARK VINA RESULT:      -6.8     17.221     19.975
REMARK  5 active torsions:
REMARK  status: ('A' for Active; 'I' for Inactive)
REMARK    1  A    between atoms: C_2  and  C_3 
REMARK    2  A    between atoms: C_3  and  N_4 
REMARK       I    between atoms: N_4  and  C_5 
REMARK    3  A    between atoms: C_5  and  C_6 
REMARK    4  A    between atoms: C_10  and  N_11 
REMARK       I    between atoms: N_11  and  C_12 
REMARK       I    between atoms: C_12  and  N_13 
REMARK    5  A    between atoms: N_13  and  C_14 
ROOT
HETATM    1  C   UNL     1      38.056  44.347  63.960  1.00  0.00     0.053 A 
HETATM    2  C   UNL     1      39.440  44.156  63.883  1.00  0.00     0.051 A 
HETATM    3 CL   UNL     1      40.581  45.458  63.836  1.00  0.00    -0.083 Cl
HETATM    4  C   UNL     1      39.975  42.857  63.888  1.00  0.00     0.054 A 
HETATM    5  C   UNL     1      39.142  41.739  63.971  1.00  0.00     0.038 A 
HETATM    6  C   UNL     1      37.761  41.930  64.059  1.00  0.00     0.030 A 
HETATM    7  C   UNL     1      37.223  43.220  64.057  1.00  0.00     0.021 A 
ENDROOT
BRANCH   5   8
HETATM    8  N   UNL     1      39.614  40.412  64.022  1.00  0.00    -0.309 N 
HETATM    9  C   UNL     1      39.825  39.562  62.969  1.00  0.00     0.325 C 
HETATM   10  N   UNL     1      40.479  38.392  63.254  1.00  0.00    -0.306 N 
HETATM   11  O   UNL     1      39.434  39.743  61.819  1.00  0.00    -0.247 OA
HETATM   12  H   UNL     1      40.448  37.730  62.488  1.00  0.00     0.171 HD
HETATM   13  H   UNL     1      39.605  39.966  64.928  1.00  0.00     0.170 HD
BRANCH  10  14
HETATM   14  C   UNL     1      41.282  38.061  64.327  1.00  0.00     0.072 A 
HETATM   15  C   UNL     1      42.605  38.407  64.682  1.00  0.00     0.169 A 
HETATM   16  N   UNL     1      42.990  37.849  65.834  1.00  0.00    -0.185 NA
HETATM   17  N   UNL     1      41.931  37.106  66.193  1.00  0.00    -0.287 N 
HETATM   18  H   UNL     1      41.994  36.562  67.049  1.00  0.00     0.188 HD
HETATM   19  C   UNL     1      40.888  37.191  65.318  1.00  0.00     0.140 A 
ENDBRANCH  10  14
ENDBRANCH   5   8
BRANCH   1  20
HETATM   20  C   UNL     1      37.373  45.671  63.999  1.00  0.00     0.253 C 
HETATM   21  N   UNL     1      38.139  46.775  64.298  1.00  0.00    -0.356 N 
HETATM   22  H   UNL     1      39.066  46.612  64.672  1.00  0.00     0.162 HD
HETATM   23  O   UNL     1      36.176  45.733  63.731  1.00  0.00    -0.268 OA
BRANCH  21  24
HETATM   24  C   UNL     1      37.524  48.063  64.558  1.00  0.00     0.126 C 
BRANCH  24  25
HETATM   25  C   UNL     1      38.391  48.972  65.440  1.00  0.00    -0.005 C 
HETATM   26  C   UNL     1      37.698  50.297  65.763  1.00  0.00     0.011 C 
HETATM   27  C   UNL     1      39.726  49.244  64.745  1.00  0.00     0.011 C 
ENDBRANCH  24  25
ENDBRANCH  21  24
ENDBRANCH   1  20
TORSDOF 5
ENDMDL
