MODEL 1
REMARK VINA RESULT:     -10.4      0.000      0.000
REMARK  7 active torsions:
REMARK  status: ('A' for Active; 'I' for Inactive)
REMARK    1  A    between atoms: C_5  and  N_6 
REMARK       I    between atoms: N_6  and  C_7 
REMARK    2  A    between atoms: C_7  and  C_8 
REMARK    3  A    between atoms: C_8  and  N_9 
REMARK    4  A    between atoms: N_12  and  C_13 
REMARK    5  A    between atoms: C_13  and  C_14 
REMARK    6  A    between atoms: C_29  and  C_30 
REMARK       I    between atoms: C_30  and  N_31 
REMARK    7  A    between atoms: N_31  and  C_32 
ROOT
HETATM    1  N   UNL     1      22.736  46.541  48.607  1.00  0.00    -0.290 N 
HETATM    2  C   UNL     1      22.379  47.628  47.826  1.00  0.00     0.332 C 
HETATM    3  O   UNL     1      21.544  47.501  46.926  1.00  0.00    -0.246 OA
HETATM    4  N   UNL     1      22.996  48.834  48.111  1.00  0.00    -0.261 N 
HETATM    5  C   UNL     1      24.091  48.977  48.948  1.00  0.00     0.264 C 
HETATM    6  O   UNL     1      24.652  50.046  49.174  1.00  0.00    -0.267 OA
HETATM    7  C   UNL     1      24.582  47.757  49.610  1.00  0.00     0.059 A 
HETATM    8  C   UNL     1      23.878  46.563  49.449  1.00  0.00     0.056 A 
HETATM    9  C   UNL     1      25.718  47.827  50.434  1.00  0.00     0.020 A 
HETATM   10  C   UNL     1      26.159  46.692  51.113  1.00  0.00     0.018 A 
HETATM   11  C   UNL     1      25.461  45.491  50.969  1.00  0.00     0.034 A 
HETATM   12  C   UNL     1      24.337  45.426  50.125  1.00  0.00     0.048 A 
ENDROOT
BRANCH   1  13
HETATM   13  C   UNL     1      21.814  45.400  48.629  1.00  0.00     0.237 C 
BRANCH  13  14
HETATM   14  C   UNL     1      22.224  44.194  47.785  1.00  0.00     0.240 C 
HETATM   15  N   UNL     1      22.599  43.091  48.530  1.00  0.00    -0.326 N 
HETATM   16  H   UNL     1      22.508  43.176  49.540  1.00  0.00     0.169 HD
HETATM   17  O   UNL     1      22.303  44.311  46.565  1.00  0.00    -0.271 OA
BRANCH  15  18
HETATM   18  C   UNL     1      23.180  41.897  48.054  1.00  0.00     0.034 A 
HETATM   19  C   UNL     1      22.483  40.920  47.342  1.00  0.00     0.030 A 
HETATM   20  C   UNL     1      23.141  39.781  46.861  1.00  0.00     0.009 A 
HETATM   21  C   UNL     1      24.508  39.601  47.084  1.00  0.00    -0.062 A 
HETATM   22  C   UNL     1      25.199  38.366  46.586  1.00  0.00     0.048 C 
HETATM   23  C   UNL     1      25.202  40.562  47.824  1.00  0.00     0.009 A 
HETATM   24  C   UNL     1      24.546  41.705  48.295  1.00  0.00     0.030 A 
ENDBRANCH  15  18
ENDBRANCH  13  14
ENDBRANCH   1  13
BRANCH   4  25
HETATM   25  C   UNL     1      22.386  50.043  47.569  1.00  0.00     0.175 C 
BRANCH  25  26
HETATM   26  C   UNL     1      21.112  50.368  48.329  1.00  0.00    -0.037 A 
HETATM   27  C   UNL     1      19.869  50.352  47.671  1.00  0.00     0.048 A 
HETATM   28  C   UNL     1      18.758  50.776  48.369  1.00  0.00     0.105 A 
HETATM   29  C   UNL     1      18.838  51.198  49.674  1.00  0.00     0.105 A 
HETATM   30  O   UNL     1      17.493  50.859  47.874  1.00  0.00    -0.323 OA
HETATM   31  O   UNL     1      17.635  51.598  50.166  1.00  0.00    -0.323 OA
HETATM   32  C   UNL     1      20.031  51.213  50.360  1.00  0.00     0.040 A 
HETATM   33  C   UNL     1      16.791  51.401  49.013  1.00  0.00     0.352 A 
HETATM   34  C   UNL     1      21.178  50.796  49.677  1.00  0.00     0.012 A 
ENDBRANCH  25  26
ENDBRANCH   4  25
BRANCH  11  35
HETATM   35  C   UNL     1      25.879  44.248  51.669  1.00  0.00     0.252 C 
HETATM   36  N   UNL     1      27.006  44.350  52.451  1.00  0.00    -0.352 N 
HETATM   37  H   UNL     1      27.381  45.277  52.601  1.00  0.00     0.163 HD
HETATM   38  O   UNL     1      25.191  43.248  51.545  1.00  0.00    -0.268 OA
BRANCH  36  39
HETATM   39  C   UNL     1      27.531  43.317  53.346  1.00  0.00     0.084 C 
HETATM   40  C   UNL     1      28.584  42.424  52.680  1.00  0.00     0.025 C 
HETATM   41  C   UNL     1      30.022  42.897  52.857  1.00  0.00     0.002 C 
HETATM   42  C   UNL     1      30.344  43.171  54.320  1.00  0.00     0.000 C 
HETATM   43  C   UNL     1      29.392  44.191  54.931  1.00  0.00     0.002 C 
HETATM   44  C   UNL     1      27.924  43.813  54.747  1.00  0.00     0.025 C 
ENDBRANCH  36  39
ENDBRANCH  11  35
TORSDOF 7
ENDMDL
MODEL 2
REMARK VINA RESULT:     -10.3      1.718      2.001
REMARK  7 active torsions:
REMARK  status: ('A' for Active; 'I' for Inactive)
REMARK    1  A    between atoms: C_5  and  N_6 
REMARK       I    between atoms: N_6  and  C_7 
REMARK    2  A    between atoms: C_7  and  C_8 
REMARK    3  A    between atoms: C_8  and  N_9 
REMARK    4  A    between atoms: N_12  and  C_13 
REMARK    5  A    between atoms: C_13  and  C_14 
REMARK    6  A    between atoms: C_29  and  C_30 
REMARK       I    between atoms: C_30  and  N_31 
REMARK    7  A    between atoms: N_31  and  C_32 
ROOT
HETATM    1  N   UNL     1      22.672  46.600  48.663  1.00  0.00    -0.290 N 
HETATM    2  C   UNL     1      22.385  47.676  47.839  1.00  0.00     0.332 C 
HETATM    3  O   UNL     1      21.547  47.567  46.940  1.00  0.00    -0.246 OA
HETATM    4  N   UNL     1      23.075  48.852  48.081  1.00  0.00    -0.261 N 
HETATM    5  C   UNL     1      24.173  48.960  48.918  1.00  0.00     0.264 C 
HETATM    6  O   UNL     1      24.799  50.001  49.107  1.00  0.00    -0.267 OA
HETATM    7  C   UNL     1      24.586  47.739  49.630  1.00  0.00     0.059 A 
HETATM    8  C   UNL     1      23.810  46.585  49.510  1.00  0.00     0.056 A 
HETATM    9  C   UNL     1      25.721  47.771  50.456  1.00  0.00     0.020 A 
HETATM   10  C   UNL     1      26.089  46.638  51.181  1.00  0.00     0.018 A 
HETATM   11  C   UNL     1      25.320  45.477  51.080  1.00  0.00     0.034 A 
HETATM   12  C   UNL     1      24.196  45.448  50.232  1.00  0.00     0.048 A 
ENDROOT
BRANCH   1  13
HETATM   13  C   UNL     1      21.682  45.520  48.723  1.00  0.00     0.237 C 
BRANCH  13  14
HETATM   14  C   UNL     1      21.711  44.523  47.566  1.00  0.00     0.240 C 
HETATM   15  N   UNL     1      22.884  44.548  46.834  1.00  0.00    -0.326 N 
HETATM   16  H   UNL     1      23.613  45.173  47.172  1.00  0.00     0.169 HD
HETATM   17  O   UNL     1      20.700  43.878  47.301  1.00  0.00    -0.271 OA
BRANCH  15  18
HETATM   18  C   UNL     1      23.148  43.877  45.622  1.00  0.00     0.034 A 
HETATM   19  C   UNL     1      23.520  42.534  45.539  1.00  0.00     0.030 A 
HETATM   20  C   UNL     1      23.721  41.924  44.295  1.00  0.00     0.009 A 
HETATM   21  C   UNL     1      23.552  42.647  43.112  1.00  0.00    -0.062 A 
HETATM   22  C   UNL     1      23.792  41.992  41.784  1.00  0.00     0.048 C 
HETATM   23  C   UNL     1      23.211  44.000  43.192  1.00  0.00     0.009 A 
HETATM   24  C   UNL     1      23.000  44.606  44.437  1.00  0.00     0.030 A 
ENDBRANCH  15  18
ENDBRANCH  13  14
ENDBRANCH   1  13
BRANCH   4  25
HETATM   25  C   UNL     1      22.542  50.075  47.489  1.00  0.00     0.175 C 
BRANCH  25  26
HETATM   26  C   UNL     1      21.284  50.503  48.225  1.00  0.00    -0.037 A 
HETATM   27  C   UNL     1      20.092  50.736  47.515  1.00  0.00     0.048 A 
HETATM   28  C   UNL     1      19.013  51.245  48.207  1.00  0.00     0.105 A 
HETATM   29  C   UNL     1      19.074  51.514  49.554  1.00  0.00     0.105 A 
HETATM   30  O   UNL     1      17.804  51.563  47.671  1.00  0.00    -0.323 OA
HETATM   31  O   UNL     1      17.913  52.033  50.033  1.00  0.00    -0.323 OA
HETATM   32  C   UNL     1      20.216  51.283  50.288  1.00  0.00     0.040 A 
HETATM   33  C   UNL     1      17.119  52.081  48.830  1.00  0.00     0.352 A 
HETATM   34  C   UNL     1      21.330  50.776  49.614  1.00  0.00     0.012 A 
ENDBRANCH  25  26
ENDBRANCH   4  25
BRANCH  11  35
HETATM   35  C   UNL     1      25.658  44.239  51.829  1.00  0.00     0.252 C 
HETATM   36  N   UNL     1      26.976  44.103  52.199  1.00  0.00    -0.352 N 
HETATM   37  H   UNL     1      27.579  44.902  52.059  1.00  0.00     0.163 HD
HETATM   38  O   UNL     1      24.761  43.457  52.101  1.00  0.00    -0.268 OA
BRANCH  36  39
HETATM   39  C   UNL     1      27.526  43.055  53.060  1.00  0.00     0.084 C 
HETATM   40  C   UNL     1      28.741  42.348  52.446  1.00  0.00     0.025 C 
HETATM   41  C   UNL     1      30.086  42.957  52.822  1.00  0.00     0.002 C 
HETATM   42  C   UNL     1      30.222  43.128  54.329  1.00  0.00     0.000 C 
HETATM   43  C   UNL     1      29.098  43.975  54.909  1.00  0.00     0.002 C 
HETATM   44  C   UNL     1      27.712  43.458  54.532  1.00  0.00     0.025 C 
ENDBRANCH  36  39
ENDBRANCH  11  35
TORSDOF 7
ENDMDL
MODEL 3
REMARK VINA RESULT:     -10.1      2.662      9.475
REMARK  7 active torsions:
REMARK  status: ('A' for Active; 'I' for Inactive)
REMARK    1  A    between atoms: C_5  and  N_6 
REMARK       I    between atoms: N_6  and  C_7 
REMARK    2  A    between atoms: C_7  and  C_8 
REMARK    3  A    between atoms: C_8  and  N_9 
REMARK    4  A    between atoms: N_12  and  C_13 
REMARK    5  A    between atoms: C_13  and  C_14 
REMARK    6  A    between atoms: C_29  and  C_30 
REMARK       I    between atoms: C_30  and  N_31 
REMARK    7  A    between atoms: N_31  and  C_32 
ROOT
HETATM    1  N   UNL     1      25.184  46.608  49.973  1.00  0.00    -0.290 N 
HETATM    2  C   UNL     1      25.788  46.974  51.164  1.00  0.00     0.332 C 
HETATM    3  O   UNL     1      26.583  47.917  51.196  1.00  0.00    -0.246 OA
HETATM    4  N   UNL     1      25.453  46.238  52.289  1.00  0.00    -0.261 N 
HETATM    5  C   UNL     1      24.752  45.044  52.265  1.00  0.00     0.264 C 
HETATM    6  O   UNL     1      24.483  44.381  53.264  1.00  0.00    -0.267 OA
HETATM    7  C   UNL     1      24.296  44.569  50.948  1.00  0.00     0.059 A 
HETATM    8  C   UNL     1      24.496  45.376  49.826  1.00  0.00     0.056 A 
HETATM    9  C   UNL     1      23.621  43.342  50.851  1.00  0.00     0.020 A 
HETATM   10  C   UNL     1      23.132  42.908  49.619  1.00  0.00     0.018 A 
HETATM   11  C   UNL     1      23.318  43.706  48.488  1.00  0.00     0.034 A 
HETATM   12  C   UNL     1      24.013  44.925  48.591  1.00  0.00     0.048 A 
ENDROOT
BRANCH   1  13
HETATM   13  C   UNL     1      25.170  47.603  48.895  1.00  0.00     0.237 C 
BRANCH  13  14
HETATM   14  C   UNL     1      24.278  48.823  49.124  1.00  0.00     0.240 C 
HETATM   15  N   UNL     1      22.930  48.573  48.938  1.00  0.00    -0.326 N 
HETATM   16  H   UNL     1      22.674  47.610  48.731  1.00  0.00     0.169 HD
HETATM   17  O   UNL     1      24.795  49.918  49.332  1.00  0.00    -0.271 OA
BRANCH  15  18
HETATM   18  C   UNL     1      21.883  49.518  48.910  1.00  0.00     0.034 A 
HETATM   19  C   UNL     1      21.468  50.255  50.020  1.00  0.00     0.030 A 
HETATM   20  C   UNL     1      20.451  51.209  49.904  1.00  0.00     0.009 A 
HETATM   21  C   UNL     1      19.831  51.444  48.674  1.00  0.00    -0.062 A 
HETATM   22  C   UNL     1      18.726  52.451  48.563  1.00  0.00     0.048 C 
HETATM   23  C   UNL     1      20.223  50.685  47.567  1.00  0.00     0.009 A 
HETATM   24  C   UNL     1      21.248  49.738  47.682  1.00  0.00     0.030 A 
ENDBRANCH  15  18
ENDBRANCH  13  14
ENDBRANCH   1  13
BRANCH   4  25
HETATM   25  C   UNL     1      25.777  46.817  53.588  1.00  0.00     0.175 C 
BRANCH  25  26
HETATM   26  C   UNL     1      27.091  46.248  54.097  1.00  0.00    -0.037 A 
HETATM   27  C   UNL     1      27.526  44.979  53.676  1.00  0.00     0.048 A 
HETATM   28  C   UNL     1      28.658  44.452  54.262  1.00  0.00     0.105 A 
HETATM   29  C   UNL     1      29.362  45.135  55.224  1.00  0.00     0.105 A 
HETATM   30  O   UNL     1      29.191  43.229  54.000  1.00  0.00    -0.323 OA
HETATM   31  O   UNL     1      30.428  44.428  55.687  1.00  0.00    -0.323 OA
HETATM   32  C   UNL     1      28.981  46.387  55.651  1.00  0.00     0.040 A 
HETATM   33  C   UNL     1      30.301  43.212  54.922  1.00  0.00     0.352 A 
HETATM   34  C   UNL     1      27.832  46.945  55.083  1.00  0.00     0.012 A 
ENDBRANCH  25  26
ENDBRANCH   4  25
BRANCH  11  35
HETATM   35  C   UNL     1      22.818  43.301  47.148  1.00  0.00     0.252 C 
HETATM   36  N   UNL     1      23.579  43.707  46.076  1.00  0.00    -0.352 N 
HETATM   37  H   UNL     1      24.477  44.123  46.280  1.00  0.00     0.163 HD
HETATM   38  O   UNL     1      21.811  42.615  47.082  1.00  0.00    -0.268 OA
BRANCH  36  39
HETATM   39  C   UNL     1      23.380  43.316  44.680  1.00  0.00     0.084 C 
HETATM   40  C   UNL     1      23.639  44.461  43.692  1.00  0.00     0.025 C 
HETATM   41  C   UNL     1      25.066  44.532  43.164  1.00  0.00     0.002 C 
HETATM   42  C   UNL     1      25.530  43.188  42.619  1.00  0.00     0.000 C 
HETATM   43  C   UNL     1      25.426  42.085  43.663  1.00  0.00     0.002 C 
HETATM   44  C   UNL     1      24.033  41.983  44.281  1.00  0.00     0.025 C 
ENDBRANCH  36  39
ENDBRANCH  11  35
TORSDOF 7
ENDMDL
MODEL 4
REMARK VINA RESULT:     -10.0      2.927     10.536
REMARK  7 active torsions:
REMARK  status: ('A' for Active; 'I' for Inactive)
REMARK    1  A    between atoms: C_5  and  N_6 
REMARK       I    between atoms: N_6  and  C_7 
REMARK    2  A    between atoms: C_7  and  C_8 
REMARK    3  A    between atoms: C_8  and  N_9 
REMARK    4  A    between atoms: N_12  and  C_13 
REMARK    5  A    between atoms: C_13  and  C_14 
REMARK    6  A    between atoms: C_29  and  C_30 
REMARK       I    between atoms: C_30  and  N_31 
REMARK    7  A    between atoms: N_31  and  C_32 
ROOT
HETATM    1  N   UNL     1      23.815  47.802  49.133  1.00  0.00    -0.290 N 
HETATM    2  C   UNL     1      24.799  47.480  50.053  1.00  0.00     0.332 C 
HETATM    3  O   UNL     1      25.765  48.230  50.221  1.00  0.00    -0.246 OA
HETATM    4  N   UNL     1      24.637  46.299  50.757  1.00  0.00    -0.261 N 
HETATM    5  C   UNL     1      23.703  45.323  50.449  1.00  0.00     0.264 C 
HETATM    6  O   UNL     1      23.583  44.264  51.061  1.00  0.00    -0.267 OA
HETATM    7  C   UNL     1      22.797  45.606  49.323  1.00  0.00     0.059 A 
HETATM    8  C   UNL     1      22.851  46.854  48.702  1.00  0.00     0.056 A 
HETATM    9  C   UNL     1      21.859  44.637  48.931  1.00  0.00     0.020 A 
HETATM   10  C   UNL     1      20.956  44.914  47.906  1.00  0.00     0.018 A 
HETATM   11  C   UNL     1      20.991  46.161  47.278  1.00  0.00     0.034 A 
HETATM   12  C   UNL     1      21.948  47.118  47.664  1.00  0.00     0.048 A 
ENDROOT
BRANCH   1  13
HETATM   13  C   UNL     1      23.726  49.203  48.711  1.00  0.00     0.237 C 
BRANCH  13  14
HETATM   14  C   UNL     1      22.604  50.023  49.347  1.00  0.00     0.240 C 
HETATM   15  N   UNL     1      21.370  49.843  48.747  1.00  0.00    -0.326 N 
HETATM   16  H   UNL     1      21.328  49.153  47.999  1.00  0.00     0.169 HD
HETATM   17  O   UNL     1      22.875  50.835  50.227  1.00  0.00    -0.271 OA
BRANCH  15  18
HETATM   18  C   UNL     1      20.188  50.573  48.992  1.00  0.00     0.034 A 
HETATM   19  C   UNL     1      19.991  51.895  48.592  1.00  0.00     0.030 A 
HETATM   20  C   UNL     1      18.771  52.539  48.831  1.00  0.00     0.009 A 
HETATM   21  C   UNL     1      17.727  51.871  49.474  1.00  0.00    -0.062 A 
HETATM   22  C   UNL     1      16.432  52.576  49.747  1.00  0.00     0.048 C 
HETATM   23  C   UNL     1      17.932  50.557  49.903  1.00  0.00     0.009 A 
HETATM   24  C   UNL     1      19.148  49.910  49.654  1.00  0.00     0.030 A 
ENDBRANCH  15  18
ENDBRANCH  13  14
ENDBRANCH   1  13
BRANCH   4  25
HETATM   25  C   UNL     1      25.439  46.122  51.963  1.00  0.00     0.175 C 
BRANCH  25  26
HETATM   26  C   UNL     1      26.261  44.848  51.859  1.00  0.00    -0.037 A 
HETATM   27  C   UNL     1      26.448  44.030  52.987  1.00  0.00     0.048 A 
HETATM   28  C   UNL     1      27.304  42.954  52.876  1.00  0.00     0.105 A 
HETATM   29  C   UNL     1      27.958  42.665  51.702  1.00  0.00     0.105 A 
HETATM   30  O   UNL     1      27.625  42.089  53.874  1.00  0.00    -0.323 OA
HETATM   31  O   UNL     1      28.771  41.582  51.814  1.00  0.00    -0.323 OA
HETATM   32  C   UNL     1      27.788  43.430  50.570  1.00  0.00     0.040 A 
HETATM   33  C   UNL     1      28.572  41.234  53.199  1.00  0.00     0.352 A 
HETATM   34  C   UNL     1      26.933  44.533  50.653  1.00  0.00     0.012 A 
ENDBRANCH  25  26
ENDBRANCH   4  25
BRANCH  11  35
HETATM   35  C   UNL     1      20.053  46.518  46.181  1.00  0.00     0.252 C 
HETATM   36  N   UNL     1      19.091  47.450  46.495  1.00  0.00    -0.352 N 
HETATM   37  H   UNL     1      19.175  47.918  47.387  1.00  0.00     0.163 HD
HETATM   38  O   UNL     1      20.215  46.008  45.085  1.00  0.00    -0.268 OA
BRANCH  36  39
HETATM   39  C   UNL     1      18.152  48.069  45.558  1.00  0.00     0.084 C 
HETATM   40  C   UNL     1      16.704  48.061  46.064  1.00  0.00     0.025 C 
HETATM   41  C   UNL     1      16.297  49.307  46.841  1.00  0.00     0.002 C 
HETATM   42  C   UNL     1      16.630  50.579  46.073  1.00  0.00     0.000 C 
HETATM   43  C   UNL     1      18.108  50.659  45.718  1.00  0.00     0.002 C 
HETATM   44  C   UNL     1      18.607  49.419  44.981  1.00  0.00     0.025 C 
ENDBRANCH  36  39
ENDBRANCH  11  35
TORSDOF 7
ENDMDL
MODEL 5
REMARK VINA RESULT:     -10.0      2.694      9.356
REMARK  7 active torsions:
REMARK  status: ('A' for Active; 'I' for Inactive)
REMARK    1  A    between atoms: C_5  and  N_6 
REMARK       I    between atoms: N_6  and  C_7 
REMARK    2  A    between atoms: C_7  and  C_8 
REMARK    3  A    between atoms: C_8  and  N_9 
REMARK    4  A    between atoms: N_12  and  C_13 
REMARK    5  A    between atoms: C_13  and  C_14 
REMARK    6  A    between atoms: C_29  and  C_30 
REMARK       I    between atoms: C_30  and  N_31 
REMARK    7  A    between atoms: N_31  and  C_32 
ROOT
HETATM    1  N   UNL     1      24.035  44.958  50.225  1.00  0.00    -0.290 N 
HETATM    2  C   UNL     1      24.946  43.962  50.539  1.00  0.00     0.332 C 
HETATM    3  O   UNL     1      24.567  42.919  51.079  1.00  0.00    -0.246 OA
HETATM    4  N   UNL     1      26.271  44.200  50.216  1.00  0.00    -0.261 N 
HETATM    5  C   UNL     1      26.775  45.429  49.823  1.00  0.00     0.264 C 
HETATM    6  O   UNL     1      27.957  45.641  49.565  1.00  0.00    -0.267 OA
HETATM    7  C   UNL     1      25.807  46.532  49.696  1.00  0.00     0.059 A 
HETATM    8  C   UNL     1      24.448  46.269  49.873  1.00  0.00     0.056 A 
HETATM    9  C   UNL     1      26.261  47.814  49.347  1.00  0.00     0.020 A 
HETATM   10  C   UNL     1      25.350  48.853  49.167  1.00  0.00     0.018 A 
HETATM   11  C   UNL     1      23.985  48.606  49.332  1.00  0.00     0.034 A 
HETATM   12  C   UNL     1      23.541  47.323  49.702  1.00  0.00     0.048 A 
ENDROOT
BRANCH   1  13
HETATM   13  C   UNL     1      22.622  44.573  50.145  1.00  0.00     0.237 C 
BRANCH  13  14
HETATM   14  C   UNL     1      21.929  44.849  48.812  1.00  0.00     0.240 C 
HETATM   15  N   UNL     1      20.869  45.734  48.905  1.00  0.00    -0.326 N 
HETATM   16  H   UNL     1      20.704  46.146  49.821  1.00  0.00     0.169 HD
HETATM   17  O   UNL     1      22.262  44.212  47.816  1.00  0.00    -0.271 OA
BRANCH  15  18
HETATM   18  C   UNL     1      19.937  46.057  47.897  1.00  0.00     0.034 A 
HETATM   19  C   UNL     1      20.240  46.828  46.774  1.00  0.00     0.030 A 
HETATM   20  C   UNL     1      19.272  47.069  45.791  1.00  0.00     0.009 A 
HETATM   21  C   UNL     1      17.984  46.542  45.915  1.00  0.00    -0.062 A 
HETATM   22  C   UNL     1      16.947  46.824  44.870  1.00  0.00     0.048 C 
HETATM   23  C   UNL     1      17.669  45.795  47.054  1.00  0.00     0.009 A 
HETATM   24  C   UNL     1      18.641  45.546  48.031  1.00  0.00     0.030 A 
ENDBRANCH  15  18
ENDBRANCH  13  14
ENDBRANCH   1  13
BRANCH   4  25
HETATM   25  C   UNL     1      27.171  43.052  50.194  1.00  0.00     0.175 C 
BRANCH  25  26
HETATM   26  C   UNL     1      27.845  42.895  51.547  1.00  0.00    -0.037 A 
HETATM   27  C   UNL     1      28.016  44.008  52.389  1.00  0.00     0.048 A 
HETATM   28  C   UNL     1      28.744  43.841  53.548  1.00  0.00     0.105 A 
HETATM   29  C   UNL     1      29.288  42.627  53.896  1.00  0.00     0.105 A 
HETATM   30  O   UNL     1      29.036  44.816  54.450  1.00  0.00    -0.323 OA
HETATM   31  O   UNL     1      29.987  42.686  55.060  1.00  0.00    -0.323 OA
HETATM   32  C   UNL     1      29.127  41.509  53.109  1.00  0.00     0.040 A 
HETATM   33  C   UNL     1      29.841  44.081  55.395  1.00  0.00     0.352 A 
HETATM   34  C   UNL     1      28.402  41.648  51.923  1.00  0.00     0.012 A 
ENDBRANCH  25  26
ENDBRANCH   4  25
BRANCH  11  35
HETATM   35  C   UNL     1      22.964  49.671  49.151  1.00  0.00     0.252 C 
HETATM   36  N   UNL     1      21.682  49.343  49.528  1.00  0.00    -0.352 N 
HETATM   37  H   UNL     1      21.555  48.469  50.020  1.00  0.00     0.163 HD
HETATM   38  O   UNL     1      23.322  50.758  48.728  1.00  0.00    -0.268 OA
BRANCH  36  39
HETATM   39  C   UNL     1      20.539  50.256  49.583  1.00  0.00     0.084 C 
HETATM   40  C   UNL     1      20.344  51.053  48.288  1.00  0.00     0.025 C 
HETATM   41  C   UNL     1      19.406  50.404  47.278  1.00  0.00     0.002 C 
HETATM   42  C   UNL     1      18.080  50.014  47.916  1.00  0.00     0.000 C 
HETATM   43  C   UNL     1      18.273  49.083  49.105  1.00  0.00     0.002 C 
HETATM   44  C   UNL     1      19.246  49.641  50.142  1.00  0.00     0.025 C 
ENDBRANCH  36  39
ENDBRANCH  11  35
TORSDOF 7
ENDMDL
MODEL 6
REMARK VINA RESULT:     -10.0      2.221     10.172
REMARK  7 active torsions:
REMARK  status: ('A' for Active; 'I' for Inactive)
REMARK    1  A    between atoms: C_5  and  N_6 
REMARK       I    between atoms: N_6  and  C_7 
REMARK    2  A    between atoms: C_7  and  C_8 
REMARK    3  A    between atoms: C_8  and  N_9 
REMARK    4  A    between atoms: N_12  and  C_13 
REMARK    5  A    between atoms: C_13  and  C_14 
REMARK    6  A    between atoms: C_29  and  C_30 
REMARK       I    between atoms: C_30  and  N_31 
REMARK    7  A    between atoms: N_31  and  C_32 
ROOT
HETATM    1  N   UNL     1      24.405  44.185  50.349  1.00  0.00    -0.290 N 
HETATM    2  C   UNL     1      24.748  42.894  49.984  1.00  0.00     0.332 C 
HETATM    3  O   UNL     1      25.526  42.235  50.679  1.00  0.00    -0.246 OA
HETATM    4  N   UNL     1      24.178  42.399  48.823  1.00  0.00    -0.261 N 
HETATM    5  C   UNL     1      23.487  43.166  47.898  1.00  0.00     0.264 C 
HETATM    6  O   UNL     1      23.008  42.725  46.856  1.00  0.00    -0.267 OA
HETATM    7  C   UNL     1      23.315  44.593  48.218  1.00  0.00     0.059 A 
HETATM    8  C   UNL     1      23.754  45.072  49.453  1.00  0.00     0.056 A 
HETATM    9  C   UNL     1      22.666  45.433  47.300  1.00  0.00     0.020 A 
HETATM   10  C   UNL     1      22.444  46.773  47.615  1.00  0.00     0.018 A 
HETATM   11  C   UNL     1      22.870  47.268  48.849  1.00  0.00     0.034 A 
HETATM   12  C   UNL     1      23.538  46.423  49.754  1.00  0.00     0.048 A 
ENDROOT
BRANCH   1  13
HETATM   13  C   UNL     1      24.627  44.567  51.748  1.00  0.00     0.237 C 
BRANCH  13  14
HETATM   14  C   UNL     1      26.087  44.700  52.180  1.00  0.00     0.240 C 
HETATM   15  N   UNL     1      26.448  43.844  53.205  1.00  0.00    -0.326 N 
HETATM   16  H   UNL     1      25.735  43.187  53.516  1.00  0.00     0.169 HD
HETATM   17  O   UNL     1      26.779  45.593  51.698  1.00  0.00    -0.271 OA
BRANCH  15  18
HETATM   18  C   UNL     1      27.659  43.841  53.928  1.00  0.00     0.034 A 
HETATM   19  C   UNL     1      28.627  42.842  53.824  1.00  0.00     0.030 A 
HETATM   20  C   UNL     1      29.826  42.932  54.541  1.00  0.00     0.009 A 
HETATM   21  C   UNL     1      30.078  44.025  55.373  1.00  0.00    -0.062 A 
HETATM   22  C   UNL     1      31.355  44.102  56.155  1.00  0.00     0.048 C 
HETATM   23  C   UNL     1      29.097  45.012  55.503  1.00  0.00     0.009 A 
HETATM   24  C   UNL     1      27.903  44.926  54.778  1.00  0.00     0.030 A 
ENDBRANCH  15  18
ENDBRANCH  13  14
ENDBRANCH   1  13
BRANCH   4  25
HETATM   25  C   UNL     1      24.226  40.956  48.616  1.00  0.00     0.175 C 
BRANCH  25  26
HETATM   26  C   UNL     1      25.667  40.499  48.467  1.00  0.00    -0.037 A 
HETATM   27  C   UNL     1      26.166  39.451  49.261  1.00  0.00     0.048 A 
HETATM   28  C   UNL     1      27.511  39.158  49.181  1.00  0.00     0.105 A 
HETATM   29  C   UNL     1      28.357  39.850  48.346  1.00  0.00     0.105 A 
HETATM   30  O   UNL     1      28.161  38.206  49.903  1.00  0.00    -0.323 OA
HETATM   31  O   UNL     1      29.643  39.420  48.438  1.00  0.00    -0.323 OA
HETATM   32  C   UNL     1      27.905  40.869  47.539  1.00  0.00     0.040 A 
HETATM   33  C   UNL     1      29.516  38.392  49.443  1.00  0.00     0.352 A 
HETATM   34  C   UNL     1      26.548  41.197  47.605  1.00  0.00     0.012 A 
ENDBRANCH  25  26
ENDBRANCH   4  25
BRANCH  11  35
HETATM   35  C   UNL     1      22.660  48.685  49.245  1.00  0.00     0.252 C 
HETATM   36  N   UNL     1      21.350  49.101  49.316  1.00  0.00    -0.352 N 
HETATM   37  H   UNL     1      20.636  48.391  49.231  1.00  0.00     0.163 HD
HETATM   38  O   UNL     1      23.635  49.366  49.517  1.00  0.00    -0.268 OA
BRANCH  36  39
HETATM   39  C   UNL     1      20.882  50.393  49.819  1.00  0.00     0.084 C 
HETATM   40  C   UNL     1      20.889  51.492  48.749  1.00  0.00     0.025 C 
HETATM   41  C   UNL     1      19.580  51.643  47.985  1.00  0.00     0.002 C 
HETATM   42  C   UNL     1      18.392  51.769  48.930  1.00  0.00     0.000 C 
HETATM   43  C   UNL     1      18.294  50.586  49.883  1.00  0.00     0.002 C 
HETATM   44  C   UNL     1      19.591  50.336  50.650  1.00  0.00     0.025 C 
ENDBRANCH  36  39
ENDBRANCH  11  35
TORSDOF 7
ENDMDL
MODEL 7
REMARK VINA RESULT:      -9.9      2.603      9.510
REMARK  7 active torsions:
REMARK  status: ('A' for Active; 'I' for Inactive)
REMARK    1  A    between atoms: C_5  and  N_6 
REMARK       I    between atoms: N_6  and  C_7 
REMARK    2  A    between atoms: C_7  and  C_8 
REMARK    3  A    between atoms: C_8  and  N_9 
REMARK    4  A    between atoms: N_12  and  C_13 
REMARK    5  A    between atoms: C_13  and  C_14 
REMARK    6  A    between atoms: C_29  and  C_30 
REMARK       I    between atoms: C_30  and  N_31 
REMARK    7  A    between atoms: N_31  and  C_32 
ROOT
HETATM    1  N   UNL     1      25.179  46.487  50.487  1.00  0.00    -0.290 N 
HETATM    2  C   UNL     1      25.749  46.787  51.713  1.00  0.00     0.332 C 
HETATM    3  O   UNL     1      26.436  47.803  51.849  1.00  0.00    -0.246 OA
HETATM    4  N   UNL     1      25.505  45.903  52.751  1.00  0.00    -0.261 N 
HETATM    5  C   UNL     1      24.939  44.648  52.596  1.00  0.00     0.264 C 
HETATM    6  O   UNL     1      24.751  43.857  53.517  1.00  0.00    -0.267 OA
HETATM    7  C   UNL     1      24.528  44.270  51.234  1.00  0.00     0.059 A 
HETATM    8  C   UNL     1      24.630  45.209  50.206  1.00  0.00     0.056 A 
HETATM    9  C   UNL     1      23.990  42.993  51.003  1.00  0.00     0.020 A 
HETATM   10  C   UNL     1      23.543  42.643  49.729  1.00  0.00     0.018 A 
HETATM   11  C   UNL     1      23.631  43.573  48.691  1.00  0.00     0.034 A 
HETATM   12  C   UNL     1      24.190  44.843  48.927  1.00  0.00     0.048 A 
ENDROOT
BRANCH   1  13
HETATM   13  C   UNL     1      25.048  47.584  49.523  1.00  0.00     0.237 C 
BRANCH  13  14
HETATM   14  C   UNL     1      23.676  48.251  49.452  1.00  0.00     0.240 C 
HETATM   15  N   UNL     1      22.776  47.597  48.630  1.00  0.00    -0.326 N 
HETATM   16  H   UNL     1      23.097  46.725  48.214  1.00  0.00     0.169 HD
HETATM   17  O   UNL     1      23.502  49.334  50.007  1.00  0.00    -0.271 OA
BRANCH  15  18
HETATM   18  C   UNL     1      21.501  48.048  48.230  1.00  0.00     0.034 A 
HETATM   19  C   UNL     1      21.257  49.308  47.681  1.00  0.00     0.030 A 
HETATM   20  C   UNL     1      19.969  49.668  47.265  1.00  0.00     0.009 A 
HETATM   21  C   UNL     1      18.904  48.773  47.391  1.00  0.00    -0.062 A 
HETATM   22  C   UNL     1      17.523  49.175  46.965  1.00  0.00     0.048 C 
HETATM   23  C   UNL     1      19.139  47.522  47.970  1.00  0.00     0.009 A 
HETATM   24  C   UNL     1      20.429  47.160  48.375  1.00  0.00     0.030 A 
ENDBRANCH  15  18
ENDBRANCH  13  14
ENDBRANCH   1  13
BRANCH   4  25
HETATM   25  C   UNL     1      25.774  46.371  54.106  1.00  0.00     0.175 C 
BRANCH  25  26
HETATM   26  C   UNL     1      27.169  45.948  54.536  1.00  0.00    -0.037 A 
HETATM   27  C   UNL     1      27.699  44.717  54.110  1.00  0.00     0.048 A 
HETATM   28  C   UNL     1      28.915  44.320  54.627  1.00  0.00     0.105 A 
HETATM   29  C   UNL     1      29.610  45.094  55.526  1.00  0.00     0.105 A 
HETATM   30  O   UNL     1      29.549  43.148  54.353  1.00  0.00    -0.323 OA
HETATM   31  O   UNL     1      30.768  44.508  55.928  1.00  0.00    -0.323 OA
HETATM   32  C   UNL     1      29.134  46.312  55.953  1.00  0.00     0.040 A 
HETATM   33  C   UNL     1      30.713  43.265  55.198  1.00  0.00     0.352 A 
HETATM   34  C   UNL     1      27.900  46.739  55.454  1.00  0.00     0.012 A 
ENDBRANCH  25  26
ENDBRANCH   4  25
BRANCH  11  35
HETATM   35  C   UNL     1      23.168  43.262  47.313  1.00  0.00     0.252 C 
HETATM   36  N   UNL     1      22.071  43.967  46.876  1.00  0.00    -0.352 N 
HETATM   37  H   UNL     1      21.749  44.728  47.458  1.00  0.00     0.163 HD
HETATM   38  O   UNL     1      23.799  42.452  46.654  1.00  0.00    -0.268 OA
BRANCH  36  39
HETATM   39  C   UNL     1      21.518  43.947  45.521  1.00  0.00     0.084 C 
HETATM   40  C   UNL     1      20.098  43.370  45.459  1.00  0.00     0.025 C 
HETATM   41  C   UNL     1      18.986  44.404  45.584  1.00  0.00     0.002 C 
HETATM   42  C   UNL     1      19.181  45.556  44.607  1.00  0.00     0.000 C 
HETATM   43  C   UNL     1      20.532  46.234  44.788  1.00  0.00     0.002 C 
HETATM   44  C   UNL     1      21.699  45.251  44.728  1.00  0.00     0.025 C 
ENDBRANCH  36  39
ENDBRANCH  11  35
TORSDOF 7
ENDMDL
MODEL 8
REMARK VINA RESULT:      -9.8      2.372     10.198
REMARK  7 active torsions:
REMARK  status: ('A' for Active; 'I' for Inactive)
REMARK    1  A    between atoms: C_5  and  N_6 
REMARK       I    between atoms: N_6  and  C_7 
REMARK    2  A    between atoms: C_7  and  C_8 
REMARK    3  A    between atoms: C_8  and  N_9 
REMARK    4  A    between atoms: N_12  and  C_13 
REMARK    5  A    between atoms: C_13  and  C_14 
REMARK    6  A    between atoms: C_29  and  C_30 
REMARK       I    between atoms: C_30  and  N_31 
REMARK    7  A    between atoms: N_31  and  C_32 
ROOT
HETATM    1  N   UNL     1      25.756  45.270  51.234  1.00  0.00    -0.290 N 
HETATM    2  C   UNL     1      26.213  43.963  51.201  1.00  0.00     0.332 C 
HETATM    3  O   UNL     1      27.257  43.653  51.781  1.00  0.00    -0.246 OA
HETATM    4  N   UNL     1      25.447  43.048  50.498  1.00  0.00    -0.261 N 
HETATM    5  C   UNL     1      24.403  43.385  49.651  1.00  0.00     0.264 C 
HETATM    6  O   UNL     1      23.746  42.570  49.008  1.00  0.00    -0.267 OA
HETATM    7  C   UNL     1      24.070  44.816  49.546  1.00  0.00     0.059 A 
HETATM    8  C   UNL     1      24.735  45.731  50.363  1.00  0.00     0.056 A 
HETATM    9  C   UNL     1      23.054  45.226  48.669  1.00  0.00     0.020 A 
HETATM   10  C   UNL     1      22.688  46.570  48.603  1.00  0.00     0.018 A 
HETATM   11  C   UNL     1      23.338  47.499  49.418  1.00  0.00     0.034 A 
HETATM   12  C   UNL     1      24.370  47.081  50.280  1.00  0.00     0.048 A 
ENDROOT
BRANCH   1  13
HETATM   13  C   UNL     1      26.278  46.135  52.297  1.00  0.00     0.237 C 
BRANCH  13  14
HETATM   14  C   UNL     1      26.866  45.420  53.512  1.00  0.00     0.240 C 
HETATM   15  N   UNL     1      28.237  45.557  53.635  1.00  0.00    -0.326 N 
HETATM   16  H   UNL     1      28.693  46.157  52.950  1.00  0.00     0.169 HD
HETATM   17  O   UNL     1      26.140  44.709  54.203  1.00  0.00    -0.271 OA
BRANCH  15  18
HETATM   18  C   UNL     1      29.084  44.887  54.542  1.00  0.00     0.034 A 
HETATM   19  C   UNL     1      29.533  43.578  54.367  1.00  0.00     0.030 A 
HETATM   20  C   UNL     1      30.411  42.995  55.289  1.00  0.00     0.009 A 
HETATM   21  C   UNL     1      30.854  43.713  56.403  1.00  0.00    -0.062 A 
HETATM   22  C   UNL     1      31.776  43.074  57.398  1.00  0.00     0.048 C 
HETATM   23  C   UNL     1      30.381  45.014  56.597  1.00  0.00     0.009 A 
HETATM   24  C   UNL     1      29.512  45.599  55.668  1.00  0.00     0.030 A 
ENDBRANCH  15  18
ENDBRANCH  13  14
ENDBRANCH   1  13
BRANCH   4  25
HETATM   25  C   UNL     1      25.697  41.633  50.748  1.00  0.00     0.175 C 
BRANCH  25  26
HETATM   26  C   UNL     1      26.233  40.969  49.491  1.00  0.00    -0.037 A 
HETATM   27  C   UNL     1      27.192  41.624  48.697  1.00  0.00     0.048 A 
HETATM   28  C   UNL     1      27.554  41.040  47.501  1.00  0.00     0.105 A 
HETATM   29  C   UNL     1      27.014  39.847  47.083  1.00  0.00     0.105 A 
HETATM   30  O   UNL     1      28.433  41.555  46.600  1.00  0.00    -0.323 OA
HETATM   31  O   UNL     1      27.487  39.461  45.868  1.00  0.00    -0.323 OA
HETATM   32  C   UNL     1      26.087  39.166  47.839  1.00  0.00     0.040 A 
HETATM   33  C   UNL     1      28.370  40.559  45.558  1.00  0.00     0.352 A 
HETATM   34  C   UNL     1      25.693  39.736  49.052  1.00  0.00     0.012 A 
ENDBRANCH  25  26
ENDBRANCH   4  25
BRANCH  11  35
HETATM   35  C   UNL     1      22.992  48.944  49.397  1.00  0.00     0.252 C 
HETATM   36  N   UNL     1      21.659  49.244  49.558  1.00  0.00    -0.352 N 
HETATM   37  H   UNL     1      21.043  48.485  49.812  1.00  0.00     0.163 HD
HETATM   38  O   UNL     1      23.893  49.760  49.284  1.00  0.00    -0.268 OA
BRANCH  36  39
HETATM   39  C   UNL     1      21.090  50.583  49.718  1.00  0.00     0.084 C 
HETATM   40  C   UNL     1      20.936  51.333  48.389  1.00  0.00     0.025 C 
HETATM   41  C   UNL     1      19.583  51.155  47.712  1.00  0.00     0.002 C 
HETATM   42  C   UNL     1      18.436  51.445  48.671  1.00  0.00     0.000 C 
HETATM   43  C   UNL     1      18.502  50.574  49.918  1.00  0.00     0.002 C 
HETATM   44  C   UNL     1      19.852  50.657  50.626  1.00  0.00     0.025 C 
ENDBRANCH  36  39
ENDBRANCH  11  35
TORSDOF 7
ENDMDL
MODEL 9
REMARK VINA RESULT:      -9.5      2.344      9.697
REMARK  7 active torsions:
REMARK  status: ('A' for Active; 'I' for Inactive)
REMARK    1  A    between atoms: C_5  and  N_6 
REMARK       I    between atoms: N_6  and  C_7 
REMARK    2  A    between atoms: C_7  and  C_8 
REMARK    3  A    between atoms: C_8  and  N_9 
REMARK    4  A    between atoms: N_12  and  C_13 
REMARK    5  A    between atoms: C_13  and  C_14 
REMARK    6  A    between atoms: C_29  and  C_30 
REMARK       I    between atoms: C_30  and  N_31 
REMARK    7  A    between atoms: N_31  and  C_32 
ROOT
HETATM    1  N   UNL     1      24.563  46.783  49.673  1.00  0.00    -0.290 N 
HETATM    2  C   UNL     1      25.339  47.030  50.794  1.00  0.00     0.332 C 
HETATM    3  O   UNL     1      26.106  47.996  50.820  1.00  0.00    -0.246 OA
HETATM    4  N   UNL     1      25.203  46.153  51.857  1.00  0.00    -0.261 N 
HETATM    5  C   UNL     1      24.535  44.941  51.793  1.00  0.00     0.264 C 
HETATM    6  O   UNL     1      24.442  44.154  52.732  1.00  0.00    -0.267 OA
HETATM    7  C   UNL     1      23.889  44.607  50.513  1.00  0.00     0.059 A 
HETATM    8  C   UNL     1      23.891  45.548  49.483  1.00  0.00     0.056 A 
HETATM    9  C   UNL     1      23.236  43.372  50.369  1.00  0.00     0.020 A 
HETATM   10  C   UNL     1      22.570  43.067  49.183  1.00  0.00     0.018 A 
HETATM   11  C   UNL     1      22.556  44.000  48.144  1.00  0.00     0.034 A 
HETATM   12  C   UNL     1      23.230  45.227  48.289  1.00  0.00     0.048 A 
ENDROOT
BRANCH   1  13
HETATM   13  C   UNL     1      24.357  47.897  48.742  1.00  0.00     0.237 C 
BRANCH  13  14
HETATM   14  C   UNL     1      23.419  49.004  49.223  1.00  0.00     0.240 C 
HETATM   15  N   UNL     1      22.077  48.718  49.043  1.00  0.00    -0.326 N 
HETATM   16  H   UNL     1      21.858  47.795  48.673  1.00  0.00     0.169 HD
HETATM   17  O   UNL     1      23.892  50.070  49.609  1.00  0.00    -0.271 OA
BRANCH  15  18
HETATM   18  C   UNL     1      20.987  49.593  49.227  1.00  0.00     0.034 A 
HETATM   19  C   UNL     1      19.896  49.317  50.052  1.00  0.00     0.030 A 
HETATM   20  C   UNL     1      18.871  50.256  50.220  1.00  0.00     0.009 A 
HETATM   21  C   UNL     1      18.921  51.489  49.566  1.00  0.00    -0.062 A 
HETATM   22  C   UNL     1      17.808  52.480  49.733  1.00  0.00     0.048 C 
HETATM   23  C   UNL     1      19.997  51.757  48.715  1.00  0.00     0.009 A 
HETATM   24  C   UNL     1      21.026  50.821  48.556  1.00  0.00     0.030 A 
ENDBRANCH  15  18
ENDBRANCH  13  14
ENDBRANCH   1  13
BRANCH   4  25
HETATM   25  C   UNL     1      25.714  46.587  53.152  1.00  0.00     0.175 C 
BRANCH  25  26
HETATM   26  C   UNL     1      26.966  45.803  53.506  1.00  0.00    -0.037 A 
HETATM   27  C   UNL     1      27.498  44.868  52.601  1.00  0.00     0.048 A 
HETATM   28  C   UNL     1      28.559  44.091  53.016  1.00  0.00     0.105 A 
HETATM   29  C   UNL     1      29.105  44.218  54.271  1.00  0.00     0.105 A 
HETATM   30  O   UNL     1      29.165  43.118  52.284  1.00  0.00    -0.323 OA
HETATM   31  O   UNL     1      30.122  43.343  54.486  1.00  0.00    -0.323 OA
HETATM   32  C   UNL     1      28.626  45.134  55.180  1.00  0.00     0.040 A 
HETATM   33  C   UNL     1      30.141  42.634  53.230  1.00  0.00     0.352 A 
HETATM   34  C   UNL     1      27.544  45.931  54.793  1.00  0.00     0.012 A 
ENDBRANCH  25  26
ENDBRANCH   4  25
BRANCH  11  35
HETATM   35  C   UNL     1      21.861  43.736  46.857  1.00  0.00     0.252 C 
HETATM   36  N   UNL     1      21.781  42.416  46.479  1.00  0.00    -0.352 N 
HETATM   37  H   UNL     1      22.071  41.724  47.155  1.00  0.00     0.163 HD
HETATM   38  O   UNL     1      21.379  44.678  46.250  1.00  0.00    -0.268 OA
BRANCH  36  39
HETATM   39  C   UNL     1      21.028  41.890  45.339  1.00  0.00     0.084 C 
HETATM   40  C   UNL     1      21.848  41.849  44.044  1.00  0.00     0.025 C 
HETATM   41  C   UNL     1      22.578  40.535  43.796  1.00  0.00     0.002 C 
HETATM   42  C   UNL     1      21.639  39.342  43.918  1.00  0.00     0.000 C 
HETATM   43  C   UNL     1      20.951  39.296  45.276  1.00  0.00     0.002 C 
HETATM   44  C   UNL     1      20.239  40.602  45.622  1.00  0.00     0.025 C 
ENDBRANCH  36  39
ENDBRANCH  11  35
TORSDOF 7
ENDMDL
MODEL 10
REMARK VINA RESULT:      -9.4      8.307     13.041
REMARK  7 active torsions:
REMARK  status: ('A' for Active; 'I' for Inactive)
REMARK    1  A    between atoms: C_5  and  N_6 
REMARK       I    between atoms: N_6  and  C_7 
REMARK    2  A    between atoms: C_7  and  C_8 
REMARK    3  A    between atoms: C_8  and  N_9 
REMARK    4  A    between atoms: N_12  and  C_13 
REMARK    5  A    between atoms: C_13  and  C_14 
REMARK    6  A    between atoms: C_29  and  C_30 
REMARK       I    between atoms: C_30  and  N_31 
REMARK    7  A    between atoms: N_31  and  C_32 
ROOT
HETATM    1  N   UNL     1      13.382  54.296  49.242  1.00  0.00    -0.290 N 
HETATM    2  C   UNL     1      12.612  55.142  50.023  1.00  0.00     0.332 C 
HETATM    3  O   UNL     1      12.168  54.758  51.108  1.00  0.00    -0.246 OA
HETATM    4  N   UNL     1      12.377  56.413  49.526  1.00  0.00    -0.261 N 
HETATM    5  C   UNL     1      12.656  56.813  48.228  1.00  0.00     0.264 C 
HETATM    6  O   UNL     1      12.419  57.934  47.785  1.00  0.00    -0.267 OA
HETATM    7  C   UNL     1      13.293  55.816  47.351  1.00  0.00     0.059 A 
HETATM    8  C   UNL     1      13.670  54.582  47.883  1.00  0.00     0.056 A 
HETATM    9  C   UNL     1      13.558  56.143  46.012  1.00  0.00     0.020 A 
HETATM   10  C   UNL     1      14.213  55.231  45.186  1.00  0.00     0.018 A 
HETATM   11  C   UNL     1      14.605  53.995  45.704  1.00  0.00     0.034 A 
HETATM   12  C   UNL     1      14.317  53.667  47.041  1.00  0.00     0.048 A 
ENDROOT
BRANCH   1  13
HETATM   13  C   UNL     1      14.000  53.146  49.911  1.00  0.00     0.237 C 
BRANCH  13  14
HETATM   14  C   UNL     1      15.525  53.162  49.995  1.00  0.00     0.240 C 
HETATM   15  N   UNL     1      16.134  52.113  49.331  1.00  0.00    -0.326 N 
HETATM   16  H   UNL     1      15.518  51.486  48.816  1.00  0.00     0.169 HD
HETATM   17  O   UNL     1      16.081  53.995  50.707  1.00  0.00    -0.271 OA
BRANCH  15  18
HETATM   18  C   UNL     1      17.499  51.760  49.363  1.00  0.00     0.034 A 
HETATM   19  C   UNL     1      18.008  50.676  50.079  1.00  0.00     0.030 A 
HETATM   20  C   UNL     1      19.372  50.361  50.025  1.00  0.00     0.009 A 
HETATM   21  C   UNL     1      20.249  51.126  49.252  1.00  0.00    -0.062 A 
HETATM   22  C   UNL     1      21.712  50.795  49.219  1.00  0.00     0.048 C 
HETATM   23  C   UNL     1      19.748  52.231  48.559  1.00  0.00     0.009 A 
HETATM   24  C   UNL     1      18.383  52.538  48.605  1.00  0.00     0.030 A 
ENDBRANCH  15  18
ENDBRANCH  13  14
ENDBRANCH   1  13
BRANCH   4  25
HETATM   25  C   UNL     1      11.897  57.421  50.464  1.00  0.00     0.175 C 
BRANCH  25  26
HETATM   26  C   UNL     1      12.975  57.734  51.488  1.00  0.00    -0.037 A 
HETATM   27  C   UNL     1      12.676  57.715  52.862  1.00  0.00     0.048 A 
HETATM   28  C   UNL     1      13.651  58.129  53.745  1.00  0.00     0.105 A 
HETATM   29  C   UNL     1      14.890  58.541  53.318  1.00  0.00     0.105 A 
HETATM   30  O   UNL     1      13.516  58.209  55.096  1.00  0.00    -0.323 OA
HETATM   31  O   UNL     1      15.691  58.931  54.346  1.00  0.00    -0.323 OA
HETATM   32  C   UNL     1      15.229  58.557  51.984  1.00  0.00     0.040 A 
HETATM   33  C   UNL     1      14.806  58.737  55.468  1.00  0.00     0.352 A 
HETATM   34  C   UNL     1      14.259  58.152  51.062  1.00  0.00     0.012 A 
ENDBRANCH  25  26
ENDBRANCH   4  25
BRANCH  11  35
HETATM   35  C   UNL     1      15.310  52.981  44.876  1.00  0.00     0.252 C 
HETATM   36  N   UNL     1      15.887  51.940  45.565  1.00  0.00    -0.352 N 
HETATM   37  H   UNL     1      15.676  51.866  46.551  1.00  0.00     0.163 HD
HETATM   38  O   UNL     1      15.298  53.107  43.662  1.00  0.00    -0.268 OA
BRANCH  36  39
HETATM   39  C   UNL     1      16.505  50.752  44.974  1.00  0.00     0.084 C 
HETATM   40  C   UNL     1      17.977  50.965  44.598  1.00  0.00     0.025 C 
HETATM   41  C   UNL     1      18.972  50.583  45.688  1.00  0.00     0.002 C 
HETATM   42  C   UNL     1      18.711  49.179  46.216  1.00  0.00     0.000 C 
HETATM   43  C   UNL     1      17.291  49.023  46.744  1.00  0.00     0.002 C 
HETATM   44  C   UNL     1      16.233  49.438  45.724  1.00  0.00     0.025 C 
ENDBRANCH  36  39
ENDBRANCH  11  35
TORSDOF 7
ENDMDL
