MODEL 1
REMARK VINA RESULT:      -8.3      0.000      0.000
REMARK  6 active torsions:
REMARK  status: ('A' for Active; 'I' for Inactive)
REMARK    1  A    between atoms: C_8  and  C_9 
REMARK    2  A    between atoms: C_9  and  C_10 
REMARK       I    between atoms: C_10  and  N_11 
REMARK    3  A    between atoms: N_11  and  C_12 
REMARK    4  A    between atoms: C_12  and  C_13 
REMARK    5  A    between atoms: C_13  and  N_14 
REMARK    6  A    between atoms: C_13  and  C_20 
ROOT
HETATM    1  C   UNL     1      26.972  46.012  53.904  1.00  0.00     0.160 C 
ENDROOT
BRANCH   1   2
HETATM    2  N   UNL     1      26.382  46.279  52.591  1.00  0.00    -0.358 N 
HETATM    3  C   UNL     1      25.231  45.687  52.111  1.00  0.00     0.226 C 
HETATM    4  O   UNL     1      24.719  44.730  52.691  1.00  0.00    -0.273 OA
HETATM    5  H   UNL     1      26.605  47.185  52.182  1.00  0.00     0.162 HD
BRANCH   3   6
HETATM    6  C   UNL     1      24.686  46.306  50.817  1.00  0.00     0.111 C 
HETATM    7  C   UNL     1      25.503  47.522  50.387  1.00  0.00     0.025 C 
BRANCH   6   8
HETATM    8  C   UNL     1      24.603  45.263  49.735  1.00  0.00     0.004 A 
HETATM    9  C   UNL     1      25.527  44.288  49.387  1.00  0.00     0.033 A 
HETATM   10  C   UNL     1      26.871  43.943  49.910  1.00  0.00     0.070 C 
HETATM   11  N   UNL     1      24.972  43.600  48.342  1.00  0.00    -0.282 N 
HETATM   12  H   UNL     1      25.368  42.830  47.811  1.00  0.00     0.189 HD
HETATM   13  N   UNL     1      23.745  44.020  48.021  1.00  0.00    -0.179 NA
HETATM   14  C   UNL     1      23.525  45.063  48.824  1.00  0.00     0.060 A 
HETATM   15  C   UNL     1      22.260  45.833  48.699  1.00  0.00     0.073 C 
ENDBRANCH   6   8
ENDBRANCH   3   6
ENDBRANCH   1   2
BRANCH   1  16
HETATM   16  C   UNL     1      28.342  45.249  53.929  1.00  0.00     0.238 C 
BRANCH  16  17
HETATM   17  N   UNL     1      28.204  43.864  53.303  1.00  0.00    -0.061 N 
HETATM   18  H   UNL     1      27.563  44.030  52.499  1.00  0.00     0.280 HD
HETATM   19  C   UNL     1      27.550  42.764  54.103  1.00  0.00     0.236 C 
HETATM   20  C   UNL     1      28.609  41.685  54.194  1.00  0.00     0.029 C 
HETATM   21  C   UNL     1      29.319  41.795  52.860  1.00  0.00     0.029 C 
HETATM   22  C   UNL     1      29.454  43.294  52.672  1.00  0.00     0.236 C 
ENDBRANCH  16  17
BRANCH  16  23
HETATM   23  C   UNL     1      28.990  45.231  55.310  1.00  0.00    -0.024 A 
HETATM   24  C   UNL     1      30.132  44.461  55.597  1.00  0.00     0.033 A 
HETATM   25  C   UNL     1      30.718  44.499  56.865  1.00  0.00     0.034 A 
HETATM   26 CL   UNL     1      32.125  43.560  57.173  1.00  0.00    -0.084 Cl
HETATM   27  C   UNL     1      30.177  45.291  57.873  1.00  0.00     0.024 A 
HETATM   28  C   UNL     1      29.036  46.045  57.614  1.00  0.00     0.002 A 
HETATM   29  C   UNL     1      28.446  46.011  56.347  1.00  0.00     0.009 A 
ENDBRANCH  16  23
ENDBRANCH   1  16
TORSDOF 6
ENDMDL
MODEL 2
REMARK VINA RESULT:      -8.2      3.423      7.305
REMARK  6 active torsions:
REMARK  status: ('A' for Active; 'I' for Inactive)
REMARK    1  A    between atoms: C_8  and  C_9 
REMARK    2  A    between atoms: C_9  and  C_10 
REMARK       I    between atoms: C_10  and  N_11 
REMARK    3  A    between atoms: N_11  and  C_12 
REMARK    4  A    between atoms: C_12  and  C_13 
REMARK    5  A    between atoms: C_13  and  N_14 
REMARK    6  A    between atoms: C_13  and  C_20 
ROOT
HETATM    1  C   UNL     1      25.535  47.029  52.542  1.00  0.00     0.160 C 
ENDROOT
BRANCH   1   2
HETATM    2  N   UNL     1      26.128  45.863  53.197  1.00  0.00    -0.358 N 
HETATM    3  C   UNL     1      27.121  45.919  54.154  1.00  0.00     0.226 C 
HETATM    4  O   UNL     1      27.724  46.968  54.384  1.00  0.00    -0.273 OA
HETATM    5  H   UNL     1      25.544  45.029  53.230  1.00  0.00     0.162 HD
BRANCH   3   6
HETATM    6  C   UNL     1      27.406  44.587  54.861  1.00  0.00     0.111 C 
HETATM    7  C   UNL     1      26.165  43.699  54.905  1.00  0.00     0.025 C 
BRANCH   6   8
HETATM    8  C   UNL     1      28.579  43.897  54.220  1.00  0.00     0.004 A 
HETATM    9  C   UNL     1      29.866  43.724  54.709  1.00  0.00     0.033 A 
HETATM   10  C   UNL     1      30.530  44.146  55.965  1.00  0.00     0.070 C 
HETATM   11  N   UNL     1      30.546  43.033  53.742  1.00  0.00    -0.282 N 
HETATM   12  H   UNL     1      31.520  42.745  53.738  1.00  0.00     0.189 HD
HETATM   13  N   UNL     1      29.788  42.703  52.692  1.00  0.00    -0.179 NA
HETATM   14  C   UNL     1      28.603  43.264  52.943  1.00  0.00     0.060 A 
HETATM   15  C   UNL     1      27.513  43.156  51.939  1.00  0.00     0.073 C 
ENDBRANCH   6   8
ENDBRANCH   3   6
ENDBRANCH   1   2
BRANCH   1  16
HETATM   16  C   UNL     1      24.887  46.803  51.131  1.00  0.00     0.238 C 
BRANCH  16  17
HETATM   17  N   UNL     1      25.094  45.366  50.663  1.00  0.00    -0.061 N 
HETATM   18  H   UNL     1      25.905  45.044  51.233  1.00  0.00     0.280 HD
HETATM   19  C   UNL     1      25.500  45.115  49.231  1.00  0.00     0.236 C 
HETATM   20  C   UNL     1      24.396  44.241  48.675  1.00  0.00     0.029 C 
HETATM   21  C   UNL     1      24.007  43.390  49.867  1.00  0.00     0.029 C 
HETATM   22  C   UNL     1      23.990  44.392  51.006  1.00  0.00     0.236 C 
ENDBRANCH  16  17
BRANCH  16  23
HETATM   23  C   UNL     1      25.316  47.845  50.103  1.00  0.00    -0.024 A 
HETATM   24  C   UNL     1      24.388  48.596  49.358  1.00  0.00     0.033 A 
HETATM   25  C   UNL     1      24.820  49.567  48.451  1.00  0.00     0.034 A 
HETATM   26 CL   UNL     1      23.656  50.478  47.573  1.00  0.00    -0.084 Cl
HETATM   27  C   UNL     1      26.177  49.804  48.259  1.00  0.00     0.024 A 
HETATM   28  C   UNL     1      27.111  49.057  48.972  1.00  0.00     0.002 A 
HETATM   29  C   UNL     1      26.685  48.085  49.881  1.00  0.00     0.009 A 
ENDBRANCH  16  23
ENDBRANCH   1  16
TORSDOF 6
ENDMDL
MODEL 3
REMARK VINA RESULT:      -8.1     12.458     14.520
REMARK  6 active torsions:
REMARK  status: ('A' for Active; 'I' for Inactive)
REMARK    1  A    between atoms: C_8  and  C_9 
REMARK    2  A    between atoms: C_9  and  C_10 
REMARK       I    between atoms: C_10  and  N_11 
REMARK    3  A    between atoms: N_11  and  C_12 
REMARK    4  A    between atoms: C_12  and  C_13 
REMARK    5  A    between atoms: C_13  and  N_14 
REMARK    6  A    between atoms: C_13  and  C_20 
ROOT
HETATM    1  C   UNL     1      29.739  48.312  38.725  1.00  0.00     0.160 C 
ENDROOT
BRANCH   1   2
HETATM    2  N   UNL     1      30.087  49.729  38.615  1.00  0.00    -0.358 N 
HETATM    3  C   UNL     1      29.193  50.737  38.315  1.00  0.00     0.226 C 
HETATM    4  O   UNL     1      28.055  50.481  37.921  1.00  0.00    -0.273 OA
HETATM    5  H   UNL     1      30.911  50.024  39.135  1.00  0.00     0.162 HD
BRANCH   3   6
HETATM    6  C   UNL     1      29.747  52.158  38.494  1.00  0.00     0.111 C 
HETATM    7  C   UNL     1      28.784  53.209  37.947  1.00  0.00     0.025 C 
BRANCH   6   8
HETATM    8  C   UNL     1      30.099  52.402  39.936  1.00  0.00     0.004 A 
HETATM    9  C   UNL     1      29.268  52.436  41.046  1.00  0.00     0.033 A 
HETATM   10  C   UNL     1      27.804  52.271  41.212  1.00  0.00     0.070 C 
HETATM   11  N   UNL     1      30.081  52.695  42.116  1.00  0.00    -0.282 N 
HETATM   12  H   UNL     1      29.823  52.813  43.092  1.00  0.00     0.189 HD
HETATM   13  N   UNL     1      31.374  52.781  41.793  1.00  0.00    -0.179 NA
HETATM   14  C   UNL     1      31.398  52.655  40.465  1.00  0.00     0.060 A 
HETATM   15  C   UNL     1      32.691  52.769  39.740  1.00  0.00     0.073 C 
ENDBRANCH   6   8
ENDBRANCH   3   6
ENDBRANCH   1   2
BRANCH   1  16
HETATM   16  C   UNL     1      29.968  47.627  40.118  1.00  0.00     0.238 C 
BRANCH  16  17
HETATM   17  N   UNL     1      28.637  47.320  40.798  1.00  0.00    -0.061 N 
HETATM   18  H   UNL     1      28.884  47.308  41.810  1.00  0.00     0.280 HD
HETATM   19  C   UNL     1      27.977  45.987  40.541  1.00  0.00     0.236 C 
HETATM   20  C   UNL     1      26.627  46.342  39.955  1.00  0.00     0.029 C 
HETATM   21  C   UNL     1      26.266  47.618  40.688  1.00  0.00     0.029 C 
HETATM   22  C   UNL     1      27.573  48.388  40.688  1.00  0.00     0.236 C 
ENDBRANCH  16  17
BRANCH  16  23
HETATM   23  C   UNL     1      30.942  48.394  41.007  1.00  0.00    -0.024 A 
HETATM   24  C   UNL     1      32.274  48.640  40.629  1.00  0.00     0.033 A 
HETATM   25  C   UNL     1      33.126  49.377  41.456  1.00  0.00     0.034 A 
HETATM   26 CL   UNL     1      34.742  49.675  40.950  1.00  0.00    -0.084 Cl
HETATM   27  C   UNL     1      32.677  49.873  42.675  1.00  0.00     0.024 A 
HETATM   28  C   UNL     1      31.368  49.622  43.077  1.00  0.00     0.002 A 
HETATM   29  C   UNL     1      30.510  48.886  42.253  1.00  0.00     0.009 A 
ENDBRANCH  16  23
ENDBRANCH   1  16
TORSDOF 6
ENDMDL
MODEL 4
REMARK VINA RESULT:      -8.1      3.647      7.940
REMARK  6 active torsions:
REMARK  status: ('A' for Active; 'I' for Inactive)
REMARK    1  A    between atoms: C_8  and  C_9 
REMARK    2  A    between atoms: C_9  and  C_10 
REMARK       I    between atoms: C_10  and  N_11 
REMARK    3  A    between atoms: N_11  and  C_12 
REMARK    4  A    between atoms: C_12  and  C_13 
REMARK    5  A    between atoms: C_13  and  N_14 
REMARK    6  A    between atoms: C_13  and  C_20 
ROOT
HETATM    1  C   UNL     1      26.284  46.559  51.283  1.00  0.00     0.160 C 
ENDROOT
BRANCH   1   2
HETATM    2  N   UNL     1      26.321  45.811  52.540  1.00  0.00    -0.358 N 
HETATM    3  C   UNL     1      27.157  44.743  52.795  1.00  0.00     0.226 C 
HETATM    4  O   UNL     1      27.806  44.214  51.892  1.00  0.00    -0.273 OA
HETATM    5  H   UNL     1      26.002  46.316  53.365  1.00  0.00     0.162 HD
BRANCH   3   6
HETATM    6  C   UNL     1      27.180  44.282  54.259  1.00  0.00     0.111 C 
HETATM    7  C   UNL     1      27.119  42.761  54.370  1.00  0.00     0.025 C 
BRANCH   6   8
HETATM    8  C   UNL     1      28.374  44.860  54.969  1.00  0.00     0.004 A 
HETATM    9  C   UNL     1      28.504  46.087  55.605  1.00  0.00     0.033 A 
HETATM   10  C   UNL     1      27.575  47.226  55.795  1.00  0.00     0.070 C 
HETATM   11  N   UNL     1      29.785  46.125  56.087  1.00  0.00    -0.282 N 
HETATM   12  H   UNL     1      30.249  46.876  56.589  1.00  0.00     0.189 HD
HETATM   13  N   UNL     1      30.474  45.004  55.857  1.00  0.00    -0.179 NA
HETATM   14  C   UNL     1      29.648  44.244  55.134  1.00  0.00     0.060 A 
HETATM   15  C   UNL     1      30.114  42.924  54.634  1.00  0.00     0.073 C 
ENDBRANCH   6   8
ENDBRANCH   3   6
ENDBRANCH   1   2
BRANCH   1  16
HETATM   16  C   UNL     1      24.892  46.689  50.570  1.00  0.00     0.238 C 
BRANCH  16  17
HETATM   17  N   UNL     1      24.500  45.374  49.902  1.00  0.00    -0.061 N 
HETATM   18  H   UNL     1      23.887  45.681  49.117  1.00  0.00     0.280 HD
HETATM   19  C   UNL     1      23.674  44.379  50.678  1.00  0.00     0.236 C 
HETATM   20  C   UNL     1      24.525  43.127  50.710  1.00  0.00     0.029 C 
HETATM   21  C   UNL     1      25.222  43.158  49.365  1.00  0.00     0.029 C 
HETATM   22  C   UNL     1      25.618  44.616  49.224  1.00  0.00     0.236 C 
ENDBRANCH  16  17
BRANCH  16  23
HETATM   23  C   UNL     1      24.808  47.894  49.639  1.00  0.00    -0.024 A 
HETATM   24  C   UNL     1      23.585  48.375  49.138  1.00  0.00     0.033 A 
HETATM   25  C   UNL     1      23.546  49.505  48.316  1.00  0.00     0.034 A 
HETATM   26 CL   UNL     1      22.030  50.075  47.738  1.00  0.00    -0.084 Cl
HETATM   27  C   UNL     1      24.716  50.170  47.968  1.00  0.00     0.024 A 
HETATM   28  C   UNL     1      25.939  49.697  48.438  1.00  0.00     0.002 A 
HETATM   29  C   UNL     1      25.984  48.568  49.261  1.00  0.00     0.009 A 
ENDBRANCH  16  23
ENDBRANCH   1  16
TORSDOF 6
ENDMDL
MODEL 5
REMARK VINA RESULT:      -8.1      1.947      2.552
REMARK  6 active torsions:
REMARK  status: ('A' for Active; 'I' for Inactive)
REMARK    1  A    between atoms: C_8  and  C_9 
REMARK    2  A    between atoms: C_9  and  C_10 
REMARK       I    between atoms: C_10  and  N_11 
REMARK    3  A    between atoms: N_11  and  C_12 
REMARK    4  A    between atoms: C_12  and  C_13 
REMARK    5  A    between atoms: C_13  and  N_14 
REMARK    6  A    between atoms: C_13  and  C_20 
ROOT
HETATM    1  C   UNL     1      26.908  45.166  53.180  1.00  0.00     0.160 C 
ENDROOT
BRANCH   1   2
HETATM    2  N   UNL     1      26.518  45.789  51.914  1.00  0.00    -0.358 N 
HETATM    3  C   UNL     1      25.825  46.978  51.804  1.00  0.00     0.226 C 
HETATM    4  O   UNL     1      25.308  47.506  52.790  1.00  0.00    -0.273 OA
HETATM    5  H   UNL     1      27.089  45.546  51.107  1.00  0.00     0.162 HD
BRANCH   3   6
HETATM    6  C   UNL     1      25.746  47.543  50.380  1.00  0.00     0.111 C 
HETATM    7  C   UNL     1      26.880  47.020  49.504  1.00  0.00     0.025 C 
BRANCH   6   8
HETATM    8  C   UNL     1      24.391  47.269  49.785  1.00  0.00     0.004 A 
HETATM    9  C   UNL     1      23.734  46.057  49.627  1.00  0.00     0.033 A 
HETATM   10  C   UNL     1      24.109  44.660  49.951  1.00  0.00     0.070 C 
HETATM   11  N   UNL     1      22.537  46.353  49.034  1.00  0.00    -0.282 N 
HETATM   12  H   UNL     1      21.800  45.717  48.745  1.00  0.00     0.189 HD
HETATM   13  N   UNL     1      22.347  47.662  48.843  1.00  0.00    -0.179 NA
HETATM   14  C   UNL     1      23.485  48.229  49.247  1.00  0.00     0.060 A 
HETATM   15  C   UNL     1      23.660  49.699  49.117  1.00  0.00     0.073 C 
ENDBRANCH   6   8
ENDBRANCH   3   6
ENDBRANCH   1   2
BRANCH   1  16
HETATM   16  C   UNL     1      28.096  44.141  53.133  1.00  0.00     0.238 C 
BRANCH  16  17
HETATM   17  N   UNL     1      27.583  42.726  52.883  1.00  0.00    -0.061 N 
HETATM   18  H   UNL     1      26.623  42.746  53.291  1.00  0.00     0.280 HD
HETATM   19  C   UNL     1      28.272  41.569  53.564  1.00  0.00     0.236 C 
HETATM   20  C   UNL     1      28.741  40.689  52.425  1.00  0.00     0.029 C 
HETATM   21  C   UNL     1      27.643  40.856  51.395  1.00  0.00     0.029 C 
HETATM   22  C   UNL     1      27.364  42.346  51.437  1.00  0.00     0.236 C 
ENDBRANCH  16  17
BRANCH  16  23
HETATM   23  C   UNL     1      29.024  44.248  54.339  1.00  0.00    -0.024 A 
HETATM   24  C   UNL     1      28.765  45.114  55.416  1.00  0.00     0.033 A 
HETATM   25  C   UNL     1      29.621  45.157  56.519  1.00  0.00     0.034 A 
HETATM   26 CL   UNL     1      29.261  46.215  57.826  1.00  0.00    -0.084 Cl
HETATM   27  C   UNL     1      30.754  44.352  56.570  1.00  0.00     0.024 A 
HETATM   28  C   UNL     1      31.038  43.502  55.504  1.00  0.00     0.002 A 
HETATM   29  C   UNL     1      30.184  43.454  54.398  1.00  0.00     0.009 A 
ENDBRANCH  16  23
ENDBRANCH   1  16
TORSDOF 6
ENDMDL
MODEL 6
REMARK VINA RESULT:      -8.0     12.599     15.400
REMARK  6 active torsions:
REMARK  status: ('A' for Active; 'I' for Inactive)
REMARK    1  A    between atoms: C_8  and  C_9 
REMARK    2  A    between atoms: C_9  and  C_10 
REMARK       I    between atoms: C_10  and  N_11 
REMARK    3  A    between atoms: N_11  and  C_12 
REMARK    4  A    between atoms: C_12  and  C_13 
REMARK    5  A    between atoms: C_13  and  N_14 
REMARK    6  A    between atoms: C_13  and  C_20 
ROOT
HETATM    1  C   UNL     1      29.219  48.668  41.765  1.00  0.00     0.160 C 
ENDROOT
BRANCH   1   2
HETATM    2  N   UNL     1      29.860  49.876  42.288  1.00  0.00    -0.358 N 
HETATM    3  C   UNL     1      31.180  49.956  42.684  1.00  0.00     0.226 C 
HETATM    4  O   UNL     1      31.869  48.944  42.809  1.00  0.00    -0.273 OA
HETATM    5  H   UNL     1      29.441  50.759  42.000  1.00  0.00     0.162 HD
BRANCH   3   6
HETATM    6  C   UNL     1      31.678  51.381  42.965  1.00  0.00     0.111 C 
HETATM    7  C   UNL     1      32.472  51.452  44.267  1.00  0.00     0.025 C 
BRANCH   6   8
HETATM    8  C   UNL     1      32.461  51.901  41.790  1.00  0.00     0.004 A 
HETATM    9  C   UNL     1      33.722  51.530  41.346  1.00  0.00     0.033 A 
HETATM   10  C   UNL     1      34.718  50.553  41.847  1.00  0.00     0.070 C 
HETATM   11  N   UNL     1      33.974  52.302  40.244  1.00  0.00    -0.282 N 
HETATM   12  H   UNL     1      34.809  52.325  39.667  1.00  0.00     0.189 HD
HETATM   13  N   UNL     1      32.958  53.103  39.912  1.00  0.00    -0.179 NA
HETATM   14  C   UNL     1      32.050  52.909  40.870  1.00  0.00     0.060 A 
HETATM   15  C   UNL     1      30.791  53.699  40.860  1.00  0.00     0.073 C 
ENDBRANCH   6   8
ENDBRANCH   3   6
ENDBRANCH   1   2
BRANCH   1  16
HETATM   16  C   UNL     1      28.340  48.828  40.475  1.00  0.00     0.238 C 
BRANCH  16  17
HETATM   17  N   UNL     1      28.194  47.495  39.749  1.00  0.00    -0.061 N 
HETATM   18  H   UNL     1      27.480  46.992  40.318  1.00  0.00     0.280 HD
HETATM   19  C   UNL     1      29.378  46.561  39.692  1.00  0.00     0.236 C 
HETATM   20  C   UNL     1      29.636  46.371  38.212  1.00  0.00     0.029 C 
HETATM   21  C   UNL     1      28.243  46.409  37.619  1.00  0.00     0.029 C 
HETATM   22  C   UNL     1      27.589  47.556  38.365  1.00  0.00     0.236 C 
ENDBRANCH  16  17
BRANCH  16  23
HETATM   23  C   UNL     1      28.807  49.966  39.572  1.00  0.00    -0.024 A 
HETATM   24  C   UNL     1      30.106  50.019  39.036  1.00  0.00     0.033 A 
HETATM   25  C   UNL     1      30.484  51.059  38.184  1.00  0.00     0.034 A 
HETATM   26 CL   UNL     1      32.076  51.080  37.533  1.00  0.00    -0.084 Cl
HETATM   27  C   UNL     1      29.587  52.069  37.855  1.00  0.00     0.024 A 
HETATM   28  C   UNL     1      28.301  52.045  38.390  1.00  0.00     0.002 A 
HETATM   29  C   UNL     1      27.917  51.006  39.244  1.00  0.00     0.009 A 
ENDBRANCH  16  23
ENDBRANCH   1  16
TORSDOF 6
ENDMDL
MODEL 7
REMARK VINA RESULT:      -7.9     12.773     14.918
REMARK  6 active torsions:
REMARK  status: ('A' for Active; 'I' for Inactive)
REMARK    1  A    between atoms: C_8  and  C_9 
REMARK    2  A    between atoms: C_9  and  C_10 
REMARK       I    between atoms: C_10  and  N_11 
REMARK    3  A    between atoms: N_11  and  C_12 
REMARK    4  A    between atoms: C_12  and  C_13 
REMARK    5  A    between atoms: C_13  and  N_14 
REMARK    6  A    between atoms: C_13  and  C_20 
ROOT
HETATM    1  C   UNL     1      30.724  47.861  40.914  1.00  0.00     0.160 C 
ENDROOT
BRANCH   1   2
HETATM    2  N   UNL     1      31.642  48.868  41.449  1.00  0.00    -0.358 N 
HETATM    3  C   UNL     1      33.017  48.751  41.460  1.00  0.00     0.226 C 
HETATM    4  O   UNL     1      33.567  47.683  41.191  1.00  0.00    -0.273 OA
HETATM    5  H   UNL     1      31.289  49.823  41.464  1.00  0.00     0.162 HD
BRANCH   3   6
HETATM    6  C   UNL     1      33.765  50.034  41.849  1.00  0.00     0.111 C 
HETATM    7  C   UNL     1      35.106  50.143  41.128  1.00  0.00     0.025 C 
BRANCH   6   8
HETATM    8  C   UNL     1      32.892  51.237  41.617  1.00  0.00     0.004 A 
HETATM    9  C   UNL     1      32.588  51.880  40.425  1.00  0.00     0.033 A 
HETATM   10  C   UNL     1      33.000  51.644  39.021  1.00  0.00     0.070 C 
HETATM   11  N   UNL     1      31.757  52.915  40.759  1.00  0.00    -0.282 N 
HETATM   12  H   UNL     1      31.347  53.618  40.151  1.00  0.00     0.189 HD
HETATM   13  N   UNL     1      31.461  52.962  42.061  1.00  0.00    -0.179 NA
HETATM   14  C   UNL     1      32.183  51.980  42.605  1.00  0.00     0.060 A 
HETATM   15  C   UNL     1      32.153  51.775  44.077  1.00  0.00     0.073 C 
ENDBRANCH   6   8
ENDBRANCH   3   6
ENDBRANCH   1   2
BRANCH   1  16
HETATM   16  C   UNL     1      29.195  48.209  40.929  1.00  0.00     0.238 C 
BRANCH  16  17
HETATM   17  N   UNL     1      28.404  47.221  40.077  1.00  0.00    -0.061 N 
HETATM   18  H   UNL     1      28.055  47.811  39.292  1.00  0.00     0.280 HD
HETATM   19  C   UNL     1      27.170  46.578  40.662  1.00  0.00     0.236 C 
HETATM   20  C   UNL     1      27.457  45.093  40.604  1.00  0.00     0.029 C 
HETATM   21  C   UNL     1      28.264  44.954  39.330  1.00  0.00     0.029 C 
HETATM   22  C   UNL     1      29.210  46.138  39.398  1.00  0.00     0.236 C 
ENDBRANCH  16  17
BRANCH  16  23
HETATM   23  C   UNL     1      28.911  49.669  40.589  1.00  0.00    -0.024 A 
HETATM   24  C   UNL     1      29.327  50.256  39.381  1.00  0.00     0.033 A 
HETATM   25  C   UNL     1      29.016  51.587  39.091  1.00  0.00     0.034 A 
HETATM   26 CL   UNL     1      29.524  52.265  37.594  1.00  0.00    -0.084 Cl
HETATM   27  C   UNL     1      28.299  52.362  39.996  1.00  0.00     0.024 A 
HETATM   28  C   UNL     1      27.896  51.805  41.206  1.00  0.00     0.002 A 
HETATM   29  C   UNL     1      28.203  50.473  41.502  1.00  0.00     0.009 A 
ENDBRANCH  16  23
ENDBRANCH   1  16
TORSDOF 6
ENDMDL
MODEL 8
REMARK VINA RESULT:      -7.9      4.677      7.419
REMARK  6 active torsions:
REMARK  status: ('A' for Active; 'I' for Inactive)
REMARK    1  A    between atoms: C_8  and  C_9 
REMARK    2  A    between atoms: C_9  and  C_10 
REMARK       I    between atoms: C_10  and  N_11 
REMARK    3  A    between atoms: N_11  and  C_12 
REMARK    4  A    between atoms: C_12  and  C_13 
REMARK    5  A    between atoms: C_13  and  N_14 
REMARK    6  A    between atoms: C_13  and  C_20 
ROOT
HETATM    1  C   UNL     1      23.106  47.637  49.278  1.00  0.00     0.160 C 
ENDROOT
BRANCH   1   2
HETATM    2  N   UNL     1      22.034  48.588  49.575  1.00  0.00    -0.358 N 
HETATM    3  C   UNL     1      21.609  49.586  48.721  1.00  0.00     0.226 C 
HETATM    4  O   UNL     1      22.250  49.873  47.710  1.00  0.00    -0.273 OA
HETATM    5  H   UNL     1      21.340  48.274  50.251  1.00  0.00     0.162 HD
BRANCH   3   6
HETATM    6  C   UNL     1      20.318  50.293  49.155  1.00  0.00     0.111 C 
HETATM    7  C   UNL     1      20.204  51.684  48.537  1.00  0.00     0.025 C 
BRANCH   6   8
HETATM    8  C   UNL     1      19.123  49.432  48.847  1.00  0.00     0.004 A 
HETATM    9  C   UNL     1      18.511  49.190  47.625  1.00  0.00     0.033 A 
HETATM   10  C   UNL     1      18.780  49.677  46.251  1.00  0.00     0.070 C 
HETATM   11  N   UNL     1      17.470  48.340  47.888  1.00  0.00    -0.282 N 
HETATM   12  H   UNL     1      16.784  47.962  47.242  1.00  0.00     0.189 HD
HETATM   13  N   UNL     1      17.393  47.976  49.171  1.00  0.00    -0.179 NA
HETATM   14  C   UNL     1      18.359  48.669  49.777  1.00  0.00     0.060 A 
HETATM   15  C   UNL     1      18.527  48.561  51.250  1.00  0.00     0.073 C 
ENDBRANCH   6   8
ENDBRANCH   3   6
ENDBRANCH   1   2
BRANCH   1  16
HETATM   16  C   UNL     1      24.467  47.839  50.031  1.00  0.00     0.238 C 
BRANCH  16  17
HETATM   17  N   UNL     1      25.574  48.232  49.058  1.00  0.00    -0.061 N 
HETATM   18  H   UNL     1      25.317  47.721  48.187  1.00  0.00     0.280 HD
HETATM   19  C   UNL     1      26.992  47.809  49.355  1.00  0.00     0.236 C 
HETATM   20  C   UNL     1      27.764  49.110  49.433  1.00  0.00     0.029 C 
HETATM   21  C   UNL     1      27.074  49.974  48.398  1.00  0.00     0.029 C 
HETATM   22  C   UNL     1      25.605  49.685  48.640  1.00  0.00     0.236 C 
ENDBRANCH  16  17
BRANCH  16  23
HETATM   23  C   UNL     1      24.835  46.660  50.927  1.00  0.00    -0.024 A 
HETATM   24  C   UNL     1      24.586  45.326  50.558  1.00  0.00     0.033 A 
HETATM   25  C   UNL     1      24.970  44.271  51.390  1.00  0.00     0.034 A 
HETATM   26 CL   UNL     1      24.666  42.653  50.895  1.00  0.00    -0.084 Cl
HETATM   27  C   UNL     1      25.597  44.520  52.606  1.00  0.00     0.024 A 
HETATM   28  C   UNL     1      25.834  45.835  52.999  1.00  0.00     0.002 A 
HETATM   29  C   UNL     1      25.453  46.894  52.169  1.00  0.00     0.009 A 
ENDBRANCH  16  23
ENDBRANCH   1  16
TORSDOF 6
ENDMDL
MODEL 9
REMARK VINA RESULT:      -7.8     12.372     14.525
REMARK  6 active torsions:
REMARK  status: ('A' for Active; 'I' for Inactive)
REMARK    1  A    between atoms: C_8  and  C_9 
REMARK    2  A    between atoms: C_9  and  C_10 
REMARK       I    between atoms: C_10  and  N_11 
REMARK    3  A    between atoms: N_11  and  C_12 
REMARK    4  A    between atoms: C_12  and  C_13 
REMARK    5  A    between atoms: C_13  and  N_14 
REMARK    6  A    between atoms: C_13  and  C_20 
ROOT
HETATM    1  C   UNL     1      26.721  49.922  39.842  1.00  0.00     0.160 C 
ENDROOT
BRANCH   1   2
HETATM    2  N   UNL     1      27.691  50.914  39.375  1.00  0.00    -0.358 N 
HETATM    3  C   UNL     1      28.182  51.953  40.139  1.00  0.00     0.226 C 
HETATM    4  O   UNL     1      27.679  52.235  41.227  1.00  0.00    -0.273 OA
HETATM    5  H   UNL     1      28.295  50.615  38.612  1.00  0.00     0.162 HD
BRANCH   3   6
HETATM    6  C   UNL     1      29.361  52.708  39.509  1.00  0.00     0.111 C 
HETATM    7  C   UNL     1      29.232  54.217  39.707  1.00  0.00     0.025 C 
BRANCH   6   8
HETATM    8  C   UNL     1      30.665  52.173  40.037  1.00  0.00     0.004 A 
HETATM    9  C   UNL     1      31.155  52.187  41.335  1.00  0.00     0.033 A 
HETATM   10  C   UNL     1      30.616  52.720  42.608  1.00  0.00     0.070 C 
HETATM   11  N   UNL     1      32.379  51.577  41.280  1.00  0.00    -0.282 N 
HETATM   12  H   UNL     1      33.043  51.424  42.033  1.00  0.00     0.189 HD
HETATM   13  N   UNL     1      32.695  51.127  40.062  1.00  0.00    -0.179 NA
HETATM   14  C   UNL     1      31.687  51.525  39.284  1.00  0.00     0.060 A 
HETATM   15  C   UNL     1      31.733  51.250  37.824  1.00  0.00     0.073 C 
ENDBRANCH   6   8
ENDBRANCH   3   6
ENDBRANCH   1   2
BRANCH   1  16
HETATM   16  C   UNL     1      27.195  48.428  39.889  1.00  0.00     0.238 C 
BRANCH  16  17
HETATM   17  N   UNL     1      26.398  47.637  40.921  1.00  0.00    -0.061 N 
HETATM   18  H   UNL     1      26.552  48.173  41.802  1.00  0.00     0.280 HD
HETATM   19  C   UNL     1      26.821  46.225  41.245  1.00  0.00     0.236 C 
HETATM   20  C   UNL     1      25.607  45.383  40.912  1.00  0.00     0.029 C 
HETATM   21  C   UNL     1      24.454  46.292  41.284  1.00  0.00     0.029 C 
HETATM   22  C   UNL     1      24.897  47.639  40.744  1.00  0.00     0.236 C 
ENDBRANCH  16  17
BRANCH  16  23
HETATM   23  C   UNL     1      28.706  48.285  40.047  1.00  0.00    -0.024 A 
HETATM   24  C   UNL     1      29.366  48.551  41.260  1.00  0.00     0.033 A 
HETATM   25  C   UNL     1      30.747  48.374  41.374  1.00  0.00     0.034 A 
HETATM   26 CL   UNL     1      31.516  48.691  42.879  1.00  0.00    -0.084 Cl
HETATM   27  C   UNL     1      31.499  47.941  40.288  1.00  0.00     0.024 A 
HETATM   28  C   UNL     1      30.867  47.691  39.073  1.00  0.00     0.002 A 
HETATM   29  C   UNL     1      29.485  47.865  38.952  1.00  0.00     0.009 A 
ENDBRANCH  16  23
ENDBRANCH   1  16
TORSDOF 6
ENDMDL
MODEL 10
REMARK VINA RESULT:      -7.8     12.715     14.099
REMARK  6 active torsions:
REMARK  status: ('A' for Active; 'I' for Inactive)
REMARK    1  A    between atoms: C_8  and  C_9 
REMARK    2  A    between atoms: C_9  and  C_10 
REMARK       I    between atoms: C_10  and  N_11 
REMARK    3  A    between atoms: N_11  and  C_12 
REMARK    4  A    between atoms: C_12  and  C_13 
REMARK    5  A    between atoms: C_13  and  N_14 
REMARK    6  A    between atoms: C_13  and  C_20 
ROOT
HETATM    1  C   UNL     1      31.286  49.047  42.401  1.00  0.00     0.160 C 
ENDROOT
BRANCH   1   2
HETATM    2  N   UNL     1      30.696  48.609  41.135  1.00  0.00    -0.358 N 
HETATM    3  C   UNL     1      29.370  48.269  40.962  1.00  0.00     0.226 C 
HETATM    4  O   UNL     1      28.620  48.122  41.928  1.00  0.00    -0.273 OA
HETATM    5  H   UNL     1      31.176  48.921  40.292  1.00  0.00     0.162 HD
BRANCH   3   6
HETATM    6  C   UNL     1      28.944  48.076  39.500  1.00  0.00     0.111 C 
HETATM    7  C   UNL     1      28.241  46.737  39.292  1.00  0.00     0.025 C 
BRANCH   6   8
HETATM    8  C   UNL     1      28.105  49.239  39.044  1.00  0.00     0.004 A 
HETATM    9  C   UNL     1      26.730  49.410  39.124  1.00  0.00     0.033 A 
HETATM   10  C   UNL     1      25.638  48.553  39.642  1.00  0.00     0.070 C 
HETATM   11  N   UNL     1      26.472  50.635  38.569  1.00  0.00    -0.282 N 
HETATM   12  H   UNL     1      25.574  51.090  38.433  1.00  0.00     0.189 HD
HETATM   13  N   UNL     1      27.572  51.287  38.185  1.00  0.00    -0.179 NA
HETATM   14  C   UNL     1      28.570  50.432  38.419  1.00  0.00     0.060 A 
HETATM   15  C   UNL     1      29.959  50.805  38.045  1.00  0.00     0.073 C 
ENDBRANCH   6   8
ENDBRANCH   3   6
ENDBRANCH   1   2
BRANCH   1  16
HETATM   16  C   UNL     1      31.449  50.593  42.614  1.00  0.00     0.238 C 
BRANCH  16  17
HETATM   17  N   UNL     1      30.827  51.369  41.458  1.00  0.00    -0.061 N 
HETATM   18  H   UNL     1      30.662  50.633  40.739  1.00  0.00     0.280 HD
HETATM   19  C   UNL     1      31.653  52.420  40.757  1.00  0.00     0.236 C 
HETATM   20  C   UNL     1      30.858  53.698  40.926  1.00  0.00     0.029 C 
HETATM   21  C   UNL     1      29.424  53.213  40.866  1.00  0.00     0.029 C 
HETATM   22  C   UNL     1      29.457  51.954  41.712  1.00  0.00     0.236 C 
ENDBRANCH  16  17
BRANCH  16  23
HETATM   23  C   UNL     1      32.885  51.006  42.922  1.00  0.00    -0.024 A 
HETATM   24  C   UNL     1      33.973  50.597  42.132  1.00  0.00     0.033 A 
HETATM   25  C   UNL     1      35.270  51.026  42.426  1.00  0.00     0.034 A 
HETATM   26 CL   UNL     1      36.573  50.521  41.424  1.00  0.00    -0.084 Cl
HETATM   27  C   UNL     1      35.512  51.857  43.514  1.00  0.00     0.024 A 
HETATM   28  C   UNL     1      34.450  52.257  44.321  1.00  0.00     0.002 A 
HETATM   29  C   UNL     1      33.151  51.832  44.031  1.00  0.00     0.009 A 
ENDBRANCH  16  23
ENDBRANCH   1  16
TORSDOF 6
ENDMDL
