MODEL 1
REMARK VINA RESULT:      -9.6      0.000      0.000
REMARK  6 active torsions:
REMARK  status: ('A' for Active; 'I' for Inactive)
REMARK    1  A    between atoms: C_2  and  S_3 
REMARK    2  A    between atoms: S_3  and  C_4 
REMARK    3  A    between atoms: C_5  and  C_6 
REMARK       I    between atoms: C_6  and  N_7 
REMARK    4  A    between atoms: N_7  and  C_8 
REMARK    5  A    between atoms: N_9  and  C_10 
REMARK    6  A    between atoms: C_21  and  C_22 
ROOT
HETATM    1  C   UNL     1      28.306  41.640  51.301  1.00  0.00     0.152 A 
HETATM    2  N   UNL     1      27.335  42.110  50.428  1.00  0.00    -0.044 N 
HETATM    3  N   UNL     1      26.950  41.167  49.515  1.00  0.00    -0.148 NA
HETATM    4  C   UNL     1      27.696  40.098  49.827  1.00  0.00     0.115 A 
HETATM    5  C   UNL     1      28.546  40.338  50.927  1.00  0.00     0.087 A 
ENDROOT
BRANCH   1   6
HETATM    6  N   UNL     1      28.842  42.433  52.302  1.00  0.00    -0.307 N 
HETATM    7  C   UNL     1      28.374  42.442  53.600  1.00  0.00     0.258 C 
HETATM    8  O   UNL     1      27.403  41.846  54.047  1.00  0.00    -0.267 OA
HETATM    9  H   UNL     1      29.607  43.058  52.045  1.00  0.00     0.170 HD
BRANCH   7  10
HETATM   10  C   UNL     1      29.114  43.370  54.481  1.00  0.00     0.049 A 
HETATM   11  C   UNL     1      28.646  44.659  54.784  1.00  0.00     0.016 A 
HETATM   12  C   UNL     1      29.407  45.457  55.651  1.00  0.00     0.019 A 
HETATM   13  C   UNL     1      30.595  44.975  56.211  1.00  0.00     0.001 A 
HETATM   14  C   UNL     1      31.049  43.696  55.899  1.00  0.00     0.001 A 
HETATM   15  C   UNL     1      30.314  42.894  55.030  1.00  0.00     0.018 A 
BRANCH  11  16
HETATM   16  S   UNL     1      27.180  45.372  54.048  1.00  0.00    -0.129 SA
BRANCH  16  17
HETATM   17  C   UNL     1      27.400  47.110  54.541  1.00  0.00     0.075 C 
HETATM   18  C   UNL     1      26.072  47.841  54.459  1.00  0.00     0.016 C 
ENDBRANCH  16  17
ENDBRANCH  11  16
ENDBRANCH   7  10
ENDBRANCH   1   6
BRANCH   2  19
HETATM   19  C   UNL     1      26.738  43.385  50.402  1.00  0.00     0.732 A 
HETATM   20  N   UNL     1      27.324  44.440  49.912  1.00  0.00    -0.067 NA
HETATM   21  C   UNL     1      26.575  45.580  49.992  1.00  0.00     0.065 A 
HETATM   22  C   UNL     1      25.349  45.680  50.505  1.00  0.00     0.036 A 
HETATM   23  C   UNL     1      27.061  46.901  49.497  1.00  0.00     0.061 C 
HETATM   24  C   UNL     1      24.795  47.051  50.455  1.00  0.00     0.047 C 
HETATM   25  C   UNL     1      24.703  44.485  51.048  1.00  0.00     0.268 A 
HETATM   26  C   UNL     1      26.040  47.875  50.103  1.00  0.00     0.011 C 
HETATM   27  O   UNL     1      23.581  44.503  51.532  1.00  0.00    -0.267 OA
HETATM   28  N   UNL     1      25.479  43.364  50.957  1.00  0.00    -0.152 N 
HETATM   29  H   UNL     1      25.114  42.485  51.312  1.00  0.00     0.188 HD
ENDBRANCH   2  19
BRANCH   4  30
HETATM   30  C   UNL     1      27.617  38.813  49.074  1.00  0.00     0.105 A 
HETATM   31  O   UNL     1      28.263  38.568  47.892  1.00  0.00    -0.320 OA
HETATM   32  C   UNL     1      27.949  37.304  47.513  1.00  0.00     0.142 A 
HETATM   33  C   UNL     1      27.110  36.719  48.431  1.00  0.00     0.027 A 
HETATM   34  C   UNL     1      26.895  37.691  49.439  1.00  0.00     0.041 A 
ENDBRANCH   4  30
TORSDOF 6
ENDMDL
MODEL 2
REMARK VINA RESULT:      -9.0      1.956      7.312
REMARK  6 active torsions:
REMARK  status: ('A' for Active; 'I' for Inactive)
REMARK    1  A    between atoms: C_2  and  S_3 
REMARK    2  A    between atoms: S_3  and  C_4 
REMARK    3  A    between atoms: C_5  and  C_6 
REMARK       I    between atoms: C_6  and  N_7 
REMARK    4  A    between atoms: N_7  and  C_8 
REMARK    5  A    between atoms: N_9  and  C_10 
REMARK    6  A    between atoms: C_21  and  C_22 
ROOT
HETATM    1  C   UNL     1      27.562  43.355  52.347  1.00  0.00     0.152 A 
HETATM    2  N   UNL     1      28.422  42.269  52.269  1.00  0.00    -0.044 N 
HETATM    3  N   UNL     1      29.365  42.274  53.259  1.00  0.00    -0.148 NA
HETATM    4  C   UNL     1      29.086  43.383  53.958  1.00  0.00     0.115 A 
HETATM    5  C   UNL     1      27.978  44.082  53.438  1.00  0.00     0.087 A 
ENDROOT
BRANCH   1   6
HETATM    6  N   UNL     1      26.535  43.548  51.437  1.00  0.00    -0.307 N 
HETATM    7  C   UNL     1      25.249  43.890  51.803  1.00  0.00     0.258 C 
HETATM    8  O   UNL     1      24.797  43.993  52.935  1.00  0.00    -0.267 OA
HETATM    9  H   UNL     1      26.749  43.401  50.451  1.00  0.00     0.170 HD
BRANCH   7  10
HETATM   10  C   UNL     1      24.337  44.042  50.650  1.00  0.00     0.049 A 
HETATM   11  C   UNL     1      24.104  45.280  50.029  1.00  0.00     0.016 A 
HETATM   12  C   UNL     1      23.241  45.319  48.924  1.00  0.00     0.019 A 
HETATM   13  C   UNL     1      22.639  44.153  48.443  1.00  0.00     0.001 A 
HETATM   14  C   UNL     1      22.876  42.931  49.070  1.00  0.00     0.001 A 
HETATM   15  C   UNL     1      23.720  42.875  50.177  1.00  0.00     0.018 A 
BRANCH  11  16
HETATM   16  S   UNL     1      24.776  46.825  50.632  1.00  0.00    -0.129 SA
BRANCH  16  17
HETATM   17  C   UNL     1      26.380  46.820  49.772  1.00  0.00     0.075 C 
HETATM   18  C   UNL     1      26.802  48.245  49.461  1.00  0.00     0.016 C 
ENDBRANCH  16  17
ENDBRANCH  11  16
ENDBRANCH   7  10
ENDBRANCH   1   6
BRANCH   2  19
HETATM   19  C   UNL     1      28.407  41.219  51.329  1.00  0.00     0.732 A 
HETATM   20  N   UNL     1      27.781  41.287  50.190  1.00  0.00    -0.067 NA
HETATM   21  C   UNL     1      27.885  40.157  49.428  1.00  0.00     0.065 A 
HETATM   22  C   UNL     1      28.555  39.051  49.754  1.00  0.00     0.036 A 
HETATM   23  C   UNL     1      27.236  40.020  48.092  1.00  0.00     0.061 C 
HETATM   24  C   UNL     1      28.481  37.989  48.726  1.00  0.00     0.047 C 
HETATM   25  C   UNL     1      29.256  38.991  51.036  1.00  0.00     0.268 A 
HETATM   26  C   UNL     1      27.361  38.515  47.818  1.00  0.00     0.011 C 
HETATM   27  O   UNL     1      29.890  38.011  51.398  1.00  0.00    -0.267 OA
HETATM   28  N   UNL     1      29.128  40.134  51.774  1.00  0.00    -0.152 N 
HETATM   29  H   UNL     1      29.580  40.185  52.682  1.00  0.00     0.188 HD
ENDBRANCH   2  19
BRANCH   4  30
HETATM   30  C   UNL     1      29.881  43.806  55.147  1.00  0.00     0.105 A 
HETATM   31  O   UNL     1      29.705  44.987  55.816  1.00  0.00    -0.320 OA
HETATM   32  C   UNL     1      30.607  45.018  56.829  1.00  0.00     0.142 A 
HETATM   33  C   UNL     1      31.367  43.874  56.833  1.00  0.00     0.027 A 
HETATM   34  C   UNL     1      30.901  43.090  55.749  1.00  0.00     0.041 A 
ENDBRANCH   4  30
TORSDOF 6
ENDMDL
MODEL 3
REMARK VINA RESULT:      -8.9      2.428      6.313
REMARK  6 active torsions:
REMARK  status: ('A' for Active; 'I' for Inactive)
REMARK    1  A    between atoms: C_2  and  S_3 
REMARK    2  A    between atoms: S_3  and  C_4 
REMARK    3  A    between atoms: C_5  and  C_6 
REMARK       I    between atoms: C_6  and  N_7 
REMARK    4  A    between atoms: N_7  and  C_8 
REMARK    5  A    between atoms: N_9  and  C_10 
REMARK    6  A    between atoms: C_21  and  C_22 
ROOT
HETATM    1  C   UNL     1      25.937  45.710  50.698  1.00  0.00     0.152 A 
HETATM    2  N   UNL     1      25.256  44.983  49.733  1.00  0.00    -0.044 N 
HETATM    3  N   UNL     1      24.255  45.703  49.142  1.00  0.00    -0.148 NA
HETATM    4  C   UNL     1      24.317  46.895  49.752  1.00  0.00     0.115 A 
HETATM    5  C   UNL     1      25.343  46.951  50.718  1.00  0.00     0.087 A 
ENDROOT
BRANCH   1   6
HETATM    6  N   UNL     1      26.985  45.169  51.425  1.00  0.00    -0.307 N 
HETATM    7  C   UNL     1      26.808  44.372  52.538  1.00  0.00     0.258 C 
HETATM    8  O   UNL     1      25.755  44.090  53.094  1.00  0.00    -0.267 OA
HETATM    9  H   UNL     1      27.931  45.402  51.125  1.00  0.00     0.170 HD
BRANCH   7  10
HETATM   10  C   UNL     1      28.081  43.915  53.135  1.00  0.00     0.049 A 
HETATM   11  C   UNL     1      28.596  44.459  54.323  1.00  0.00     0.016 A 
HETATM   12  C   UNL     1      29.798  43.941  54.826  1.00  0.00     0.019 A 
HETATM   13  C   UNL     1      30.460  42.900  54.169  1.00  0.00     0.001 A 
HETATM   14  C   UNL     1      29.940  42.372  52.989  1.00  0.00     0.001 A 
HETATM   15  C   UNL     1      28.754  42.881  52.468  1.00  0.00     0.018 A 
BRANCH  11  16
HETATM   16  S   UNL     1      27.848  45.842  55.178  1.00  0.00    -0.129 SA
BRANCH  16  17
HETATM   17  C   UNL     1      29.204  46.274  56.312  1.00  0.00     0.075 C 
HETATM   18  C   UNL     1      28.755  46.081  57.749  1.00  0.00     0.016 C 
ENDBRANCH  16  17
ENDBRANCH  11  16
ENDBRANCH   7  10
ENDBRANCH   1   6
BRANCH   2  19
HETATM   19  C   UNL     1      25.491  43.656  49.323  1.00  0.00     0.732 A 
HETATM   20  N   UNL     1      26.682  43.137  49.226  1.00  0.00    -0.067 NA
HETATM   21  C   UNL     1      26.691  41.838  48.803  1.00  0.00     0.065 A 
HETATM   22  C   UNL     1      25.620  41.103  48.503  1.00  0.00     0.036 A 
HETATM   23  C   UNL     1      27.949  41.059  48.615  1.00  0.00     0.061 C 
HETATM   24  C   UNL     1      25.948  39.727  48.068  1.00  0.00     0.047 C 
HETATM   25  C   UNL     1      24.289  41.698  48.621  1.00  0.00     0.268 A 
HETATM   26  C   UNL     1      27.461  39.829  47.835  1.00  0.00     0.011 C 
HETATM   27  O   UNL     1      23.265  41.083  48.365  1.00  0.00    -0.267 OA
HETATM   28  N   UNL     1      24.315  42.998  49.042  1.00  0.00    -0.152 N 
HETATM   29  H   UNL     1      23.437  43.496  49.150  1.00  0.00     0.188 HD
ENDBRANCH   2  19
BRANCH   4  30
HETATM   30  C   UNL     1      23.387  48.015  49.428  1.00  0.00     0.105 A 
HETATM   31  O   UNL     1      23.576  49.314  49.814  1.00  0.00    -0.320 OA
HETATM   32  C   UNL     1      22.529  50.034  49.340  1.00  0.00     0.142 A 
HETATM   33  C   UNL     1      21.660  49.225  48.649  1.00  0.00     0.027 A 
HETATM   34  C   UNL     1      22.212  47.922  48.705  1.00  0.00     0.041 A 
ENDBRANCH   4  30
TORSDOF 6
ENDMDL
MODEL 4
REMARK VINA RESULT:      -8.7      2.512      6.918
REMARK  6 active torsions:
REMARK  status: ('A' for Active; 'I' for Inactive)
REMARK    1  A    between atoms: C_2  and  S_3 
REMARK    2  A    between atoms: S_3  and  C_4 
REMARK    3  A    between atoms: C_5  and  C_6 
REMARK       I    between atoms: C_6  and  N_7 
REMARK    4  A    between atoms: N_7  and  C_8 
REMARK    5  A    between atoms: N_9  and  C_10 
REMARK    6  A    between atoms: C_21  and  C_22 
ROOT
HETATM    1  C   UNL     1      29.351  42.733  53.070  1.00  0.00     0.152 A 
HETATM    2  N   UNL     1      28.406  43.748  53.054  1.00  0.00    -0.044 N 
HETATM    3  N   UNL     1      28.515  44.583  54.131  1.00  0.00    -0.148 NA
HETATM    4  C   UNL     1      29.541  44.074  54.827  1.00  0.00     0.115 A 
HETATM    5  C   UNL     1      30.096  42.933  54.210  1.00  0.00     0.087 A 
ENDROOT
BRANCH   1   6
HETATM    6  N   UNL     1      29.417  41.771  52.074  1.00  0.00    -0.307 N 
HETATM    7  C   UNL     1      28.511  40.737  51.954  1.00  0.00     0.258 C 
HETATM    8  O   UNL     1      27.593  40.456  52.713  1.00  0.00    -0.267 OA
HETATM    9  H   UNL     1      30.195  41.830  51.418  1.00  0.00     0.170 HD
BRANCH   7  10
HETATM   10  C   UNL     1      28.792  39.846  50.808  1.00  0.00     0.049 A 
HETATM   11  C   UNL     1      28.341  40.123  49.508  1.00  0.00     0.016 A 
HETATM   12  C   UNL     1      28.682  39.231  48.481  1.00  0.00     0.019 A 
HETATM   13  C   UNL     1      29.463  38.101  48.743  1.00  0.00     0.001 A 
HETATM   14  C   UNL     1      29.901  37.837  50.039  1.00  0.00     0.001 A 
HETATM   15  C   UNL     1      29.563  38.705  51.074  1.00  0.00     0.018 A 
BRANCH  11  16
HETATM   16  S   UNL     1      27.276  41.504  49.108  1.00  0.00    -0.129 SA
BRANCH  16  17
HETATM   17  C   UNL     1      26.416  40.820  47.656  1.00  0.00     0.075 C 
HETATM   18  C   UNL     1      24.951  40.594  47.985  1.00  0.00     0.016 C 
ENDBRANCH  16  17
ENDBRANCH  11  16
ENDBRANCH   7  10
ENDBRANCH   1   6
BRANCH   2  19
HETATM   19  C   UNL     1      27.414  43.992  52.084  1.00  0.00     0.732 A 
HETATM   20  N   UNL     1      26.222  43.469  52.134  1.00  0.00    -0.067 NA
HETATM   21  C   UNL     1      25.413  43.826  51.092  1.00  0.00     0.065 A 
HETATM   22  C   UNL     1      25.743  44.636  50.084  1.00  0.00     0.036 A 
HETATM   23  C   UNL     1      24.013  43.333  50.950  1.00  0.00     0.061 C 
HETATM   24  C   UNL     1      24.655  44.831  49.101  1.00  0.00     0.047 C 
HETATM   25  C   UNL     1      27.084  45.217  50.045  1.00  0.00     0.268 A 
HETATM   26  C   UNL     1      23.669  43.728  49.506  1.00  0.00     0.011 C 
HETATM   27  O   UNL     1      27.454  45.968  49.154  1.00  0.00    -0.267 OA
HETATM   28  N   UNL     1      27.868  44.837  51.098  1.00  0.00    -0.152 N 
HETATM   29  H   UNL     1      28.819  45.189  51.154  1.00  0.00     0.188 HD
ENDBRANCH   2  19
BRANCH   4  30
HETATM   30  C   UNL     1      30.018  44.667  56.110  1.00  0.00     0.105 A 
HETATM   31  O   UNL     1      30.915  44.069  56.953  1.00  0.00    -0.320 OA
HETATM   32  C   UNL     1      31.097  44.902  58.008  1.00  0.00     0.142 A 
HETATM   33  C   UNL     1      30.334  46.035  57.865  1.00  0.00     0.027 A 
HETATM   34  C   UNL     1      29.638  45.886  56.641  1.00  0.00     0.041 A 
ENDBRANCH   4  30
TORSDOF 6
ENDMDL
MODEL 5
REMARK VINA RESULT:      -8.6      2.904      7.380
REMARK  6 active torsions:
REMARK  status: ('A' for Active; 'I' for Inactive)
REMARK    1  A    between atoms: C_2  and  S_3 
REMARK    2  A    between atoms: S_3  and  C_4 
REMARK    3  A    between atoms: C_5  and  C_6 
REMARK       I    between atoms: C_6  and  N_7 
REMARK    4  A    between atoms: N_7  and  C_8 
REMARK    5  A    between atoms: N_9  and  C_10 
REMARK    6  A    between atoms: C_21  and  C_22 
ROOT
HETATM    1  C   UNL     1      25.852  45.546  50.886  1.00  0.00     0.152 A 
HETATM    2  N   UNL     1      25.820  46.549  51.844  1.00  0.00    -0.044 N 
HETATM    3  N   UNL     1      25.033  47.604  51.473  1.00  0.00    -0.148 NA
HETATM    4  C   UNL     1      24.573  47.250  50.265  1.00  0.00     0.115 A 
HETATM    5  C   UNL     1      25.046  45.984  49.860  1.00  0.00     0.087 A 
ENDROOT
BRANCH   1   6
HETATM    6  N   UNL     1      26.593  44.388  51.056  1.00  0.00    -0.307 N 
HETATM    7  C   UNL     1      26.029  43.145  51.259  1.00  0.00     0.258 C 
HETATM    8  O   UNL     1      24.843  42.879  51.400  1.00  0.00    -0.267 OA
HETATM    9  H   UNL     1      27.609  44.479  51.054  1.00  0.00     0.170 HD
BRANCH   7  10
HETATM   10  C   UNL     1      27.029  42.068  51.408  1.00  0.00     0.049 A 
HETATM   11  C   UNL     1      27.379  41.210  50.353  1.00  0.00     0.016 A 
HETATM   12  C   UNL     1      28.360  40.235  50.585  1.00  0.00     0.019 A 
HETATM   13  C   UNL     1      28.984  40.128  51.832  1.00  0.00     0.001 A 
HETATM   14  C   UNL     1      28.624  40.984  52.871  1.00  0.00     0.001 A 
HETATM   15  C   UNL     1      27.644  41.950  52.663  1.00  0.00     0.018 A 
BRANCH  11  16
HETATM   16  S   UNL     1      26.573  41.235  48.756  1.00  0.00    -0.129 SA
BRANCH  16  17
HETATM   17  C   UNL     1      27.982  40.790  47.692  1.00  0.00     0.075 C 
HETATM   18  C   UNL     1      27.653  39.537  46.899  1.00  0.00     0.016 C 
ENDBRANCH  16  17
ENDBRANCH  11  16
ENDBRANCH   7  10
ENDBRANCH   1   6
BRANCH   2  19
HETATM   19  C   UNL     1      26.473  46.575  53.092  1.00  0.00     0.732 A 
HETATM   20  N   UNL     1      27.458  45.782  53.401  1.00  0.00    -0.067 NA
HETATM   21  C   UNL     1      27.946  45.964  54.664  1.00  0.00     0.065 A 
HETATM   22  C   UNL     1      27.508  46.857  55.552  1.00  0.00     0.036 A 
HETATM   23  C   UNL     1      29.067  45.154  55.222  1.00  0.00     0.061 C 
HETATM   24  C   UNL     1      28.232  46.814  56.842  1.00  0.00     0.047 C 
HETATM   25  C   UNL     1      26.403  47.743  55.189  1.00  0.00     0.268 A 
HETATM   26  C   UNL     1      29.007  45.495  56.718  1.00  0.00     0.011 C 
HETATM   27  O   UNL     1      25.952  48.585  55.952  1.00  0.00    -0.267 OA
HETATM   28  N   UNL     1      25.936  47.532  53.922  1.00  0.00    -0.152 N 
HETATM   29  H   UNL     1      25.166  48.100  53.582  1.00  0.00     0.188 HD
ENDBRANCH   2  19
BRANCH   4  30
HETATM   30  C   UNL     1      23.668  48.120  49.460  1.00  0.00     0.105 A 
HETATM   31  O   UNL     1      23.701  49.488  49.468  1.00  0.00    -0.320 OA
HETATM   32  C   UNL     1      22.733  49.922  48.622  1.00  0.00     0.142 A 
HETATM   33  C   UNL     1      22.071  48.857  48.060  1.00  0.00     0.027 A 
HETATM   34  C   UNL     1      22.672  47.694  48.599  1.00  0.00     0.041 A 
ENDBRANCH   4  30
TORSDOF 6
ENDMDL
MODEL 6
REMARK VINA RESULT:      -8.6      3.455      8.136
REMARK  6 active torsions:
REMARK  status: ('A' for Active; 'I' for Inactive)
REMARK    1  A    between atoms: C_2  and  S_3 
REMARK    2  A    between atoms: S_3  and  C_4 
REMARK    3  A    between atoms: C_5  and  C_6 
REMARK       I    between atoms: C_6  and  N_7 
REMARK    4  A    between atoms: N_7  and  C_8 
REMARK    5  A    between atoms: N_9  and  C_10 
REMARK    6  A    between atoms: C_21  and  C_22 
ROOT
HETATM    1  C   UNL     1      24.657  45.728  49.784  1.00  0.00     0.152 A 
HETATM    2  N   UNL     1      25.006  46.535  50.856  1.00  0.00    -0.044 N 
HETATM    3  N   UNL     1      24.450  47.782  50.778  1.00  0.00    -0.148 NA
HETATM    4  C   UNL     1      23.748  47.746  49.636  1.00  0.00     0.115 A 
HETATM    5  C   UNL     1      23.839  46.497  48.988  1.00  0.00     0.087 A 
ENDROOT
BRANCH   1   6
HETATM    6  N   UNL     1      25.116  44.427  49.662  1.00  0.00    -0.307 N 
HETATM    7  C   UNL     1      24.393  43.323  50.066  1.00  0.00     0.258 C 
HETATM    8  O   UNL     1      23.316  43.308  50.647  1.00  0.00    -0.267 OA
HETATM    9  H   UNL     1      26.050  44.295  49.274  1.00  0.00     0.170 HD
BRANCH   7  10
HETATM   10  C   UNL     1      25.096  42.045  49.826  1.00  0.00     0.049 A 
HETATM   11  C   UNL     1      24.972  41.329  48.624  1.00  0.00     0.016 A 
HETATM   12  C   UNL     1      25.701  40.139  48.481  1.00  0.00     0.019 A 
HETATM   13  C   UNL     1      26.541  39.685  49.502  1.00  0.00     0.001 A 
HETATM   14  C   UNL     1      26.652  40.404  50.691  1.00  0.00     0.001 A 
HETATM   15  C   UNL     1      25.927  41.581  50.856  1.00  0.00     0.018 A 
BRANCH  11  16
HETATM   16  S   UNL     1      23.862  41.804  47.305  1.00  0.00    -0.129 SA
BRANCH  16  17
HETATM   17  C   UNL     1      22.350  40.950  47.850  1.00  0.00     0.075 C 
HETATM   18  C   UNL     1      22.068  39.769  46.938  1.00  0.00     0.016 C 
ENDBRANCH  16  17
ENDBRANCH  11  16
ENDBRANCH   7  10
ENDBRANCH   1   6
BRANCH   2  19
HETATM   19  C   UNL     1      25.820  46.207  51.958  1.00  0.00     0.732 A 
HETATM   20  N   UNL     1      26.695  45.243  51.940  1.00  0.00    -0.067 NA
HETATM   21  C   UNL     1      27.375  45.085  53.114  1.00  0.00     0.065 A 
HETATM   22  C   UNL     1      27.217  45.817  54.217  1.00  0.00     0.036 A 
HETATM   23  C   UNL     1      28.415  44.033  53.310  1.00  0.00     0.061 C 
HETATM   24  C   UNL     1      28.095  45.404  55.334  1.00  0.00     0.047 C 
HETATM   25  C   UNL     1      26.233  46.899  54.221  1.00  0.00     0.268 A 
HETATM   26  C   UNL     1      28.619  44.051  54.832  1.00  0.00     0.011 C 
HETATM   27  O   UNL     1      26.036  47.610  55.195  1.00  0.00    -0.267 OA
HETATM   28  N   UNL     1      25.567  47.027  53.034  1.00  0.00    -0.152 N 
HETATM   29  H   UNL     1      24.862  47.752  52.944  1.00  0.00     0.188 HD
ENDBRANCH   2  19
BRANCH   4  30
HETATM   30  C   UNL     1      22.970  48.915  49.131  1.00  0.00     0.105 A 
HETATM   31  O   UNL     1      22.925  50.137  49.745  1.00  0.00    -0.320 OA
HETATM   32  C   UNL     1      22.119  50.935  49.000  1.00  0.00     0.142 A 
HETATM   33  C   UNL     1      21.640  50.252  47.908  1.00  0.00     0.027 A 
HETATM   34  C   UNL     1      22.188  48.948  47.991  1.00  0.00     0.041 A 
ENDBRANCH   4  30
TORSDOF 6
ENDMDL
MODEL 7
REMARK VINA RESULT:      -8.5      2.623      7.190
REMARK  6 active torsions:
REMARK  status: ('A' for Active; 'I' for Inactive)
REMARK    1  A    between atoms: C_2  and  S_3 
REMARK    2  A    between atoms: S_3  and  C_4 
REMARK    3  A    between atoms: C_5  and  C_6 
REMARK       I    between atoms: C_6  and  N_7 
REMARK    4  A    between atoms: N_7  and  C_8 
REMARK    5  A    between atoms: N_9  and  C_10 
REMARK    6  A    between atoms: C_21  and  C_22 
ROOT
HETATM    1  C   UNL     1      26.325  43.572  50.050  1.00  0.00     0.152 A 
HETATM    2  N   UNL     1      26.486  44.487  51.080  1.00  0.00    -0.044 N 
HETATM    3  N   UNL     1      25.642  45.557  50.969  1.00  0.00    -0.148 NA
HETATM    4  C   UNL     1      24.950  45.301  49.850  1.00  0.00     0.115 A 
HETATM    5  C   UNL     1      25.331  44.085  49.248  1.00  0.00     0.087 A 
ENDROOT
BRANCH   1   6
HETATM    6  N   UNL     1      27.084  42.417  49.965  1.00  0.00    -0.307 N 
HETATM    7  C   UNL     1      26.577  41.153  50.192  1.00  0.00     0.258 C 
HETATM    8  O   UNL     1      25.452  40.858  50.570  1.00  0.00    -0.267 OA
HETATM    9  H   UNL     1      28.075  42.523  49.746  1.00  0.00     0.170 HD
BRANCH   7  10
HETATM   10  C   UNL     1      27.586  40.084  50.036  1.00  0.00     0.049 A 
HETATM   11  C   UNL     1      27.626  39.242  48.913  1.00  0.00     0.016 A 
HETATM   12  C   UNL     1      28.637  38.273  48.844  1.00  0.00     0.019 A 
HETATM   13  C   UNL     1      29.591  38.158  49.860  1.00  0.00     0.001 A 
HETATM   14  C   UNL     1      29.537  38.998  50.970  1.00  0.00     0.001 A 
HETATM   15  C   UNL     1      28.533  39.958  51.063  1.00  0.00     0.018 A 
BRANCH  11  16
HETATM   16  S   UNL     1      26.398  39.277  47.612  1.00  0.00    -0.129 SA
BRANCH  16  17
HETATM   17  C   UNL     1      27.470  39.646  46.187  1.00  0.00     0.075 C 
HETATM   18  C   UNL     1      28.146  40.991  46.386  1.00  0.00     0.016 C 
ENDBRANCH  16  17
ENDBRANCH  11  16
ENDBRANCH   7  10
ENDBRANCH   1   6
BRANCH   2  19
HETATM   19  C   UNL     1      27.375  44.415  52.171  1.00  0.00     0.732 A 
HETATM   20  N   UNL     1      28.405  43.618  52.203  1.00  0.00    -0.067 NA
HETATM   21  C   UNL     1      29.135  43.697  53.355  1.00  0.00     0.065 A 
HETATM   22  C   UNL     1      28.880  44.496  54.392  1.00  0.00     0.036 A 
HETATM   23  C   UNL     1      30.348  42.865  53.601  1.00  0.00     0.061 C 
HETATM   24  C   UNL     1      29.848  44.353  55.502  1.00  0.00     0.047 C 
HETATM   25  C   UNL     1      27.722  45.387  54.339  1.00  0.00     0.268 A 
HETATM   26  C   UNL     1      30.587  43.068  55.104  1.00  0.00     0.011 C 
HETATM   27  O   UNL     1      27.430  46.146  55.251  1.00  0.00    -0.267 OA
HETATM   28  N   UNL     1      27.012  45.281  53.176  1.00  0.00    -0.152 N 
HETATM   29  H   UNL     1      26.187  45.860  53.051  1.00  0.00     0.188 HD
ENDBRANCH   2  19
BRANCH   4  30
HETATM   30  C   UNL     1      23.902  46.223  49.323  1.00  0.00     0.105 A 
HETATM   31  O   UNL     1      22.879  45.842  48.498  1.00  0.00    -0.320 OA
HETATM   32  C   UNL     1      22.140  46.948  48.231  1.00  0.00     0.142 A 
HETATM   33  C   UNL     1      22.664  48.044  48.871  1.00  0.00     0.027 A 
HETATM   34  C   UNL     1      23.800  47.579  49.577  1.00  0.00     0.041 A 
ENDBRANCH   4  30
TORSDOF 6
ENDMDL
MODEL 8
REMARK VINA RESULT:      -8.5      2.488      7.089
REMARK  6 active torsions:
REMARK  status: ('A' for Active; 'I' for Inactive)
REMARK    1  A    between atoms: C_2  and  S_3 
REMARK    2  A    between atoms: S_3  and  C_4 
REMARK    3  A    between atoms: C_5  and  C_6 
REMARK       I    between atoms: C_6  and  N_7 
REMARK    4  A    between atoms: N_7  and  C_8 
REMARK    5  A    between atoms: N_9  and  C_10 
REMARK    6  A    between atoms: C_21  and  C_22 
ROOT
HETATM    1  C   UNL     1      29.043  42.810  52.449  1.00  0.00     0.152 A 
HETATM    2  N   UNL     1      28.178  43.852  52.750  1.00  0.00    -0.044 N 
HETATM    3  N   UNL     1      28.471  44.449  53.945  1.00  0.00    -0.148 NA
HETATM    4  C   UNL     1      29.532  43.763  54.392  1.00  0.00     0.115 A 
HETATM    5  C   UNL     1      29.928  42.744  53.501  1.00  0.00     0.087 A 
ENDROOT
BRANCH   1   6
HETATM    6  N   UNL     1      28.923  42.066  51.287  1.00  0.00    -0.307 N 
HETATM    7  C   UNL     1      28.107  40.958  51.173  1.00  0.00     0.258 C 
HETATM    8  O   UNL     1      27.451  40.421  52.056  1.00  0.00    -0.267 OA
HETATM    9  H   UNL     1      29.492  42.348  50.489  1.00  0.00     0.170 HD
BRANCH   7  10
HETATM   10  C   UNL     1      28.150  40.338  49.832  1.00  0.00     0.049 A 
HETATM   11  C   UNL     1      28.875  39.167  49.564  1.00  0.00     0.016 A 
HETATM   12  C   UNL     1      28.832  38.639  48.265  1.00  0.00     0.019 A 
HETATM   13  C   UNL     1      28.075  39.258  47.265  1.00  0.00     0.001 A 
HETATM   14  C   UNL     1      27.362  40.422  47.544  1.00  0.00     0.001 A 
HETATM   15  C   UNL     1      27.402  40.967  48.825  1.00  0.00     0.018 A 
BRANCH  11  16
HETATM   16  S   UNL     1      29.927  38.363  50.768  1.00  0.00    -0.129 SA
BRANCH  16  17
HETATM   17  C   UNL     1      29.149  36.717  50.807  1.00  0.00     0.075 C 
HETATM   18  C   UNL     1      29.835  35.848  51.846  1.00  0.00     0.016 C 
ENDBRANCH  16  17
ENDBRANCH  11  16
ENDBRANCH   7  10
ENDBRANCH   1   6
BRANCH   2  19
HETATM   19  C   UNL     1      27.099  44.332  51.981  1.00  0.00     0.732 A 
HETATM   20  N   UNL     1      26.571  43.665  50.995  1.00  0.00    -0.067 NA
HETATM   21  C   UNL     1      25.540  44.311  50.374  1.00  0.00     0.065 A 
HETATM   22  C   UNL     1      25.060  45.513  50.697  1.00  0.00     0.036 A 
HETATM   23  C   UNL     1      24.802  43.729  49.216  1.00  0.00     0.061 C 
HETATM   24  C   UNL     1      23.939  45.953  49.836  1.00  0.00     0.047 C 
HETATM   25  C   UNL     1      25.661  46.247  51.809  1.00  0.00     0.268 A 
HETATM   26  C   UNL     1      24.010  44.935  48.690  1.00  0.00     0.011 C 
HETATM   27  O   UNL     1      25.271  47.351  52.160  1.00  0.00    -0.267 OA
HETATM   28  N   UNL     1      26.691  45.575  52.405  1.00  0.00    -0.152 N 
HETATM   29  H   UNL     1      27.173  46.010  53.186  1.00  0.00     0.188 HD
ENDBRANCH   2  19
BRANCH   4  30
HETATM   30  C   UNL     1      30.197  44.064  55.693  1.00  0.00     0.105 A 
HETATM   31  O   UNL     1      29.917  45.155  56.470  1.00  0.00    -0.320 OA
HETATM   32  C   UNL     1      30.718  45.090  57.563  1.00  0.00     0.142 A 
HETATM   33  C   UNL     1      31.515  43.972  57.511  1.00  0.00     0.027 A 
HETATM   34  C   UNL     1      31.180  43.309  56.306  1.00  0.00     0.041 A 
ENDBRANCH   4  30
TORSDOF 6
ENDMDL
MODEL 9
REMARK VINA RESULT:      -8.3      7.733     11.805
REMARK  6 active torsions:
REMARK  status: ('A' for Active; 'I' for Inactive)
REMARK    1  A    between atoms: C_2  and  S_3 
REMARK    2  A    between atoms: S_3  and  C_4 
REMARK    3  A    between atoms: C_5  and  C_6 
REMARK       I    between atoms: C_6  and  N_7 
REMARK    4  A    between atoms: N_7  and  C_8 
REMARK    5  A    between atoms: N_9  and  C_10 
REMARK    6  A    between atoms: C_21  and  C_22 
ROOT
HETATM    1  C   UNL     1      21.277  49.760  48.437  1.00  0.00     0.152 A 
HETATM    2  N   UNL     1      21.464  48.499  47.890  1.00  0.00    -0.044 N 
HETATM    3  N   UNL     1      22.771  48.099  47.931  1.00  0.00    -0.148 NA
HETATM    4  C   UNL     1      23.403  49.130  48.509  1.00  0.00     0.115 A 
HETATM    5  C   UNL     1      22.522  50.179  48.845  1.00  0.00     0.087 A 
ENDROOT
BRANCH   1   6
HETATM    6  N   UNL     1      20.030  50.361  48.492  1.00  0.00    -0.307 N 
HETATM    7  C   UNL     1      19.200  50.294  49.592  1.00  0.00     0.258 C 
HETATM    8  O   UNL     1      19.376  49.656  50.622  1.00  0.00    -0.267 OA
HETATM    9  H   UNL     1      19.711  50.854  47.658  1.00  0.00     0.170 HD
BRANCH   7  10
HETATM   10  C   UNL     1      17.925  51.019  49.407  1.00  0.00     0.049 A 
HETATM   11  C   UNL     1      16.812  50.440  48.776  1.00  0.00     0.016 A 
HETATM   12  C   UNL     1      15.637  51.199  48.671  1.00  0.00     0.019 A 
HETATM   13  C   UNL     1      15.572  52.495  49.192  1.00  0.00     0.001 A 
HETATM   14  C   UNL     1      16.685  53.058  49.812  1.00  0.00     0.001 A 
HETATM   15  C   UNL     1      17.864  52.324  49.916  1.00  0.00     0.018 A 
BRANCH  11  16
HETATM   16  S   UNL     1      16.842  48.820  48.018  1.00  0.00    -0.129 SA
BRANCH  16  17
HETATM   17  C   UNL     1      16.307  49.257  46.334  1.00  0.00     0.075 C 
HETATM   18  C   UNL     1      17.321  50.191  45.697  1.00  0.00     0.016 C 
ENDBRANCH  16  17
ENDBRANCH  11  16
ENDBRANCH   7  10
ENDBRANCH   1   6
BRANCH   2  19
HETATM   19  C   UNL     1      20.492  47.640  47.342  1.00  0.00     0.732 A 
HETATM   20  N   UNL     1      19.977  47.805  46.157  1.00  0.00    -0.067 NA
HETATM   21  C   UNL     1      19.044  46.866  45.819  1.00  0.00     0.065 A 
HETATM   22  C   UNL     1      18.652  45.842  46.577  1.00  0.00     0.036 A 
HETATM   23  C   UNL     1      18.325  46.876  44.512  1.00  0.00     0.061 C 
HETATM   24  C   UNL     1      17.620  44.994  45.940  1.00  0.00     0.047 C 
HETATM   25  C   UNL     1      19.242  45.667  47.903  1.00  0.00     0.268 A 
HETATM   26  C   UNL     1      17.193  45.866  44.752  1.00  0.00     0.011 C 
HETATM   27  O   UNL     1      18.931  44.751  48.650  1.00  0.00    -0.267 OA
HETATM   28  N   UNL     1      20.167  46.625  48.213  1.00  0.00    -0.152 N 
HETATM   29  H   UNL     1      20.629  46.587  49.116  1.00  0.00     0.188 HD
ENDBRANCH   2  19
BRANCH   4  30
HETATM   30  C   UNL     1      24.875  49.140  48.752  1.00  0.00     0.105 A 
HETATM   31  O   UNL     1      25.519  48.313  49.631  1.00  0.00    -0.320 OA
HETATM   32  C   UNL     1      26.840  48.618  49.580  1.00  0.00     0.142 A 
HETATM   33  C   UNL     1      27.067  49.630  48.678  1.00  0.00     0.027 A 
HETATM   34  C   UNL     1      25.800  49.968  48.143  1.00  0.00     0.041 A 
ENDBRANCH   4  30
TORSDOF 6
ENDMDL
MODEL 10
REMARK VINA RESULT:      -8.3      2.473      5.852
REMARK  6 active torsions:
REMARK  status: ('A' for Active; 'I' for Inactive)
REMARK    1  A    between atoms: C_2  and  S_3 
REMARK    2  A    between atoms: S_3  and  C_4 
REMARK    3  A    between atoms: C_5  and  C_6 
REMARK       I    between atoms: C_6  and  N_7 
REMARK    4  A    between atoms: N_7  and  C_8 
REMARK    5  A    between atoms: N_9  and  C_10 
REMARK    6  A    between atoms: C_21  and  C_22 
ROOT
HETATM    1  C   UNL     1      26.822  43.000  50.324  1.00  0.00     0.152 A 
HETATM    2  N   UNL     1      27.515  42.970  51.526  1.00  0.00    -0.044 N 
HETATM    3  N   UNL     1      28.239  41.820  51.685  1.00  0.00    -0.148 NA
HETATM    4  C   UNL     1      27.986  41.127  50.565  1.00  0.00     0.115 A 
HETATM    5  C   UNL     1      27.121  41.816  49.691  1.00  0.00     0.087 A 
ENDROOT
BRANCH   1   6
HETATM    6  N   UNL     1      26.021  44.071  49.964  1.00  0.00    -0.307 N 
HETATM    7  C   UNL     1      24.699  44.195  50.341  1.00  0.00     0.258 C 
HETATM    8  O   UNL     1      24.020  43.384  50.956  1.00  0.00    -0.267 OA
HETATM    9  H   UNL     1      26.436  44.786  49.366  1.00  0.00     0.170 HD
BRANCH   7  10
HETATM   10  C   UNL     1      24.061  45.428  49.834  1.00  0.00     0.049 A 
HETATM   11  C   UNL     1      22.941  45.405  48.988  1.00  0.00     0.016 A 
HETATM   12  C   UNL     1      22.389  46.629  48.580  1.00  0.00     0.019 A 
HETATM   13  C   UNL     1      22.933  47.841  49.017  1.00  0.00     0.001 A 
HETATM   14  C   UNL     1      24.047  47.849  49.854  1.00  0.00     0.001 A 
HETATM   15  C   UNL     1      24.616  46.644  50.259  1.00  0.00     0.018 A 
BRANCH  11  16
HETATM   16  S   UNL     1      22.237  43.899  48.327  1.00  0.00    -0.129 SA
BRANCH  16  17
HETATM   17  C   UNL     1      23.444  43.546  47.011  1.00  0.00     0.075 C 
HETATM   18  C   UNL     1      24.077  42.186  47.245  1.00  0.00     0.016 C 
ENDBRANCH  16  17
ENDBRANCH  11  16
ENDBRANCH   7  10
ENDBRANCH   1   6
BRANCH   2  19
HETATM   19  C   UNL     1      27.551  43.957  52.530  1.00  0.00     0.732 A 
HETATM   20  N   UNL     1      26.689  44.930  52.608  1.00  0.00    -0.067 NA
HETATM   21  C   UNL     1      26.906  45.784  53.652  1.00  0.00     0.065 A 
HETATM   22  C   UNL     1      27.885  45.689  54.553  1.00  0.00     0.036 A 
HETATM   23  C   UNL     1      26.043  46.971  53.917  1.00  0.00     0.061 C 
HETATM   24  C   UNL     1      27.864  46.768  55.565  1.00  0.00     0.047 C 
HETATM   25  C   UNL     1      28.841  44.588  54.455  1.00  0.00     0.268 A 
HETATM   26  C   UNL     1      26.871  47.758  54.943  1.00  0.00     0.011 C 
HETATM   27  O   UNL     1      29.761  44.438  55.246  1.00  0.00    -0.267 OA
HETATM   28  N   UNL     1      28.599  43.755  53.398  1.00  0.00    -0.152 N 
HETATM   29  H   UNL     1      29.215  42.962  53.248  1.00  0.00     0.188 HD
ENDBRANCH   2  19
BRANCH   4  30
HETATM   30  C   UNL     1      28.568  39.778  50.305  1.00  0.00     0.105 A 
HETATM   31  O   UNL     1      29.299  39.062  51.213  1.00  0.00    -0.320 OA
HETATM   32  C   UNL     1      29.656  37.897  50.617  1.00  0.00     0.142 A 
HETATM   33  C   UNL     1      29.167  37.842  49.334  1.00  0.00     0.027 A 
HETATM   34  C   UNL     1      28.464  39.054  49.131  1.00  0.00     0.041 A 
ENDBRANCH   4  30
TORSDOF 6
ENDMDL
