MODEL 1
REMARK VINA RESULT:      -9.4      0.000      0.000
REMARK  10 active torsions:
REMARK  status: ('A' for Active; 'I' for Inactive)
REMARK    1  A    between atoms: C_2  and  O_3 
REMARK    2  A    between atoms: O_3  and  C_4 
REMARK    3  A    between atoms: C_4  and  C_5 
REMARK    4  A    between atoms: C_6  and  C_7 
REMARK    5  A    between atoms: C_7  and  O_8 
REMARK    6  A    between atoms: O_8  and  C_9 
REMARK    7  A    between atoms: C_9  and  C_10 
REMARK       I    between atoms: C_10  and  N_11 
REMARK    8  A    between atoms: N_11  and  C_12 
REMARK    9  A    between atoms: C_13  and  C_14 
REMARK       I    between atoms: C_14  and  N_15 
REMARK   10  A    between atoms: N_15  and  C_16 
ROOT
HETATM    1  C   UNL     1      24.466  44.627  51.477  1.00  0.00     0.282 C 
ENDROOT
BRANCH   1   2
HETATM    2  O   UNL     1      25.594  44.109  52.192  1.00  0.00    -0.307 OA
BRANCH   2   3
HETATM    3  C   UNL     1      25.529  44.110  53.552  1.00  0.00     0.318 C 
HETATM    4  O   UNL     1      24.492  44.138  54.203  1.00  0.00    -0.257 OA
BRANCH   3   5
HETATM    5  C   UNL     1      26.868  44.130  54.093  1.00  0.00     0.160 A 
HETATM    6  C   UNL     1      27.884  43.181  54.062  1.00  0.00     0.018 A 
HETATM    7  C   UNL     1      28.982  43.748  54.782  1.00  0.00     0.009 A 
HETATM    8  C   UNL     1      28.553  44.996  55.212  1.00  0.00     0.087 A 
HETATM    9  C   UNL     1      30.290  43.344  55.113  1.00  0.00     0.015 A 
HETATM   10  O   UNL     1      27.280  45.227  54.804  1.00  0.00    -0.303 OA
HETATM   11  C   UNL     1      29.330  45.881  55.958  1.00  0.00     0.038 A 
HETATM   12  C   UNL     1      30.623  45.459  56.277  1.00  0.00     0.003 A 
HETATM   13  C   UNL     1      31.098  44.212  55.862  1.00  0.00     0.001 A 
BRANCH   6  14
HETATM   14  C   UNL     1      27.829  41.859  53.381  1.00  0.00     0.210 C 
BRANCH  14  15
HETATM   15  O   UNL     1      28.694  41.857  52.246  1.00  0.00    -0.387 OA
BRANCH  15  16
HETATM   16  C   UNL     1      27.963  41.810  51.025  1.00  0.00     0.163 C 
HETATM   17  C   UNL     1      26.773  40.892  51.214  1.00  0.00     0.033 C 
ENDBRANCH  15  16
ENDBRANCH  14  15
ENDBRANCH   6  14
ENDBRANCH   3   5
ENDBRANCH   2   3
ENDBRANCH   1   2
BRANCH   1  18
HETATM   18  C   UNL     1      24.917  45.529  50.328  1.00  0.00     0.246 C 
HETATM   19  N   UNL     1      25.016  46.863  50.693  1.00  0.00    -0.324 N 
HETATM   20  H   UNL     1      24.487  47.127  51.518  1.00  0.00     0.169 HD
HETATM   21  O   UNL     1      25.128  45.085  49.202  1.00  0.00    -0.271 OA
BRANCH  19  22
HETATM   22  C   UNL     1      25.493  47.894  49.858  1.00  0.00     0.050 A 
HETATM   23  C   UNL     1      24.684  48.857  49.230  1.00  0.00     0.058 A 
HETATM   24  C   UNL     1      25.277  49.882  48.471  1.00  0.00     0.019 A 
HETATM   25  C   UNL     1      26.663  49.941  48.326  1.00  0.00     0.001 A 
HETATM   26  C   UNL     1      27.462  48.959  48.905  1.00  0.00     0.002 A 
HETATM   27  C   UNL     1      26.879  47.934  49.654  1.00  0.00     0.030 A 
BRANCH  23  28
HETATM   28  C   UNL     1      23.209  48.709  49.122  1.00  0.00     0.254 C 
HETATM   29  N   UNL     1      22.477  49.812  49.522  1.00  0.00    -0.352 N 
HETATM   30  H   UNL     1      22.949  50.511  50.082  1.00  0.00     0.163 HD
HETATM   31  O   UNL     1      22.726  47.686  48.646  1.00  0.00    -0.268 OA
BRANCH  29  32
HETATM   32  C   UNL     1      21.051  49.839  49.455  1.00  0.00     0.084 A 
HETATM   33  C   UNL     1      20.271  50.888  50.195  1.00  0.00     0.027 A 
HETATM   34  C   UNL     1      20.341  50.927  48.696  1.00  0.00     0.027 A 
ENDBRANCH  29  32
ENDBRANCH  23  28
ENDBRANCH  19  22
ENDBRANCH   1  18
TORSDOF 10
ENDMDL
MODEL 2
REMARK VINA RESULT:      -9.2      1.591      2.484
REMARK  10 active torsions:
REMARK  status: ('A' for Active; 'I' for Inactive)
REMARK    1  A    between atoms: C_2  and  O_3 
REMARK    2  A    between atoms: O_3  and  C_4 
REMARK    3  A    between atoms: C_4  and  C_5 
REMARK    4  A    between atoms: C_6  and  C_7 
REMARK    5  A    between atoms: C_7  and  O_8 
REMARK    6  A    between atoms: O_8  and  C_9 
REMARK    7  A    between atoms: C_9  and  C_10 
REMARK       I    between atoms: C_10  and  N_11 
REMARK    8  A    between atoms: N_11  and  C_12 
REMARK    9  A    between atoms: C_13  and  C_14 
REMARK       I    between atoms: C_14  and  N_15 
REMARK   10  A    between atoms: N_15  and  C_16 
ROOT
HETATM    1  C   UNL     1      23.197  43.938  50.297  1.00  0.00     0.282 C 
ENDROOT
BRANCH   1   2
HETATM    2  O   UNL     1      23.851  43.803  51.564  1.00  0.00    -0.307 OA
BRANCH   2   3
HETATM    3  C   UNL     1      25.180  43.507  51.556  1.00  0.00     0.318 C 
HETATM    4  O   UNL     1      25.692  42.603  50.909  1.00  0.00    -0.257 OA
BRANCH   3   5
HETATM    5  C   UNL     1      25.870  44.386  52.472  1.00  0.00     0.160 A 
HETATM    6  C   UNL     1      27.040  44.215  53.203  1.00  0.00     0.018 A 
HETATM    7  C   UNL     1      27.222  45.418  53.954  1.00  0.00     0.009 A 
HETATM    8  C   UNL     1      26.143  46.232  53.639  1.00  0.00     0.087 A 
HETATM    9  C   UNL     1      28.181  45.908  54.861  1.00  0.00     0.015 A 
HETATM   10  O   UNL     1      25.324  45.612  52.752  1.00  0.00    -0.303 OA
HETATM   11  C   UNL     1      25.938  47.506  54.165  1.00  0.00     0.038 A 
HETATM   12  C   UNL     1      26.901  47.972  55.064  1.00  0.00     0.003 A 
HETATM   13  C   UNL     1      28.005  47.188  55.408  1.00  0.00     0.001 A 
BRANCH   6  14
HETATM   14  C   UNL     1      27.928  43.022  53.168  1.00  0.00     0.210 C 
BRANCH  14  15
HETATM   15  O   UNL     1      29.189  43.366  52.594  1.00  0.00    -0.387 OA
BRANCH  15  16
HETATM   16  C   UNL     1      30.258  42.645  53.198  1.00  0.00     0.163 C 
HETATM   17  C   UNL     1      30.453  43.169  54.607  1.00  0.00     0.033 C 
ENDBRANCH  15  16
ENDBRANCH  14  15
ENDBRANCH   6  14
ENDBRANCH   3   5
ENDBRANCH   2   3
ENDBRANCH   1   2
BRANCH   1  18
HETATM   18  C   UNL     1      23.855  45.034  49.460  1.00  0.00     0.246 C 
HETATM   19  N   UNL     1      24.028  46.220  50.158  1.00  0.00    -0.324 N 
HETATM   20  H   UNL     1      23.432  46.333  50.973  1.00  0.00     0.169 HD
HETATM   21  O   UNL     1      24.155  44.857  48.281  1.00  0.00    -0.271 OA
BRANCH  19  22
HETATM   22  C   UNL     1      24.686  47.361  49.659  1.00  0.00     0.050 A 
HETATM   23  C   UNL     1      24.044  48.470  49.080  1.00  0.00     0.058 A 
HETATM   24  C   UNL     1      24.799  49.585  48.675  1.00  0.00     0.019 A 
HETATM   25  C   UNL     1      26.185  49.593  48.832  1.00  0.00     0.001 A 
HETATM   26  C   UNL     1      26.828  48.475  49.358  1.00  0.00     0.002 A 
HETATM   27  C   UNL     1      26.085  47.361  49.755  1.00  0.00     0.030 A 
BRANCH  23  28
HETATM   28  C   UNL     1      22.623  48.427  48.644  1.00  0.00     0.254 C 
HETATM   29  N   UNL     1      21.746  49.153  49.430  1.00  0.00    -0.352 N 
HETATM   30  H   UNL     1      22.061  49.431  50.351  1.00  0.00     0.163 HD
HETATM   31  O   UNL     1      22.311  47.830  47.618  1.00  0.00    -0.268 OA
BRANCH  29  32
HETATM   32  C   UNL     1      20.352  49.235  49.131  1.00  0.00     0.084 A 
HETATM   33  C   UNL     1      19.391  48.220  49.681  1.00  0.00     0.027 A 
HETATM   34  C   UNL     1      19.364  49.630  50.194  1.00  0.00     0.027 A 
ENDBRANCH  29  32
ENDBRANCH  23  28
ENDBRANCH  19  22
ENDBRANCH   1  18
TORSDOF 10
ENDMDL
MODEL 3
REMARK VINA RESULT:      -9.0      1.359      2.837
REMARK  10 active torsions:
REMARK  status: ('A' for Active; 'I' for Inactive)
REMARK    1  A    between atoms: C_2  and  O_3 
REMARK    2  A    between atoms: O_3  and  C_4 
REMARK    3  A    between atoms: C_4  and  C_5 
REMARK    4  A    between atoms: C_6  and  C_7 
REMARK    5  A    between atoms: C_7  and  O_8 
REMARK    6  A    between atoms: O_8  and  C_9 
REMARK    7  A    between atoms: C_9  and  C_10 
REMARK       I    between atoms: C_10  and  N_11 
REMARK    8  A    between atoms: N_11  and  C_12 
REMARK    9  A    between atoms: C_13  and  C_14 
REMARK       I    between atoms: C_14  and  N_15 
REMARK   10  A    between atoms: N_15  and  C_16 
ROOT
HETATM    1  C   UNL     1      23.580  44.578  50.772  1.00  0.00     0.282 C 
ENDROOT
BRANCH   1   2
HETATM    2  O   UNL     1      24.455  44.227  51.850  1.00  0.00    -0.307 OA
BRANCH   2   3
HETATM    3  C   UNL     1      25.503  43.405  51.565  1.00  0.00     0.318 C 
HETATM    4  O   UNL     1      25.510  42.560  50.679  1.00  0.00    -0.257 OA
BRANCH   3   5
HETATM    5  C   UNL     1      26.572  43.652  52.506  1.00  0.00     0.160 A 
HETATM    6  C   UNL     1      26.939  44.802  53.195  1.00  0.00     0.018 A 
HETATM    7  C   UNL     1      28.090  44.453  53.969  1.00  0.00     0.009 A 
HETATM    8  C   UNL     1      28.351  43.121  53.686  1.00  0.00     0.087 A 
HETATM    9  C   UNL     1      28.935  45.118  54.879  1.00  0.00     0.015 A 
HETATM   10  O   UNL     1      27.443  42.636  52.802  1.00  0.00    -0.303 OA
HETATM   11  C   UNL     1      29.402  42.389  54.238  1.00  0.00     0.038 A 
HETATM   12  C   UNL     1      30.229  43.068  55.137  1.00  0.00     0.003 A 
HETATM   13  C   UNL     1      30.001  44.410  55.453  1.00  0.00     0.001 A 
BRANCH   6  14
HETATM   14  C   UNL     1      26.238  46.114  53.148  1.00  0.00     0.210 C 
BRANCH  14  15
HETATM   15  O   UNL     1      25.776  46.470  54.451  1.00  0.00    -0.387 OA
BRANCH  15  16
HETATM   16  C   UNL     1      25.981  47.852  54.724  1.00  0.00     0.163 C 
HETATM   17  C   UNL     1      27.456  48.074  54.994  1.00  0.00     0.033 C 
ENDBRANCH  15  16
ENDBRANCH  14  15
ENDBRANCH   6  14
ENDBRANCH   3   5
ENDBRANCH   2   3
ENDBRANCH   1   2
BRANCH   1  18
HETATM   18  C   UNL     1      24.279  45.513  49.786  1.00  0.00     0.246 C 
HETATM   19  N   UNL     1      24.547  46.764  50.323  1.00  0.00    -0.324 N 
HETATM   20  H   UNL     1      23.986  47.019  51.129  1.00  0.00     0.169 HD
HETATM   21  O   UNL     1      24.530  45.168  48.634  1.00  0.00    -0.271 OA
BRANCH  19  22
HETATM   22  C   UNL     1      25.260  47.786  49.665  1.00  0.00     0.050 A 
HETATM   23  C   UNL     1      24.672  48.884  49.013  1.00  0.00     0.058 A 
HETATM   24  C   UNL     1      25.486  49.882  48.447  1.00  0.00     0.019 A 
HETATM   25  C   UNL     1      26.875  49.782  48.517  1.00  0.00     0.001 A 
HETATM   26  C   UNL     1      27.460  48.670  49.117  1.00  0.00     0.002 A 
HETATM   27  C   UNL     1      26.658  47.672  49.675  1.00  0.00     0.030 A 
BRANCH  23  28
HETATM   28  C   UNL     1      23.226  48.925  48.672  1.00  0.00     0.254 C 
HETATM   29  N   UNL     1      22.493  49.892  49.336  1.00  0.00    -0.352 N 
HETATM   30  H   UNL     1      22.906  50.310  50.161  1.00  0.00     0.163 HD
HETATM   31  O   UNL     1      22.774  48.176  47.812  1.00  0.00    -0.268 OA
BRANCH  29  32
HETATM   32  C   UNL     1      21.097  50.078  49.102  1.00  0.00     0.084 A 
HETATM   33  C   UNL     1      20.320  51.100  49.881  1.00  0.00     0.027 A 
HETATM   34  C   UNL     1      20.594  51.322  48.423  1.00  0.00     0.027 A 
ENDBRANCH  29  32
ENDBRANCH  23  28
ENDBRANCH  19  22
ENDBRANCH   1  18
TORSDOF 10
ENDMDL
MODEL 4
REMARK VINA RESULT:      -8.7      2.248      8.710
REMARK  10 active torsions:
REMARK  status: ('A' for Active; 'I' for Inactive)
REMARK    1  A    between atoms: C_2  and  O_3 
REMARK    2  A    between atoms: O_3  and  C_4 
REMARK    3  A    between atoms: C_4  and  C_5 
REMARK    4  A    between atoms: C_6  and  C_7 
REMARK    5  A    between atoms: C_7  and  O_8 
REMARK    6  A    between atoms: O_8  and  C_9 
REMARK    7  A    between atoms: C_9  and  C_10 
REMARK       I    between atoms: C_10  and  N_11 
REMARK    8  A    between atoms: N_11  and  C_12 
REMARK    9  A    between atoms: C_13  and  C_14 
REMARK       I    between atoms: C_14  and  N_15 
REMARK   10  A    between atoms: N_15  and  C_16 
ROOT
HETATM    1  C   UNL     1      25.272  46.838  52.376  1.00  0.00     0.282 C 
ENDROOT
BRANCH   1   2
HETATM    2  O   UNL     1      26.130  47.464  51.415  1.00  0.00    -0.307 OA
BRANCH   2   3
HETATM    3  C   UNL     1      25.955  47.131  50.106  1.00  0.00     0.318 C 
HETATM    4  O   UNL     1      26.738  46.462  49.443  1.00  0.00    -0.257 OA
BRANCH   3   5
HETATM    5  C   UNL     1      24.738  47.737  49.619  1.00  0.00     0.160 A 
HETATM    6  C   UNL     1      23.529  47.176  49.221  1.00  0.00     0.018 A 
HETATM    7  C   UNL     1      22.698  48.267  48.816  1.00  0.00     0.009 A 
HETATM    8  C   UNL     1      23.462  49.413  48.982  1.00  0.00     0.087 A 
HETATM    9  C   UNL     1      21.383  48.410  48.331  1.00  0.00     0.015 A 
HETATM   10  O   UNL     1      24.692  49.098  49.460  1.00  0.00    -0.303 OA
HETATM   11  C   UNL     1      23.019  50.703  48.696  1.00  0.00     0.038 A 
HETATM   12  C   UNL     1      21.713  50.822  48.214  1.00  0.00     0.003 A 
HETATM   13  C   UNL     1      20.906  49.695  48.034  1.00  0.00     0.001 A 
BRANCH   6  14
HETATM   14  C   UNL     1      23.181  45.730  49.252  1.00  0.00     0.210 C 
BRANCH  14  15
HETATM   15  O   UNL     1      23.967  45.017  48.297  1.00  0.00    -0.387 OA
BRANCH  15  16
HETATM   16  C   UNL     1      24.256  43.694  48.735  1.00  0.00     0.163 C 
HETATM   17  C   UNL     1      23.479  43.430  50.008  1.00  0.00     0.033 C 
ENDBRANCH  15  16
ENDBRANCH  14  15
ENDBRANCH   6  14
ENDBRANCH   3   5
ENDBRANCH   2   3
ENDBRANCH   1   2
BRANCH   1  18
HETATM   18  C   UNL     1      25.741  45.415  52.679  1.00  0.00     0.246 C 
HETATM   19  N   UNL     1      27.106  45.245  52.504  1.00  0.00    -0.324 N 
HETATM   20  H   UNL     1      27.555  45.934  51.908  1.00  0.00     0.169 HD
HETATM   21  O   UNL     1      24.954  44.531  53.007  1.00  0.00    -0.271 OA
BRANCH  19  22
HETATM   22  C   UNL     1      27.815  44.064  52.798  1.00  0.00     0.050 A 
HETATM   23  C   UNL     1      28.537  43.834  53.982  1.00  0.00     0.058 A 
HETATM   24  C   UNL     1      29.153  42.588  54.197  1.00  0.00     0.019 A 
HETATM   25  C   UNL     1      29.063  41.582  53.235  1.00  0.00     0.001 A 
HETATM   26  C   UNL     1      28.393  41.825  52.039  1.00  0.00     0.002 A 
HETATM   27  C   UNL     1      27.785  43.063  51.816  1.00  0.00     0.030 A 
BRANCH  23  28
HETATM   28  C   UNL     1      28.895  44.930  54.921  1.00  0.00     0.254 C 
HETATM   29  N   UNL     1      29.903  44.628  55.818  1.00  0.00    -0.352 N 
HETATM   30  H   UNL     1      30.137  43.652  55.951  1.00  0.00     0.163 HD
HETATM   31  O   UNL     1      28.350  46.025  54.825  1.00  0.00    -0.268 OA
BRANCH  29  32
HETATM   32  C   UNL     1      30.380  45.580  56.769  1.00  0.00     0.084 A 
HETATM   33  C   UNL     1      29.559  45.936  57.975  1.00  0.00     0.027 A 
HETATM   34  C   UNL     1      30.820  45.140  58.138  1.00  0.00     0.027 A 
ENDBRANCH  29  32
ENDBRANCH  23  28
ENDBRANCH  19  22
ENDBRANCH   1  18
TORSDOF 10
ENDMDL
MODEL 5
REMARK VINA RESULT:      -8.5      1.470      2.206
REMARK  10 active torsions:
REMARK  status: ('A' for Active; 'I' for Inactive)
REMARK    1  A    between atoms: C_2  and  O_3 
REMARK    2  A    between atoms: O_3  and  C_4 
REMARK    3  A    between atoms: C_4  and  C_5 
REMARK    4  A    between atoms: C_6  and  C_7 
REMARK    5  A    between atoms: C_7  and  O_8 
REMARK    6  A    between atoms: O_8  and  C_9 
REMARK    7  A    between atoms: C_9  and  C_10 
REMARK       I    between atoms: C_10  and  N_11 
REMARK    8  A    between atoms: N_11  and  C_12 
REMARK    9  A    between atoms: C_13  and  C_14 
REMARK       I    between atoms: C_14  and  N_15 
REMARK   10  A    between atoms: N_15  and  C_16 
ROOT
HETATM    1  C   UNL     1      22.600  44.037  49.979  1.00  0.00     0.282 C 
ENDROOT
BRANCH   1   2
HETATM    2  O   UNL     1      23.342  43.416  51.035  1.00  0.00    -0.307 OA
BRANCH   2   3
HETATM    3  C   UNL     1      24.494  42.772  50.698  1.00  0.00     0.318 C 
HETATM    4  O   UNL     1      24.596  41.940  49.806  1.00  0.00    -0.257 OA
BRANCH   3   5
HETATM    5  C   UNL     1      25.550  43.184  51.594  1.00  0.00     0.160 A 
HETATM    6  C   UNL     1      26.712  42.538  52.001  1.00  0.00     0.018 A 
HETATM    7  C   UNL     1      27.362  43.425  52.915  1.00  0.00     0.009 A 
HETATM    8  C   UNL     1      26.545  44.541  53.011  1.00  0.00     0.087 A 
HETATM    9  C   UNL     1      28.553  43.406  53.667  1.00  0.00     0.015 A 
HETATM   10  O   UNL     1      25.450  44.398  52.222  1.00  0.00    -0.303 OA
HETATM   11  C   UNL     1      26.818  45.651  53.810  1.00  0.00     0.038 A 
HETATM   12  C   UNL     1      28.003  45.611  54.549  1.00  0.00     0.003 A 
HETATM   13  C   UNL     1      28.858  44.508  54.480  1.00  0.00     0.001 A 
BRANCH   6  14
HETATM   14  C   UNL     1      27.182  41.204  51.538  1.00  0.00     0.210 C 
BRANCH  14  15
HETATM   15  O   UNL     1      28.217  41.359  50.568  1.00  0.00    -0.387 OA
BRANCH  15  16
HETATM   16  C   UNL     1      28.286  40.243  49.687  1.00  0.00     0.163 C 
HETATM   17  C   UNL     1      27.017  39.430  49.845  1.00  0.00     0.033 C 
ENDBRANCH  15  16
ENDBRANCH  14  15
ENDBRANCH   6  14
ENDBRANCH   3   5
ENDBRANCH   2   3
ENDBRANCH   1   2
BRANCH   1  18
HETATM   18  C   UNL     1      23.459  45.062  49.240  1.00  0.00     0.246 C 
HETATM   19  N   UNL     1      23.910  46.084  50.063  1.00  0.00    -0.324 N 
HETATM   20  H   UNL     1      23.378  46.219  50.917  1.00  0.00     0.169 HD
HETATM   21  O   UNL     1      23.678  44.976  48.034  1.00  0.00    -0.271 OA
BRANCH  19  22
HETATM   22  C   UNL     1      24.790  47.111  49.665  1.00  0.00     0.050 A 
HETATM   23  C   UNL     1      24.389  48.373  49.193  1.00  0.00     0.058 A 
HETATM   24  C   UNL     1      25.357  49.346  48.886  1.00  0.00     0.019 A 
HETATM   25  C   UNL     1      26.715  49.062  49.035  1.00  0.00     0.001 A 
HETATM   26  C   UNL     1      27.115  47.796  49.452  1.00  0.00     0.002 A 
HETATM   27  C   UNL     1      26.159  46.822  49.752  1.00  0.00     0.030 A 
BRANCH  23  28
HETATM   28  C   UNL     1      22.994  48.656  48.764  1.00  0.00     0.254 C 
HETATM   29  N   UNL     1      22.295  49.527  49.579  1.00  0.00    -0.352 N 
HETATM   30  H   UNL     1      22.661  49.699  50.507  1.00  0.00     0.163 HD
HETATM   31  O   UNL     1      22.562  48.177  47.721  1.00  0.00    -0.268 OA
BRANCH  29  32
HETATM   32  C   UNL     1      20.953  49.921  49.291  1.00  0.00     0.084 A 
HETATM   33  C   UNL     1      20.302  51.038  50.056  1.00  0.00     0.027 A 
HETATM   34  C   UNL     1      20.669  51.234  48.614  1.00  0.00     0.027 A 
ENDBRANCH  29  32
ENDBRANCH  23  28
ENDBRANCH  19  22
ENDBRANCH   1  18
TORSDOF 10
ENDMDL
MODEL 6
REMARK VINA RESULT:      -8.2      2.198      8.541
REMARK  10 active torsions:
REMARK  status: ('A' for Active; 'I' for Inactive)
REMARK    1  A    between atoms: C_2  and  O_3 
REMARK    2  A    between atoms: O_3  and  C_4 
REMARK    3  A    between atoms: C_4  and  C_5 
REMARK    4  A    between atoms: C_6  and  C_7 
REMARK    5  A    between atoms: C_7  and  O_8 
REMARK    6  A    between atoms: O_8  and  C_9 
REMARK    7  A    between atoms: C_9  and  C_10 
REMARK       I    between atoms: C_10  and  N_11 
REMARK    8  A    between atoms: N_11  and  C_12 
REMARK    9  A    between atoms: C_13  and  C_14 
REMARK       I    between atoms: C_14  and  N_15 
REMARK   10  A    between atoms: N_15  and  C_16 
ROOT
HETATM    1  C   UNL     1      24.933  45.211  52.120  1.00  0.00     0.282 C 
ENDROOT
BRANCH   1   2
HETATM    2  O   UNL     1      25.610  46.247  51.399  1.00  0.00    -0.307 OA
BRANCH   2   3
HETATM    3  C   UNL     1      25.533  46.218  50.040  1.00  0.00     0.318 C 
HETATM    4  O   UNL     1      26.332  45.650  49.306  1.00  0.00    -0.257 OA
BRANCH   3   5
HETATM    5  C   UNL     1      24.402  47.007  49.609  1.00  0.00     0.160 A 
HETATM    6  C   UNL     1      23.285  46.671  48.852  1.00  0.00     0.018 A 
HETATM    7  C   UNL     1      22.512  47.868  48.729  1.00  0.00     0.009 A 
HETATM    8  C   UNL     1      23.218  48.850  49.407  1.00  0.00     0.087 A 
HETATM    9  C   UNL     1      21.293  48.226  48.121  1.00  0.00     0.015 A 
HETATM   10  O   UNL     1      24.359  48.337  49.934  1.00  0.00    -0.303 OA
HETATM   11  C   UNL     1      22.806  50.177  49.527  1.00  0.00     0.038 A 
HETATM   12  C   UNL     1      21.594  50.510  48.915  1.00  0.00     0.003 A 
HETATM   13  C   UNL     1      20.849  49.552  48.224  1.00  0.00     0.001 A 
BRANCH   6  14
HETATM   14  C   UNL     1      22.963  45.321  48.315  1.00  0.00     0.210 C 
BRANCH  14  15
HETATM   15  O   UNL     1      22.002  44.678  49.153  1.00  0.00    -0.387 OA
BRANCH  15  16
HETATM   16  C   UNL     1      22.596  43.660  49.952  1.00  0.00     0.163 C 
HETATM   17  C   UNL     1      23.556  42.870  49.085  1.00  0.00     0.033 C 
ENDBRANCH  15  16
ENDBRANCH  14  15
ENDBRANCH   6  14
ENDBRANCH   3   5
ENDBRANCH   2   3
ENDBRANCH   1   2
BRANCH   1  18
HETATM   18  C   UNL     1      25.829  44.639  53.219  1.00  0.00     0.246 C 
HETATM   19  N   UNL     1      27.181  44.761  52.935  1.00  0.00    -0.324 N 
HETATM   20  H   UNL     1      27.407  44.891  51.953  1.00  0.00     0.169 HD
HETATM   21  O   UNL     1      25.362  44.102  54.221  1.00  0.00    -0.271 OA
BRANCH  19  22
HETATM   22  C   UNL     1      28.225  44.400  53.810  1.00  0.00     0.050 A 
HETATM   23  C   UNL     1      28.885  43.159  53.802  1.00  0.00     0.058 A 
HETATM   24  C   UNL     1      29.961  42.932  54.680  1.00  0.00     0.019 A 
HETATM   25  C   UNL     1      30.368  43.928  55.569  1.00  0.00     0.001 A 
HETATM   26  C   UNL     1      29.682  45.138  55.613  1.00  0.00     0.002 A 
HETATM   27  C   UNL     1      28.608  45.368  54.749  1.00  0.00     0.030 A 
BRANCH  23  28
HETATM   28  C   UNL     1      28.347  41.976  53.081  1.00  0.00     0.254 C 
HETATM   29  N   UNL     1      28.638  41.931  51.730  1.00  0.00    -0.352 N 
HETATM   30  H   UNL     1      28.950  42.787  51.287  1.00  0.00     0.163 HD
HETATM   31  O   UNL     1      27.749  41.099  53.696  1.00  0.00    -0.268 OA
BRANCH  29  32
HETATM   32  C   UNL     1      28.216  40.848  50.900  1.00  0.00     0.084 A 
HETATM   33  C   UNL     1      26.766  40.671  50.552  1.00  0.00     0.027 A 
HETATM   34  C   UNL     1      27.740  41.100  49.495  1.00  0.00     0.027 A 
ENDBRANCH  29  32
ENDBRANCH  23  28
ENDBRANCH  19  22
ENDBRANCH   1  18
TORSDOF 10
ENDMDL
MODEL 7
REMARK VINA RESULT:      -8.2      3.067      7.934
REMARK  10 active torsions:
REMARK  status: ('A' for Active; 'I' for Inactive)
REMARK    1  A    between atoms: C_2  and  O_3 
REMARK    2  A    between atoms: O_3  and  C_4 
REMARK    3  A    between atoms: C_4  and  C_5 
REMARK    4  A    between atoms: C_6  and  C_7 
REMARK    5  A    between atoms: C_7  and  O_8 
REMARK    6  A    between atoms: O_8  and  C_9 
REMARK    7  A    between atoms: C_9  and  C_10 
REMARK       I    between atoms: C_10  and  N_11 
REMARK    8  A    between atoms: N_11  and  C_12 
REMARK    9  A    between atoms: C_13  and  C_14 
REMARK       I    between atoms: C_14  and  N_15 
REMARK   10  A    between atoms: N_15  and  C_16 
ROOT
HETATM    1  C   UNL     1      24.809  42.266  48.633  1.00  0.00     0.282 C 
ENDROOT
BRANCH   1   2
HETATM    2  O   UNL     1      24.129  42.466  49.877  1.00  0.00    -0.307 OA
BRANCH   2   3
HETATM    3  C   UNL     1      23.501  43.660  50.065  1.00  0.00     0.318 C 
HETATM    4  O   UNL     1      22.477  44.010  49.494  1.00  0.00    -0.257 OA
BRANCH   3   5
HETATM    5  C   UNL     1      24.266  44.459  50.994  1.00  0.00     0.160 A 
HETATM    6  C   UNL     1      24.779  45.747  50.890  1.00  0.00     0.018 A 
HETATM    7  C   UNL     1      25.467  46.003  52.117  1.00  0.00     0.009 A 
HETATM    8  C   UNL     1      25.337  44.849  52.877  1.00  0.00     0.087 A 
HETATM    9  C   UNL     1      26.181  47.084  52.670  1.00  0.00     0.015 A 
HETATM   10  O   UNL     1      24.619  43.915  52.202  1.00  0.00    -0.303 OA
HETATM   11  C   UNL     1      25.872  44.681  54.153  1.00  0.00     0.038 A 
HETATM   12  C   UNL     1      26.578  45.766  54.680  1.00  0.00     0.003 A 
HETATM   13  C   UNL     1      26.731  46.948  53.953  1.00  0.00     0.001 A 
BRANCH   6  14
HETATM   14  C   UNL     1      24.605  46.670  49.736  1.00  0.00     0.210 C 
BRANCH  14  15
HETATM   15  O   UNL     1      24.066  47.914  50.181  1.00  0.00    -0.387 OA
BRANCH  15  16
HETATM   16  C   UNL     1      23.359  48.584  49.142  1.00  0.00     0.163 C 
HETATM   17  C   UNL     1      22.224  47.692  48.682  1.00  0.00     0.033 C 
ENDBRANCH  15  16
ENDBRANCH  14  15
ENDBRANCH   6  14
ENDBRANCH   3   5
ENDBRANCH   2   3
ENDBRANCH   1   2
BRANCH   1  18
HETATM   18  C   UNL     1      26.230  41.755  48.865  1.00  0.00     0.246 C 
HETATM   19  N   UNL     1      26.269  40.567  49.580  1.00  0.00    -0.324 N 
HETATM   20  H   UNL     1      25.439  40.364  50.127  1.00  0.00     0.169 HD
HETATM   21  O   UNL     1      27.214  42.378  48.473  1.00  0.00    -0.271 OA
BRANCH  19  22
HETATM   22  C   UNL     1      27.439  39.832  49.857  1.00  0.00     0.050 A 
HETATM   23  C   UNL     1      28.272  40.038  50.971  1.00  0.00     0.058 A 
HETATM   24  C   UNL     1      29.379  39.197  51.183  1.00  0.00     0.019 A 
HETATM   25  C   UNL     1      29.665  38.168  50.286  1.00  0.00     0.001 A 
HETATM   26  C   UNL     1      28.872  37.995  49.155  1.00  0.00     0.002 A 
HETATM   27  C   UNL     1      27.774  38.831  48.934  1.00  0.00     0.030 A 
BRANCH  23  28
HETATM   28  C   UNL     1      28.186  41.260  51.813  1.00  0.00     0.254 C 
HETATM   29  N   UNL     1      29.399  41.750  52.261  1.00  0.00    -0.352 N 
HETATM   30  H   UNL     1      30.200  41.133  52.216  1.00  0.00     0.163 HD
HETATM   31  O   UNL     1      27.100  41.794  52.014  1.00  0.00    -0.268 OA
BRANCH  29  32
HETATM   32  C   UNL     1      29.490  42.931  53.059  1.00  0.00     0.084 A 
HETATM   33  C   UNL     1      29.143  42.896  54.520  1.00  0.00     0.027 A 
HETATM   34  C   UNL     1      30.571  43.073  54.095  1.00  0.00     0.027 A 
ENDBRANCH  29  32
ENDBRANCH  23  28
ENDBRANCH  19  22
ENDBRANCH   1  18
TORSDOF 10
ENDMDL
MODEL 8
REMARK VINA RESULT:      -8.1      2.698      5.344
REMARK  10 active torsions:
REMARK  status: ('A' for Active; 'I' for Inactive)
REMARK    1  A    between atoms: C_2  and  O_3 
REMARK    2  A    between atoms: O_3  and  C_4 
REMARK    3  A    between atoms: C_4  and  C_5 
REMARK    4  A    between atoms: C_6  and  C_7 
REMARK    5  A    between atoms: C_7  and  O_8 
REMARK    6  A    between atoms: O_8  and  C_9 
REMARK    7  A    between atoms: C_9  and  C_10 
REMARK       I    between atoms: C_10  and  N_11 
REMARK    8  A    between atoms: N_11  and  C_12 
REMARK    9  A    between atoms: C_13  and  C_14 
REMARK       I    between atoms: C_14  and  N_15 
REMARK   10  A    between atoms: N_15  and  C_16 
ROOT
HETATM    1  C   UNL     1      27.852  41.243  52.416  1.00  0.00     0.282 C 
ENDROOT
BRANCH   1   2
HETATM    2  O   UNL     1      28.987  42.105  52.558  1.00  0.00    -0.307 OA
BRANCH   2   3
HETATM    3  C   UNL     1      28.750  43.443  52.661  1.00  0.00     0.318 C 
HETATM    4  O   UNL     1      28.289  44.143  51.769  1.00  0.00    -0.257 OA
BRANCH   3   5
HETATM    5  C   UNL     1      29.181  43.904  53.961  1.00  0.00     0.160 A 
HETATM    6  C   UNL     1      28.719  44.939  54.766  1.00  0.00     0.018 A 
HETATM    7  C   UNL     1      29.546  44.936  55.933  1.00  0.00     0.009 A 
HETATM    8  C   UNL     1      30.461  43.909  55.750  1.00  0.00     0.087 A 
HETATM    9  C   UNL     1      29.618  45.687  57.123  1.00  0.00     0.015 A 
HETATM   10  O   UNL     1      30.248  43.289  54.562  1.00  0.00    -0.303 OA
HETATM   11  C   UNL     1      31.457  43.569  56.665  1.00  0.00     0.038 A 
HETATM   12  C   UNL     1      31.511  44.328  57.838  1.00  0.00     0.003 A 
HETATM   13  C   UNL     1      30.607  45.369  58.065  1.00  0.00     0.001 A 
BRANCH   6  14
HETATM   14  C   UNL     1      27.570  45.836  54.468  1.00  0.00     0.210 C 
BRANCH  14  15
HETATM   15  O   UNL     1      27.676  47.037  55.232  1.00  0.00    -0.387 OA
BRANCH  15  16
HETATM   16  C   UNL     1      26.624  47.948  54.930  1.00  0.00     0.163 C 
HETATM   17  C   UNL     1      26.310  48.748  56.178  1.00  0.00     0.033 C 
ENDBRANCH  15  16
ENDBRANCH  14  15
ENDBRANCH   6  14
ENDBRANCH   3   5
ENDBRANCH   2   3
ENDBRANCH   1   2
BRANCH   1  18
HETATM   18  C   UNL     1      27.296  41.306  50.994  1.00  0.00     0.246 C 
HETATM   19  N   UNL     1      25.943  41.613  50.954  1.00  0.00    -0.324 N 
HETATM   20  H   UNL     1      25.433  41.434  51.813  1.00  0.00     0.169 HD
HETATM   21  O   UNL     1      27.997  41.070  50.014  1.00  0.00    -0.271 OA
BRANCH  19  22
HETATM   22  C   UNL     1      25.199  41.822  49.777  1.00  0.00     0.050 A 
HETATM   23  C   UNL     1      24.681  43.062  49.363  1.00  0.00     0.058 A 
HETATM   24  C   UNL     1      24.008  43.166  48.132  1.00  0.00     0.019 A 
HETATM   25  C   UNL     1      23.840  42.041  47.324  1.00  0.00     0.001 A 
HETATM   26  C   UNL     1      24.306  40.803  47.755  1.00  0.00     0.002 A 
HETATM   27  C   UNL     1      24.969  40.691  48.980  1.00  0.00     0.030 A 
BRANCH  23  28
HETATM   28  C   UNL     1      24.591  44.231  50.277  1.00  0.00     0.254 C 
HETATM   29  N   UNL     1      24.905  45.450  49.704  1.00  0.00    -0.352 N 
HETATM   30  H   UNL     1      25.406  45.440  48.824  1.00  0.00     0.163 HD
HETATM   31  O   UNL     1      24.200  44.082  51.431  1.00  0.00    -0.268 OA
BRANCH  29  32
HETATM   32  C   UNL     1      24.843  46.671  50.441  1.00  0.00     0.084 A 
HETATM   33  C   UNL     1      25.985  47.095  51.319  1.00  0.00     0.027 A 
HETATM   34  C   UNL     1      25.699  47.845  50.051  1.00  0.00     0.027 A 
ENDBRANCH  29  32
ENDBRANCH  23  28
ENDBRANCH  19  22
ENDBRANCH   1  18
TORSDOF 10
ENDMDL
MODEL 9
REMARK VINA RESULT:      -8.0      3.039      5.374
REMARK  10 active torsions:
REMARK  status: ('A' for Active; 'I' for Inactive)
REMARK    1  A    between atoms: C_2  and  O_3 
REMARK    2  A    between atoms: O_3  and  C_4 
REMARK    3  A    between atoms: C_4  and  C_5 
REMARK    4  A    between atoms: C_6  and  C_7 
REMARK    5  A    between atoms: C_7  and  O_8 
REMARK    6  A    between atoms: O_8  and  C_9 
REMARK    7  A    between atoms: C_9  and  C_10 
REMARK       I    between atoms: C_10  and  N_11 
REMARK    8  A    between atoms: N_11  and  C_12 
REMARK    9  A    between atoms: C_13  and  C_14 
REMARK       I    between atoms: C_14  and  N_15 
REMARK   10  A    between atoms: N_15  and  C_16 
ROOT
HETATM    1  C   UNL     1      27.481  41.323  50.862  1.00  0.00     0.282 C 
ENDROOT
BRANCH   1   2
HETATM    2  O   UNL     1      28.547  41.859  51.654  1.00  0.00    -0.307 OA
BRANCH   2   3
HETATM    3  C   UNL     1      28.457  41.717  53.005  1.00  0.00     0.318 C 
HETATM    4  O   UNL     1      28.437  40.646  53.597  1.00  0.00    -0.257 OA
BRANCH   3   5
HETATM    5  C   UNL     1      28.332  43.022  53.614  1.00  0.00     0.160 A 
HETATM    6  C   UNL     1      29.082  43.648  54.603  1.00  0.00     0.018 A 
HETATM    7  C   UNL     1      28.476  44.926  54.814  1.00  0.00     0.009 A 
HETATM    8  C   UNL     1      27.393  44.983  53.949  1.00  0.00     0.087 A 
HETATM    9  C   UNL     1      28.728  46.041  55.638  1.00  0.00     0.015 A 
HETATM   10  O   UNL     1      27.299  43.837  53.229  1.00  0.00    -0.303 OA
HETATM   11  C   UNL     1      26.527  46.070  53.842  1.00  0.00     0.038 A 
HETATM   12  C   UNL     1      26.794  47.164  54.670  1.00  0.00     0.003 A 
HETATM   13  C   UNL     1      27.876  47.152  55.553  1.00  0.00     0.001 A 
BRANCH   6  14
HETATM   14  C   UNL     1      30.291  43.093  55.270  1.00  0.00     0.210 C 
BRANCH  14  15
HETATM   15  O   UNL     1      31.099  44.154  55.781  1.00  0.00    -0.387 OA
BRANCH  15  16
HETATM   16  C   UNL     1      31.698  43.808  57.025  1.00  0.00     0.163 C 
HETATM   17  C   UNL     1      31.084  44.671  58.108  1.00  0.00     0.033 C 
ENDBRANCH  15  16
ENDBRANCH  14  15
ENDBRANCH   6  14
ENDBRANCH   3   5
ENDBRANCH   2   3
ENDBRANCH   1   2
BRANCH   1  18
HETATM   18  C   UNL     1      26.821  42.418  50.025  1.00  0.00     0.246 C 
HETATM   19  N   UNL     1      25.802  43.076  50.698  1.00  0.00    -0.324 N 
HETATM   20  H   UNL     1      25.404  42.569  51.483  1.00  0.00     0.169 HD
HETATM   21  O   UNL     1      27.162  42.641  48.866  1.00  0.00    -0.271 OA
BRANCH  19  22
HETATM   22  C   UNL     1      25.088  44.183  50.197  1.00  0.00     0.050 A 
HETATM   23  C   UNL     1      23.957  44.099  49.366  1.00  0.00     0.058 A 
HETATM   24  C   UNL     1      23.283  45.271  48.980  1.00  0.00     0.019 A 
HETATM   25  C   UNL     1      23.737  46.519  49.406  1.00  0.00     0.001 A 
HETATM   26  C   UNL     1      24.886  46.607  50.187  1.00  0.00     0.002 A 
HETATM   27  C   UNL     1      25.565  45.447  50.569  1.00  0.00     0.030 A 
BRANCH  23  28
HETATM   28  C   UNL     1      23.576  42.844  48.666  1.00  0.00     0.254 C 
HETATM   29  N   UNL     1      24.306  42.563  47.525  1.00  0.00    -0.352 N 
HETATM   30  H   UNL     1      24.840  43.318  47.112  1.00  0.00     0.163 HD
HETATM   31  O   UNL     1      22.714  42.111  49.140  1.00  0.00    -0.268 OA
BRANCH  29  32
HETATM   32  C   UNL     1      24.081  41.384  46.753  1.00  0.00     0.084 A 
HETATM   33  C   UNL     1      23.162  41.410  45.565  1.00  0.00     0.027 A 
HETATM   34  C   UNL     1      24.642  41.260  45.363  1.00  0.00     0.027 A 
ENDBRANCH  29  32
ENDBRANCH  23  28
ENDBRANCH  19  22
ENDBRANCH   1  18
TORSDOF 10
ENDMDL
MODEL 10
REMARK VINA RESULT:      -8.0      2.090      9.192
REMARK  10 active torsions:
REMARK  status: ('A' for Active; 'I' for Inactive)
REMARK    1  A    between atoms: C_2  and  O_3 
REMARK    2  A    between atoms: O_3  and  C_4 
REMARK    3  A    between atoms: C_4  and  C_5 
REMARK    4  A    between atoms: C_6  and  C_7 
REMARK    5  A    between atoms: C_7  and  O_8 
REMARK    6  A    between atoms: O_8  and  C_9 
REMARK    7  A    between atoms: C_9  and  C_10 
REMARK       I    between atoms: C_10  and  N_11 
REMARK    8  A    between atoms: N_11  and  C_12 
REMARK    9  A    between atoms: C_13  and  C_14 
REMARK       I    between atoms: C_14  and  N_15 
REMARK   10  A    between atoms: N_15  and  C_16 
ROOT
HETATM    1  C   UNL     1      24.653  45.549  50.915  1.00  0.00     0.282 C 
ENDROOT
BRANCH   1   2
HETATM    2  O   UNL     1      24.538  46.171  49.630  1.00  0.00    -0.307 OA
BRANCH   2   3
HETATM    3  C   UNL     1      23.348  46.051  48.979  1.00  0.00     0.318 C 
HETATM    4  O   UNL     1      22.899  45.005  48.528  1.00  0.00    -0.257 OA
BRANCH   3   5
HETATM    5  C   UNL     1      22.738  47.355  48.858  1.00  0.00     0.160 A 
HETATM    6  C   UNL     1      23.279  48.632  48.945  1.00  0.00     0.018 A 
HETATM    7  C   UNL     1      22.190  49.541  48.764  1.00  0.00     0.009 A 
HETATM    8  C   UNL     1      21.060  48.754  48.593  1.00  0.00     0.087 A 
HETATM    9  C   UNL     1      22.037  50.941  48.722  1.00  0.00     0.015 A 
HETATM   10  O   UNL     1      21.385  47.437  48.654  1.00  0.00    -0.303 OA
HETATM   11  C   UNL     1      19.775  49.254  48.387  1.00  0.00     0.038 A 
HETATM   12  C   UNL     1      19.647  50.645  48.351  1.00  0.00     0.003 A 
HETATM   13  C   UNL     1      20.758  51.476  48.515  1.00  0.00     0.001 A 
BRANCH   6  14
HETATM   14  C   UNL     1      24.715  48.964  49.153  1.00  0.00     0.210 C 
BRANCH  14  15
HETATM   15  O   UNL     1      25.212  49.706  48.040  1.00  0.00    -0.387 OA
BRANCH  15  16
HETATM   16  C   UNL     1      26.592  50.021  48.189  1.00  0.00     0.163 C 
HETATM   17  C   UNL     1      27.234  48.958  49.059  1.00  0.00     0.033 C 
ENDBRANCH  15  16
ENDBRANCH  14  15
ENDBRANCH   6  14
ENDBRANCH   3   5
ENDBRANCH   2   3
ENDBRANCH   1   2
BRANCH   1  18
HETATM   18  C   UNL     1      25.976  44.794  51.038  1.00  0.00     0.246 C 
HETATM   19  N   UNL     1      26.037  43.986  52.164  1.00  0.00    -0.324 N 
HETATM   20  H   UNL     1      25.389  44.230  52.907  1.00  0.00     0.169 HD
HETATM   21  O   UNL     1      26.883  44.940  50.222  1.00  0.00    -0.271 OA
BRANCH  19  22
HETATM   22  C   UNL     1      27.100  43.116  52.475  1.00  0.00     0.050 A 
HETATM   23  C   UNL     1      28.000  43.297  53.540  1.00  0.00     0.058 A 
HETATM   24  C   UNL     1      28.985  42.326  53.798  1.00  0.00     0.019 A 
HETATM   25  C   UNL     1      29.083  41.190  52.994  1.00  0.00     0.001 A 
HETATM   26  C   UNL     1      28.225  41.034  51.908  1.00  0.00     0.002 A 
HETATM   27  C   UNL     1      27.249  41.998  51.642  1.00  0.00     0.030 A 
BRANCH  23  28
HETATM   28  C   UNL     1      28.126  44.589  54.264  1.00  0.00     0.254 C 
HETATM   29  N   UNL     1      29.212  44.681  55.115  1.00  0.00    -0.352 N 
HETATM   30  H   UNL     1      29.676  43.821  55.381  1.00  0.00     0.163 HD
HETATM   31  O   UNL     1      27.334  45.499  54.042  1.00  0.00    -0.268 OA
BRANCH  29  32
HETATM   32  C   UNL     1      29.488  45.865  55.865  1.00  0.00     0.084 A 
HETATM   33  C   UNL     1      28.779  46.133  57.161  1.00  0.00     0.027 A 
HETATM   34  C   UNL     1      30.239  45.789  57.166  1.00  0.00     0.027 A 
ENDBRANCH  29  32
ENDBRANCH  23  28
ENDBRANCH  19  22
ENDBRANCH   1  18
TORSDOF 10
ENDMDL
