MODEL 1
REMARK VINA RESULT:      -9.3      0.000      0.000
REMARK  10 active torsions:
REMARK  status: ('A' for Active; 'I' for Inactive)
REMARK    1  A    between atoms: C_4  and  C_5 
REMARK    2  A    between atoms: C_8  and  N_9 
REMARK    3  A    between atoms: C_15  and  C_16 
REMARK    4  A    between atoms: C_19  and  C_20 
REMARK    5  A    between atoms: C_20  and  N_21 
REMARK    6  A    between atoms: N_21  and  C_22 
REMARK    7  A    between atoms: C_22  and  N_23 
REMARK    8  A    between atoms: N_23  and  C_24 
REMARK    9  A    between atoms: C_26  and  C_27 
REMARK   10  A    between atoms: C_27  and  O_28 
ROOT
HETATM    1  C   UNL     1      24.887  43.123  50.401  1.00  0.00     0.067 C 
HETATM    2  C   UNL     1      25.135  43.082  48.882  1.00  0.00     0.001 C 
HETATM    3  C   UNL     1      24.403  44.230  48.158  1.00  0.00     0.040 C 
HETATM    4  C   UNL     1      22.878  44.113  48.295  1.00  0.00     0.206 C 
HETATM    5  N   UNL     1      22.610  43.065  49.368  1.00  0.00    -0.065 N 
HETATM    6  H   UNL     1      21.604  43.049  49.587  1.00  0.00     0.280 HD
HETATM    7  C   UNL     1      23.379  43.360  50.657  1.00  0.00     0.246 C 
HETATM    8  C   UNL     1      24.478  41.772  48.372  1.00  0.00     0.033 C 
HETATM    9  C   UNL     1      23.012  41.695  48.832  1.00  0.00     0.236 C 
ENDROOT
BRANCH   4  10
HETATM   10  C   UNL     1      22.174  45.460  48.575  1.00  0.00     0.155 C 
BRANCH  10  11
HETATM   11  N   UNL     1      20.798  45.279  49.031  1.00  0.00    -0.365 N 
HETATM   12  H   UNL     1      20.657  44.848  49.941  1.00  0.00     0.161 HD
BRANCH  11  13
HETATM   13  C   UNL     1      19.717  46.034  48.656  1.00  0.00     0.172 C 
HETATM   14  S   UNL     1      18.876  45.860  47.228  1.00  0.00    -0.041 SA
BRANCH  13  15
HETATM   15  N   UNL     1      19.357  47.038  49.517  1.00  0.00    -0.333 N 
HETATM   16  H   UNL     1      18.763  46.725  50.281  1.00  0.00     0.168 HD
BRANCH  15  17
HETATM   17  C   UNL     1      19.788  48.381  49.588  1.00  0.00     0.035 A 
HETATM   18  C   UNL     1      21.078  48.788  49.241  1.00  0.00     0.047 A 
HETATM   19  C   UNL     1      21.460  50.136  49.319  1.00  0.00     0.041 A 
HETATM   20  C   UNL     1      20.543  51.083  49.784  1.00  0.00     0.018 A 
HETATM   21  C   UNL     1      19.266  50.676  50.178  1.00  0.00     0.003 A 
HETATM   22  C   UNL     1      18.895  49.331  50.087  1.00  0.00     0.029 A 
BRANCH  19  23
HETATM   23  C   UNL     1      22.841  50.486  48.890  1.00  0.00     0.293 C 
HETATM   24  O   UNL     1      23.088  51.418  48.137  1.00  0.00    -0.259 OA
BRANCH  23  25
HETATM   25  O   UNL     1      23.749  49.680  49.487  1.00  0.00    -0.323 OA
HETATM   26  C   UNL     1      24.936  49.459  48.720  1.00  0.00     0.213 C 
ENDBRANCH  23  25
ENDBRANCH  19  23
ENDBRANCH  15  17
ENDBRANCH  13  15
ENDBRANCH  11  13
ENDBRANCH  10  11
ENDBRANCH   4  10
BRANCH   1  27
HETATM   27  C   UNL     1      25.736  43.961  51.316  1.00  0.00     0.038 C 
HETATM   28  N   UNL     1      25.742  45.310  51.589  1.00  0.00    -0.277 N 
HETATM   29  C   UNL     1      25.059  46.416  50.962  1.00  0.00     0.179 C 
HETATM   30  N   UNL     1      26.514  45.626  52.646  1.00  0.00    -0.172 NA
HETATM   31  C   UNL     1      27.183  44.511  52.955  1.00  0.00     0.089 C 
HETATM   32  C   UNL     1      26.736  43.451  52.136  1.00  0.00     0.061 C 
BRANCH  31  33
HETATM   33  C   UNL     1      28.163  44.448  54.035  1.00  0.00    -0.005 A 
HETATM   34  C   UNL     1      29.146  43.459  54.051  1.00  0.00     0.016 A 
HETATM   35  C   UNL     1      30.140  43.452  55.044  1.00  0.00     0.030 A 
HETATM   36  C   UNL     1      30.180  44.411  56.071  1.00  0.00     0.029 A 
HETATM   37  C   UNL     1      29.164  45.382  56.045  1.00  0.00     0.030 A 
HETATM   38  C   UNL     1      28.174  45.406  55.051  1.00  0.00     0.016 A 
BRANCH  36  39
HETATM   39  N   UNL     1      31.193  44.445  57.034  1.00  0.00    -0.390 N 
HETATM   40  C   UNL     1      32.083  43.295  57.186  1.00  0.00     0.149 C 
HETATM   41  C   UNL     1      30.947  45.212  58.256  1.00  0.00     0.149 C 
ENDBRANCH  36  39
ENDBRANCH  31  33
ENDBRANCH   1  27
TORSDOF 10
ENDMDL
MODEL 2
REMARK VINA RESULT:      -9.1      3.434      4.950
REMARK  10 active torsions:
REMARK  status: ('A' for Active; 'I' for Inactive)
REMARK    1  A    between atoms: C_4  and  C_5 
REMARK    2  A    between atoms: C_8  and  N_9 
REMARK    3  A    between atoms: C_15  and  C_16 
REMARK    4  A    between atoms: C_19  and  C_20 
REMARK    5  A    between atoms: C_20  and  N_21 
REMARK    6  A    between atoms: N_21  and  C_22 
REMARK    7  A    between atoms: C_22  and  N_23 
REMARK    8  A    between atoms: N_23  and  C_24 
REMARK    9  A    between atoms: C_26  and  C_27 
REMARK   10  A    between atoms: C_27  and  O_28 
ROOT
HETATM    1  C   UNL     1      27.844  39.914  50.359  1.00  0.00     0.067 C 
HETATM    2  C   UNL     1      28.588  39.479  49.083  1.00  0.00     0.001 C 
HETATM    3  C   UNL     1      27.845  39.938  47.811  1.00  0.00     0.040 C 
HETATM    4  C   UNL     1      26.463  39.281  47.686  1.00  0.00     0.206 C 
HETATM    5  N   UNL     1      26.162  38.627  49.030  1.00  0.00    -0.065 N 
HETATM    6  H   UNL     1      25.190  38.288  49.035  1.00  0.00     0.280 HD
HETATM    7  C   UNL     1      26.337  39.607  50.192  1.00  0.00     0.246 C 
HETATM    8  C   UNL     1      28.542  37.927  49.064  1.00  0.00     0.033 C 
HETATM    9  C   UNL     1      27.094  37.434  49.219  1.00  0.00     0.236 C 
ENDROOT
BRANCH   4  10
HETATM   10  C   UNL     1      25.354  40.251  47.223  1.00  0.00     0.155 C 
BRANCH  10  11
HETATM   11  N   UNL     1      24.365  40.497  48.269  1.00  0.00    -0.365 N 
HETATM   12  H   UNL     1      24.693  40.520  49.231  1.00  0.00     0.161 HD
BRANCH  11  13
HETATM   13  C   UNL     1      23.186  41.182  48.121  1.00  0.00     0.172 C 
HETATM   14  S   UNL     1      22.213  41.130  46.769  1.00  0.00    -0.041 SA
BRANCH  13  15
HETATM   15  N   UNL     1      22.835  42.006  49.157  1.00  0.00    -0.333 N 
HETATM   16  H   UNL     1      22.225  41.562  49.841  1.00  0.00     0.168 HD
BRANCH  15  17
HETATM   17  C   UNL     1      23.290  43.300  49.492  1.00  0.00     0.035 A 
HETATM   18  C   UNL     1      23.877  43.608  50.722  1.00  0.00     0.047 A 
HETATM   19  C   UNL     1      24.323  44.907  51.008  1.00  0.00     0.041 A 
HETATM   20  C   UNL     1      24.147  45.918  50.060  1.00  0.00     0.018 A 
HETATM   21  C   UNL     1      23.516  45.628  48.847  1.00  0.00     0.003 A 
HETATM   22  C   UNL     1      23.084  44.327  48.570  1.00  0.00     0.029 A 
BRANCH  19  23
HETATM   23  C   UNL     1      24.975  45.135  52.326  1.00  0.00     0.293 C 
HETATM   24  O   UNL     1      24.801  44.402  53.290  1.00  0.00    -0.259 OA
BRANCH  23  25
HETATM   25  O   UNL     1      25.806  46.202  52.275  1.00  0.00    -0.323 OA
HETATM   26  C   UNL     1      25.709  47.080  53.400  1.00  0.00     0.213 C 
ENDBRANCH  23  25
ENDBRANCH  19  23
ENDBRANCH  15  17
ENDBRANCH  13  15
ENDBRANCH  11  13
ENDBRANCH  10  11
ENDBRANCH   4  10
BRANCH   1  27
HETATM   27  C   UNL     1      28.062  41.268  50.975  1.00  0.00     0.038 C 
HETATM   28  N   UNL     1      27.637  42.526  50.609  1.00  0.00    -0.277 N 
HETATM   29  C   UNL     1      26.988  43.006  49.412  1.00  0.00     0.179 C 
HETATM   30  N   UNL     1      27.861  43.451  51.562  1.00  0.00    -0.172 NA
HETATM   31  C   UNL     1      28.617  42.848  52.484  1.00  0.00     0.089 C 
HETATM   32  C   UNL     1      28.779  41.487  52.145  1.00  0.00     0.061 C 
BRANCH  31  33
HETATM   33  C   UNL     1      29.110  43.533  53.676  1.00  0.00    -0.005 A 
HETATM   34  C   UNL     1      28.447  44.650  54.184  1.00  0.00     0.016 A 
HETATM   35  C   UNL     1      28.874  45.255  55.378  1.00  0.00     0.030 A 
HETATM   36  C   UNL     1      29.988  44.789  56.098  1.00  0.00     0.029 A 
HETATM   37  C   UNL     1      30.652  43.677  55.550  1.00  0.00     0.030 A 
HETATM   38  C   UNL     1      30.228  43.058  54.365  1.00  0.00     0.016 A 
BRANCH  36  39
HETATM   39  N   UNL     1      30.391  45.351  57.313  1.00  0.00    -0.390 N 
HETATM   40  C   UNL     1      31.410  44.677  58.116  1.00  0.00     0.149 C 
HETATM   41  C   UNL     1      29.404  46.120  58.071  1.00  0.00     0.149 C 
ENDBRANCH  36  39
ENDBRANCH  31  33
ENDBRANCH   1  27
TORSDOF 10
ENDMDL
MODEL 3
REMARK VINA RESULT:      -9.0      2.626      3.618
REMARK  10 active torsions:
REMARK  status: ('A' for Active; 'I' for Inactive)
REMARK    1  A    between atoms: C_4  and  C_5 
REMARK    2  A    between atoms: C_8  and  N_9 
REMARK    3  A    between atoms: C_15  and  C_16 
REMARK    4  A    between atoms: C_19  and  C_20 
REMARK    5  A    between atoms: C_20  and  N_21 
REMARK    6  A    between atoms: N_21  and  C_22 
REMARK    7  A    between atoms: C_22  and  N_23 
REMARK    8  A    between atoms: N_23  and  C_24 
REMARK    9  A    between atoms: C_26  and  C_27 
REMARK   10  A    between atoms: C_27  and  O_28 
ROOT
HETATM    1  C   UNL     1      24.732  43.039  50.464  1.00  0.00     0.067 C 
HETATM    2  C   UNL     1      24.898  43.483  48.999  1.00  0.00     0.001 C 
HETATM    3  C   UNL     1      25.134  45.003  48.892  1.00  0.00     0.040 C 
HETATM    4  C   UNL     1      23.927  45.807  49.395  1.00  0.00     0.206 C 
HETATM    5  N   UNL     1      23.016  44.827  50.123  1.00  0.00    -0.065 N 
HETATM    6  H   UNL     1      22.259  45.344  50.592  1.00  0.00     0.280 HD
HETATM    7  C   UNL     1      23.775  44.021  51.180  1.00  0.00     0.246 C 
HETATM    8  C   UNL     1      23.534  43.216  48.309  1.00  0.00     0.033 C 
HETATM    9  C   UNL     1      22.395  43.877  49.103  1.00  0.00     0.236 C 
ENDROOT
BRANCH   4  10
HETATM   10  C   UNL     1      24.311  47.031  50.257  1.00  0.00     0.155 C 
BRANCH  10  11
HETATM   11  N   UNL     1      24.440  48.248  49.459  1.00  0.00    -0.365 N 
HETATM   12  H   UNL     1      25.249  48.328  48.850  1.00  0.00     0.161 HD
BRANCH  11  13
HETATM   13  C   UNL     1      23.410  49.051  49.039  1.00  0.00     0.172 C 
HETATM   14  S   UNL     1      23.562  50.322  47.973  1.00  0.00    -0.041 SA
BRANCH  13  15
HETATM   15  N   UNL     1      22.185  48.799  49.597  1.00  0.00    -0.333 N 
HETATM   16  H   UNL     1      22.136  49.018  50.590  1.00  0.00     0.168 HD
BRANCH  15  17
HETATM   17  C   UNL     1      20.964  48.426  48.993  1.00  0.00     0.035 A 
HETATM   18  C   UNL     1      20.688  47.125  48.567  1.00  0.00     0.047 A 
HETATM   19  C   UNL     1      19.456  46.798  47.979  1.00  0.00     0.041 A 
HETATM   20  C   UNL     1      18.501  47.800  47.787  1.00  0.00     0.018 A 
HETATM   21  C   UNL     1      18.788  49.113  48.168  1.00  0.00     0.003 A 
HETATM   22  C   UNL     1      20.015  49.424  48.760  1.00  0.00     0.029 A 
BRANCH  19  23
HETATM   23  C   UNL     1      19.234  45.378  47.594  1.00  0.00     0.293 C 
HETATM   24  O   UNL     1      18.776  44.544  48.363  1.00  0.00    -0.259 OA
BRANCH  23  25
HETATM   25  O   UNL     1      19.548  45.178  46.293  1.00  0.00    -0.323 OA
HETATM   26  C   UNL     1      20.073  43.879  46.006  1.00  0.00     0.213 C 
ENDBRANCH  23  25
ENDBRANCH  19  23
ENDBRANCH  15  17
ENDBRANCH  13  15
ENDBRANCH  11  13
ENDBRANCH  10  11
ENDBRANCH   4  10
BRANCH   1  27
HETATM   27  C   UNL     1      25.917  42.704  51.325  1.00  0.00     0.038 C 
HETATM   28  N   UNL     1      26.796  41.644  51.311  1.00  0.00    -0.277 N 
HETATM   29  C   UNL     1      26.779  40.397  50.583  1.00  0.00     0.179 C 
HETATM   30  N   UNL     1      27.861  41.837  52.111  1.00  0.00    -0.172 NA
HETATM   31  C   UNL     1      27.593  42.941  52.814  1.00  0.00     0.089 C 
HETATM   32  C   UNL     1      26.379  43.504  52.363  1.00  0.00     0.061 C 
BRANCH  31  33
HETATM   33  C   UNL     1      28.496  43.472  53.832  1.00  0.00    -0.005 A 
HETATM   34  C   UNL     1      28.211  44.671  54.485  1.00  0.00     0.016 A 
HETATM   35  C   UNL     1      29.036  45.135  55.523  1.00  0.00     0.030 A 
HETATM   36  C   UNL     1      30.186  44.440  55.934  1.00  0.00     0.029 A 
HETATM   37  C   UNL     1      30.464  43.248  55.243  1.00  0.00     0.030 A 
HETATM   38  C   UNL     1      29.641  42.769  54.213  1.00  0.00     0.016 A 
BRANCH  36  39
HETATM   39  N   UNL     1      30.986  44.866  56.999  1.00  0.00    -0.390 N 
HETATM   40  C   UNL     1      31.907  43.923  57.631  1.00  0.00     0.149 C 
HETATM   41  C   UNL     1      30.454  45.908  57.879  1.00  0.00     0.149 C 
ENDBRANCH  36  39
ENDBRANCH  31  33
ENDBRANCH   1  27
TORSDOF 10
ENDMDL
MODEL 4
REMARK VINA RESULT:      -8.9      2.562      3.512
REMARK  10 active torsions:
REMARK  status: ('A' for Active; 'I' for Inactive)
REMARK    1  A    between atoms: C_4  and  C_5 
REMARK    2  A    between atoms: C_8  and  N_9 
REMARK    3  A    between atoms: C_15  and  C_16 
REMARK    4  A    between atoms: C_19  and  C_20 
REMARK    5  A    between atoms: C_20  and  N_21 
REMARK    6  A    between atoms: N_21  and  C_22 
REMARK    7  A    between atoms: C_22  and  N_23 
REMARK    8  A    between atoms: N_23  and  C_24 
REMARK    9  A    between atoms: C_26  and  C_27 
REMARK   10  A    between atoms: C_27  and  O_28 
ROOT
HETATM    1  C   UNL     1      24.617  43.141  50.352  1.00  0.00     0.067 C 
HETATM    2  C   UNL     1      24.823  43.638  48.910  1.00  0.00     0.001 C 
HETATM    3  C   UNL     1      25.076  45.159  48.866  1.00  0.00     0.040 C 
HETATM    4  C   UNL     1      23.864  45.956  49.371  1.00  0.00     0.206 C 
HETATM    5  N   UNL     1      22.927  44.958  50.040  1.00  0.00    -0.065 N 
HETATM    6  H   UNL     1      22.165  45.465  50.510  1.00  0.00     0.280 HD
HETATM    7  C   UNL     1      23.653  44.105  51.083  1.00  0.00     0.246 C 
HETATM    8  C   UNL     1      23.472  43.411  48.178  1.00  0.00     0.033 C 
HETATM    9  C   UNL     1      22.322  44.054  48.970  1.00  0.00     0.236 C 
ENDROOT
BRANCH   4  10
HETATM   10  C   UNL     1      24.240  47.142  50.287  1.00  0.00     0.155 C 
BRANCH  10  11
HETATM   11  N   UNL     1      24.424  48.381  49.536  1.00  0.00    -0.365 N 
HETATM   12  H   UNL     1      25.285  48.487  49.006  1.00  0.00     0.161 HD
BRANCH  11  13
HETATM   13  C   UNL     1      23.426  49.183  49.044  1.00  0.00     0.172 C 
HETATM   14  S   UNL     1      23.624  50.340  47.861  1.00  0.00    -0.041 SA
BRANCH  13  15
HETATM   15  N   UNL     1      22.195  49.038  49.627  1.00  0.00    -0.333 N 
HETATM   16  H   UNL     1      22.202  48.438  50.449  1.00  0.00     0.168 HD
BRANCH  15  17
HETATM   17  C   UNL     1      20.972  49.690  49.356  1.00  0.00     0.035 A 
HETATM   18  C   UNL     1      20.017  49.184  48.471  1.00  0.00     0.047 A 
HETATM   19  C   UNL     1      18.810  49.862  48.240  1.00  0.00     0.041 A 
HETATM   20  C   UNL     1      18.574  51.082  48.881  1.00  0.00     0.018 A 
HETATM   21  C   UNL     1      19.545  51.617  49.730  1.00  0.00     0.003 A 
HETATM   22  C   UNL     1      20.740  50.927  49.960  1.00  0.00     0.029 A 
BRANCH  19  23
HETATM   23  C   UNL     1      17.833  49.229  47.313  1.00  0.00     0.293 C 
HETATM   24  O   UNL     1      18.111  48.268  46.609  1.00  0.00    -0.259 OA
BRANCH  23  25
HETATM   25  O   UNL     1      16.621  49.821  47.414  1.00  0.00    -0.323 OA
HETATM   26  C   UNL     1      15.608  48.997  47.995  1.00  0.00     0.213 C 
ENDBRANCH  23  25
ENDBRANCH  19  23
ENDBRANCH  15  17
ENDBRANCH  13  15
ENDBRANCH  11  13
ENDBRANCH  10  11
ENDBRANCH   4  10
BRANCH   1  27
HETATM   27  C   UNL     1      25.778  42.761  51.227  1.00  0.00     0.038 C 
HETATM   28  N   UNL     1      26.592  41.650  51.248  1.00  0.00    -0.277 N 
HETATM   29  C   UNL     1      26.502  40.386  50.557  1.00  0.00     0.179 C 
HETATM   30  N   UNL     1      27.665  41.803  52.047  1.00  0.00    -0.172 NA
HETATM   31  C   UNL     1      27.462  42.941  52.716  1.00  0.00     0.089 C 
HETATM   32  C   UNL     1      26.285  43.562  52.244  1.00  0.00     0.061 C 
BRANCH  31  33
HETATM   33  C   UNL     1      28.393  43.447  53.721  1.00  0.00    -0.005 A 
HETATM   34  C   UNL     1      28.144  44.648  54.386  1.00  0.00     0.016 A 
HETATM   35  C   UNL     1      28.996  45.089  55.412  1.00  0.00     0.030 A 
HETATM   36  C   UNL     1      30.138  44.367  55.800  1.00  0.00     0.029 A 
HETATM   37  C   UNL     1      30.378  43.173  55.098  1.00  0.00     0.030 A 
HETATM   38  C   UNL     1      29.528  42.718  54.079  1.00  0.00     0.016 A 
BRANCH  36  39
HETATM   39  N   UNL     1      30.964  44.769  56.854  1.00  0.00    -0.390 N 
HETATM   40  C   UNL     1      31.867  43.800  57.472  1.00  0.00     0.149 C 
HETATM   41  C   UNL     1      30.474  45.825  57.741  1.00  0.00     0.149 C 
ENDBRANCH  36  39
ENDBRANCH  31  33
ENDBRANCH   1  27
TORSDOF 10
ENDMDL
MODEL 5
REMARK VINA RESULT:      -8.8      3.374      6.458
REMARK  10 active torsions:
REMARK  status: ('A' for Active; 'I' for Inactive)
REMARK    1  A    between atoms: C_4  and  C_5 
REMARK    2  A    between atoms: C_8  and  N_9 
REMARK    3  A    between atoms: C_15  and  C_16 
REMARK    4  A    between atoms: C_19  and  C_20 
REMARK    5  A    between atoms: C_20  and  N_21 
REMARK    6  A    between atoms: N_21  and  C_22 
REMARK    7  A    between atoms: C_22  and  N_23 
REMARK    8  A    between atoms: N_23  and  C_24 
REMARK    9  A    between atoms: C_26  and  C_27 
REMARK   10  A    between atoms: C_27  and  O_28 
ROOT
HETATM    1  C   UNL     1      21.994  49.809  48.341  1.00  0.00     0.067 C 
HETATM    2  C   UNL     1      21.229  50.775  49.264  1.00  0.00     0.001 C 
HETATM    3  C   UNL     1      20.230  50.022  50.168  1.00  0.00     0.040 C 
HETATM    4  C   UNL     1      19.130  49.328  49.352  1.00  0.00     0.206 C 
HETATM    5  N   UNL     1      19.574  49.361  47.894  1.00  0.00    -0.065 N 
HETATM    6  H   UNL     1      18.931  48.791  47.327  1.00  0.00     0.280 HD
HETATM    7  C   UNL     1      20.991  48.809  47.718  1.00  0.00     0.246 C 
HETATM    8  C   UNL     1      20.367  51.670  48.334  1.00  0.00     0.033 C 
HETATM    9  C   UNL     1      19.518  50.800  47.392  1.00  0.00     0.236 C 
ENDROOT
BRANCH   4  10
HETATM   10  C   UNL     1      18.791  47.906  49.850  1.00  0.00     0.155 C 
BRANCH  10  11
HETATM   11  N   UNL     1      17.407  47.537  49.565  1.00  0.00    -0.365 N 
HETATM   12  H   UNL     1      16.696  47.827  50.231  1.00  0.00     0.161 HD
BRANCH  11  13
HETATM   13  C   UNL     1      16.872  47.306  48.324  1.00  0.00     0.172 C 
HETATM   14  S   UNL     1      17.439  46.184  47.230  1.00  0.00    -0.041 SA
BRANCH  13  15
HETATM   15  N   UNL     1      15.826  48.113  47.960  1.00  0.00    -0.333 N 
HETATM   16  H   UNL     1      14.916  47.666  48.051  1.00  0.00     0.168 HD
BRANCH  15  17
HETATM   17  C   UNL     1      15.802  49.484  47.621  1.00  0.00     0.035 A 
HETATM   18  C   UNL     1      15.832  50.506  48.572  1.00  0.00     0.047 A 
HETATM   19  C   UNL     1      15.816  51.856  48.189  1.00  0.00     0.041 A 
HETATM   20  C   UNL     1      15.734  52.183  46.832  1.00  0.00     0.018 A 
HETATM   21  C   UNL     1      15.656  51.166  45.878  1.00  0.00     0.003 A 
HETATM   22  C   UNL     1      15.682  49.824  46.272  1.00  0.00     0.029 A 
BRANCH  19  23
HETATM   23  C   UNL     1      15.893  52.878  49.268  1.00  0.00     0.293 C 
HETATM   24  O   UNL     1      16.926  53.129  49.873  1.00  0.00    -0.259 OA
BRANCH  23  25
HETATM   25  O   UNL     1      14.704  53.503  49.424  1.00  0.00    -0.323 OA
HETATM   26  C   UNL     1      14.033  53.198  50.650  1.00  0.00     0.213 C 
ENDBRANCH  23  25
ENDBRANCH  19  23
ENDBRANCH  15  17
ENDBRANCH  13  15
ENDBRANCH  11  13
ENDBRANCH  10  11
ENDBRANCH   4  10
BRANCH   1  27
HETATM   27  C   UNL     1      23.248  49.115  48.792  1.00  0.00     0.038 C 
HETATM   28  N   UNL     1      24.581  49.415  48.618  1.00  0.00    -0.277 N 
HETATM   29  C   UNL     1      25.240  50.397  47.790  1.00  0.00     0.179 C 
HETATM   30  N   UNL     1      25.392  48.657  49.380  1.00  0.00    -0.172 NA
HETATM   31  C   UNL     1      24.611  47.713  49.915  1.00  0.00     0.089 C 
HETATM   32  C   UNL     1      23.267  47.956  49.559  1.00  0.00     0.061 C 
BRANCH  31  33
HETATM   33  C   UNL     1      25.125  46.660  50.786  1.00  0.00    -0.005 A 
HETATM   34  C   UNL     1      25.941  46.967  51.875  1.00  0.00     0.016 A 
HETATM   35  C   UNL     1      26.364  45.962  52.760  1.00  0.00     0.030 A 
HETATM   36  C   UNL     1      26.012  44.612  52.585  1.00  0.00     0.029 A 
HETATM   37  C   UNL     1      25.208  44.327  51.467  1.00  0.00     0.030 A 
HETATM   38  C   UNL     1      24.772  45.325  50.583  1.00  0.00     0.016 A 
BRANCH  36  39
HETATM   39  N   UNL     1      26.383  43.611  53.487  1.00  0.00    -0.390 N 
HETATM   40  C   UNL     1      26.170  43.815  54.919  1.00  0.00     0.149 C 
HETATM   41  C   UNL     1      27.527  42.768  53.138  1.00  0.00     0.149 C 
ENDBRANCH  36  39
ENDBRANCH  31  33
ENDBRANCH   1  27
TORSDOF 10
ENDMDL
MODEL 6
REMARK VINA RESULT:      -8.8      2.753      6.128
REMARK  10 active torsions:
REMARK  status: ('A' for Active; 'I' for Inactive)
REMARK    1  A    between atoms: C_4  and  C_5 
REMARK    2  A    between atoms: C_8  and  N_9 
REMARK    3  A    between atoms: C_15  and  C_16 
REMARK    4  A    between atoms: C_19  and  C_20 
REMARK    5  A    between atoms: C_20  and  N_21 
REMARK    6  A    between atoms: N_21  and  C_22 
REMARK    7  A    between atoms: C_22  and  N_23 
REMARK    8  A    between atoms: N_23  and  C_24 
REMARK    9  A    between atoms: C_26  and  C_27 
REMARK   10  A    between atoms: C_27  and  O_28 
ROOT
HETATM    1  C   UNL     1      22.104  49.852  48.355  1.00  0.00     0.067 C 
HETATM    2  C   UNL     1      21.392  50.832  49.305  1.00  0.00     0.001 C 
HETATM    3  C   UNL     1      20.455  50.093  50.282  1.00  0.00     0.040 C 
HETATM    4  C   UNL     1      19.310  49.381  49.548  1.00  0.00     0.206 C 
HETATM    5  N   UNL     1      19.663  49.388  48.066  1.00  0.00    -0.065 N 
HETATM    6  H   UNL     1      18.990  48.805  47.550  1.00  0.00     0.280 HD
HETATM    7  C   UNL     1      21.069  48.838  47.813  1.00  0.00     0.246 C 
HETATM    8  C   UNL     1      20.471  51.707  48.413  1.00  0.00     0.033 C 
HETATM    9  C   UNL     1      19.570  50.817  47.542  1.00  0.00     0.236 C 
ENDROOT
BRANCH   4  10
HETATM   10  C   UNL     1      19.009  47.966  50.092  1.00  0.00     0.155 C 
BRANCH  10  11
HETATM   11  N   UNL     1      17.821  47.380  49.475  1.00  0.00    -0.365 N 
HETATM   12  H   UNL     1      16.928  47.834  49.648  1.00  0.00     0.161 HD
BRANCH  11  13
HETATM   13  C   UNL     1      17.793  46.633  48.326  1.00  0.00     0.172 C 
HETATM   14  S   UNL     1      16.890  46.991  46.973  1.00  0.00    -0.041 SA
BRANCH  13  15
HETATM   15  N   UNL     1      18.533  45.479  48.340  1.00  0.00    -0.333 N 
HETATM   16  H   UNL     1      17.984  44.647  48.549  1.00  0.00     0.168 HD
BRANCH  15  17
HETATM   17  C   UNL     1      19.878  45.250  47.978  1.00  0.00     0.035 A 
HETATM   18  C   UNL     1      20.831  44.742  48.864  1.00  0.00     0.047 A 
HETATM   19  C   UNL     1      22.156  44.521  48.458  1.00  0.00     0.041 A 
HETATM   20  C   UNL     1      22.537  44.847  47.153  1.00  0.00     0.018 A 
HETATM   21  C   UNL     1      21.601  45.400  46.276  1.00  0.00     0.003 A 
HETATM   22  C   UNL     1      20.281  45.607  46.690  1.00  0.00     0.029 A 
BRANCH  19  23
HETATM   23  C   UNL     1      23.093  43.938  49.456  1.00  0.00     0.293 C 
HETATM   24  O   UNL     1      22.921  44.032  50.663  1.00  0.00    -0.259 OA
BRANCH  23  25
HETATM   25  O   UNL     1      24.091  43.263  48.842  1.00  0.00    -0.323 OA
HETATM   26  C   UNL     1      24.110  41.859  49.114  1.00  0.00     0.213 C 
ENDBRANCH  23  25
ENDBRANCH  19  23
ENDBRANCH  15  17
ENDBRANCH  13  15
ENDBRANCH  11  13
ENDBRANCH  10  11
ENDBRANCH   4  10
BRANCH   1  27
HETATM   27  C   UNL     1      23.387  49.172  48.741  1.00  0.00     0.038 C 
HETATM   28  N   UNL     1      24.706  49.527  48.571  1.00  0.00    -0.277 N 
HETATM   29  C   UNL     1      25.320  50.586  47.806  1.00  0.00     0.179 C 
HETATM   30  N   UNL     1      25.553  48.746  49.268  1.00  0.00    -0.172 NA
HETATM   31  C   UNL     1      24.811  47.742  49.746  1.00  0.00     0.089 C 
HETATM   32  C   UNL     1      23.454  47.963  49.425  1.00  0.00     0.061 C 
BRANCH  31  33
HETATM   33  C   UNL     1      25.372  46.648  50.535  1.00  0.00    -0.005 A 
HETATM   34  C   UNL     1      26.212  45.702  49.949  1.00  0.00     0.016 A 
HETATM   35  C   UNL     1      26.818  44.701  50.727  1.00  0.00     0.030 A 
HETATM   36  C   UNL     1      26.594  44.589  52.110  1.00  0.00     0.029 A 
HETATM   37  C   UNL     1      25.724  45.541  52.671  1.00  0.00     0.030 A 
HETATM   38  C   UNL     1      25.123  46.551  51.906  1.00  0.00     0.016 A 
BRANCH  36  39
HETATM   39  N   UNL     1      27.230  43.630  52.904  1.00  0.00    -0.390 N 
HETATM   40  C   UNL     1      28.195  44.056  53.916  1.00  0.00     0.149 C 
HETATM   41  C   UNL     1      27.481  42.314  52.315  1.00  0.00     0.149 C 
ENDBRANCH  36  39
ENDBRANCH  31  33
ENDBRANCH   1  27
TORSDOF 10
ENDMDL
MODEL 7
REMARK VINA RESULT:      -8.8     14.024     17.628
REMARK  10 active torsions:
REMARK  status: ('A' for Active; 'I' for Inactive)
REMARK    1  A    between atoms: C_4  and  C_5 
REMARK    2  A    between atoms: C_8  and  N_9 
REMARK    3  A    between atoms: C_15  and  C_16 
REMARK    4  A    between atoms: C_19  and  C_20 
REMARK    5  A    between atoms: C_20  and  N_21 
REMARK    6  A    between atoms: N_21  and  C_22 
REMARK    7  A    between atoms: C_22  and  N_23 
REMARK    8  A    between atoms: N_23  and  C_24 
REMARK    9  A    between atoms: C_26  and  C_27 
REMARK   10  A    between atoms: C_27  and  O_28 
ROOT
HETATM    1  C   UNL     1      37.415  53.324  38.881  1.00  0.00     0.067 C 
HETATM    2  C   UNL     1      37.769  51.941  38.303  1.00  0.00     0.001 C 
HETATM    3  C   UNL     1      37.998  50.903  39.420  1.00  0.00     0.040 C 
HETATM    4  C   UNL     1      39.204  51.265  40.299  1.00  0.00     0.206 C 
HETATM    5  N   UNL     1      39.584  52.701  39.958  1.00  0.00    -0.065 N 
HETATM    6  H   UNL     1      40.303  53.031  40.617  1.00  0.00     0.280 HD
HETATM    7  C   UNL     1      38.382  53.644  40.045  1.00  0.00     0.246 C 
HETATM    8  C   UNL     1      39.138  52.108  37.591  1.00  0.00     0.033 C 
HETATM    9  C   UNL     1      40.164  52.737  38.548  1.00  0.00     0.236 C 
ENDROOT
BRANCH   4  10
HETATM   10  C   UNL     1      38.960  51.046  41.809  1.00  0.00     0.155 C 
BRANCH  10  11
HETATM   11  N   UNL     1      37.545  50.852  42.116  1.00  0.00    -0.365 N 
HETATM   12  H   UNL     1      37.185  49.901  42.092  1.00  0.00     0.161 HD
BRANCH  11  13
HETATM   13  C   UNL     1      36.770  51.666  42.899  1.00  0.00     0.172 C 
HETATM   14  S   UNL     1      37.217  52.274  44.385  1.00  0.00    -0.041 SA
BRANCH  13  15
HETATM   15  N   UNL     1      35.514  51.941  42.424  1.00  0.00    -0.333 N 
HETATM   16  H   UNL     1      35.481  52.749  41.805  1.00  0.00     0.168 HD
BRANCH  15  17
HETATM   17  C   UNL     1      34.311  51.211  42.541  1.00  0.00     0.035 A 
HETATM   18  C   UNL     1      34.039  50.062  41.795  1.00  0.00     0.047 A 
HETATM   19  C   UNL     1      32.833  49.363  41.951  1.00  0.00     0.041 A 
HETATM   20  C   UNL     1      31.872  49.844  42.846  1.00  0.00     0.018 A 
HETATM   21  C   UNL     1      32.117  51.019  43.560  1.00  0.00     0.003 A 
HETATM   22  C   UNL     1      33.327  51.702  43.402  1.00  0.00     0.029 A 
BRANCH  19  23
HETATM   23  C   UNL     1      32.646  48.126  41.146  1.00  0.00     0.293 C 
HETATM   24  O   UNL     1      33.265  47.093  41.361  1.00  0.00    -0.259 OA
BRANCH  23  25
HETATM   25  O   UNL     1      31.679  48.298  40.216  1.00  0.00    -0.323 OA
HETATM   26  C   UNL     1      30.869  47.142  39.985  1.00  0.00     0.213 C 
ENDBRANCH  23  25
ENDBRANCH  19  23
ENDBRANCH  15  17
ENDBRANCH  13  15
ENDBRANCH  11  13
ENDBRANCH  10  11
ENDBRANCH   4  10
BRANCH   1  27
HETATM   27  C   UNL     1      36.000  53.695  39.227  1.00  0.00     0.038 C 
HETATM   28  N   UNL     1      35.380  54.913  39.389  1.00  0.00    -0.277 N 
HETATM   29  C   UNL     1      35.911  56.254  39.462  1.00  0.00     0.179 C 
HETATM   30  N   UNL     1      34.040  54.811  39.474  1.00  0.00    -0.172 NA
HETATM   31  C   UNL     1      33.780  53.504  39.568  1.00  0.00     0.089 C 
HETATM   32  C   UNL     1      34.980  52.773  39.434  1.00  0.00     0.061 C 
BRANCH  31  33
HETATM   33  C   UNL     1      32.427  52.974  39.716  1.00  0.00    -0.005 A 
HETATM   34  C   UNL     1      32.034  51.819  39.039  1.00  0.00     0.016 A 
HETATM   35  C   UNL     1      30.761  51.263  39.249  1.00  0.00     0.030 A 
HETATM   36  C   UNL     1      29.823  51.846  40.119  1.00  0.00     0.029 A 
HETATM   37  C   UNL     1      30.236  53.022  40.769  1.00  0.00     0.030 A 
HETATM   38  C   UNL     1      31.509  53.579  40.576  1.00  0.00     0.016 A 
BRANCH  36  39
HETATM   39  N   UNL     1      28.573  51.275  40.374  1.00  0.00    -0.390 N 
HETATM   40  C   UNL     1      27.637  51.957  41.266  1.00  0.00     0.149 C 
HETATM   41  C   UNL     1      28.474  49.815  40.360  1.00  0.00     0.149 C 
ENDBRANCH  36  39
ENDBRANCH  31  33
ENDBRANCH   1  27
TORSDOF 10
ENDMDL
MODEL 8
REMARK VINA RESULT:      -8.7      4.712     12.345
REMARK  10 active torsions:
REMARK  status: ('A' for Active; 'I' for Inactive)
REMARK    1  A    between atoms: C_4  and  C_5 
REMARK    2  A    between atoms: C_8  and  N_9 
REMARK    3  A    between atoms: C_15  and  C_16 
REMARK    4  A    between atoms: C_19  and  C_20 
REMARK    5  A    between atoms: C_20  and  N_21 
REMARK    6  A    between atoms: N_21  and  C_22 
REMARK    7  A    between atoms: C_22  and  N_23 
REMARK    8  A    between atoms: N_23  and  C_24 
REMARK    9  A    between atoms: C_26  and  C_27 
REMARK   10  A    between atoms: C_27  and  O_28 
ROOT
HETATM    1  C   UNL     1      19.438  51.208  49.290  1.00  0.00     0.067 C 
HETATM    2  C   UNL     1      20.339  51.020  48.055  1.00  0.00     0.001 C 
HETATM    3  C   UNL     1      20.303  49.565  47.544  1.00  0.00     0.040 C 
HETATM    4  C   UNL     1      20.868  48.581  48.577  1.00  0.00     0.206 C 
HETATM    5  N   UNL     1      20.991  49.342  49.892  1.00  0.00    -0.065 N 
HETATM    6  H   UNL     1      21.241  48.687  50.646  1.00  0.00     0.280 HD
HETATM    7  C   UNL     1      19.682  50.038  50.272  1.00  0.00     0.246 C 
HETATM    8  C   UNL     1      21.794  51.262  48.541  1.00  0.00     0.033 C 
HETATM    9  C   UNL     1      22.103  50.378  49.760  1.00  0.00     0.236 C 
ENDROOT
BRANCH   4  10
HETATM   10  C   UNL     1      20.047  47.278  48.708  1.00  0.00     0.155 C 
BRANCH  10  11
HETATM   11  N   UNL     1      20.893  46.118  48.978  1.00  0.00    -0.365 N 
HETATM   12  H   UNL     1      20.520  45.395  49.587  1.00  0.00     0.161 HD
BRANCH  11  13
HETATM   13  C   UNL     1      21.878  45.629  48.159  1.00  0.00     0.172 C 
HETATM   14  S   UNL     1      21.798  45.568  46.496  1.00  0.00    -0.041 SA
BRANCH  13  15
HETATM   15  N   UNL     1      22.979  45.108  48.787  1.00  0.00    -0.333 N 
HETATM   16  H   UNL     1      23.271  44.206  48.414  1.00  0.00     0.168 HD
BRANCH  15  17
HETATM   17  C   UNL     1      23.837  45.677  49.752  1.00  0.00     0.035 A 
HETATM   18  C   UNL     1      24.250  44.999  50.902  1.00  0.00     0.047 A 
HETATM   19  C   UNL     1      25.112  45.602  51.831  1.00  0.00     0.041 A 
HETATM   20  C   UNL     1      25.539  46.916  51.618  1.00  0.00     0.018 A 
HETATM   21  C   UNL     1      25.092  47.616  50.496  1.00  0.00     0.003 A 
HETATM   22  C   UNL     1      24.240  47.002  49.573  1.00  0.00     0.029 A 
BRANCH  19  23
HETATM   23  C   UNL     1      25.533  44.791  53.005  1.00  0.00     0.293 C 
HETATM   24  O   UNL     1      24.743  44.161  53.696  1.00  0.00    -0.259 OA
BRANCH  23  25
HETATM   25  O   UNL     1      26.878  44.810  53.146  1.00  0.00    -0.323 OA
HETATM   26  C   UNL     1      27.330  45.221  54.440  1.00  0.00     0.213 C 
ENDBRANCH  23  25
ENDBRANCH  19  23
ENDBRANCH  15  17
ENDBRANCH  13  15
ENDBRANCH  11  13
ENDBRANCH  10  11
ENDBRANCH   4  10
BRANCH   1  27
HETATM   27  C   UNL     1      17.973  51.514  49.156  1.00  0.00     0.038 C 
HETATM   28  N   UNL     1      16.920  50.782  48.654  1.00  0.00    -0.277 N 
HETATM   29  C   UNL     1      16.884  49.541  47.916  1.00  0.00     0.179 C 
HETATM   30  N   UNL     1      15.722  51.332  48.928  1.00  0.00    -0.172 NA
HETATM   31  C   UNL     1      15.984  52.537  49.442  1.00  0.00     0.089 C 
HETATM   32  C   UNL     1      17.380  52.695  49.586  1.00  0.00     0.061 C 
BRANCH  31  33
HETATM   33  C   UNL     1      14.937  53.474  49.840  1.00  0.00    -0.005 A 
HETATM   34  C   UNL     1      14.785  53.851  51.175  1.00  0.00     0.016 A 
HETATM   35  C   UNL     1      13.833  54.817  51.542  1.00  0.00     0.030 A 
HETATM   36  C   UNL     1      12.982  55.425  50.604  1.00  0.00     0.029 A 
HETATM   37  C   UNL     1      13.139  55.008  49.271  1.00  0.00     0.030 A 
HETATM   38  C   UNL     1      14.094  54.054  48.890  1.00  0.00     0.016 A 
BRANCH  36  39
HETATM   39  N   UNL     1      12.066  56.423  50.950  1.00  0.00    -0.390 N 
HETATM   40  C   UNL     1      12.126  57.721  50.280  1.00  0.00     0.149 C 
HETATM   41  C   UNL     1      11.576  56.452  52.329  1.00  0.00     0.149 C 
ENDBRANCH  36  39
ENDBRANCH  31  33
ENDBRANCH   1  27
TORSDOF 10
ENDMDL
MODEL 9
REMARK VINA RESULT:      -8.6      4.003     10.097
REMARK  10 active torsions:
REMARK  status: ('A' for Active; 'I' for Inactive)
REMARK    1  A    between atoms: C_4  and  C_5 
REMARK    2  A    between atoms: C_8  and  N_9 
REMARK    3  A    between atoms: C_15  and  C_16 
REMARK    4  A    between atoms: C_19  and  C_20 
REMARK    5  A    between atoms: C_20  and  N_21 
REMARK    6  A    between atoms: N_21  and  C_22 
REMARK    7  A    between atoms: C_22  and  N_23 
REMARK    8  A    between atoms: N_23  and  C_24 
REMARK    9  A    between atoms: C_26  and  C_27 
REMARK   10  A    between atoms: C_27  and  O_28 
ROOT
HETATM    1  C   UNL     1      23.960  44.890  48.730  1.00  0.00     0.067 C 
HETATM    2  C   UNL     1      23.081  43.666  49.046  1.00  0.00     0.001 C 
HETATM    3  C   UNL     1      23.315  43.158  50.484  1.00  0.00     0.040 C 
HETATM    4  C   UNL     1      24.751  42.655  50.687  1.00  0.00     0.206 C 
HETATM    5  N   UNL     1      25.556  43.116  49.477  1.00  0.00    -0.065 N 
HETATM    6  H   UNL     1      26.554  42.916  49.633  1.00  0.00     0.280 HD
HETATM    7  C   UNL     1      25.399  44.618  49.227  1.00  0.00     0.246 C 
HETATM    8  C   UNL     1      23.571  42.529  48.110  1.00  0.00     0.033 C 
HETATM    9  C   UNL     1      25.091  42.340  48.249  1.00  0.00     0.236 C 
ENDROOT
BRANCH   4  10
HETATM   10  C   UNL     1      25.377  43.089  52.031  1.00  0.00     0.155 C 
BRANCH  10  11
HETATM   11  N   UNL     1      26.518  42.256  52.402  1.00  0.00    -0.365 N 
HETATM   12  H   UNL     1      26.479  41.270  52.161  1.00  0.00     0.161 HD
BRANCH  11  13
HETATM   13  C   UNL     1      27.810  42.685  52.568  1.00  0.00     0.172 C 
HETATM   14  S   UNL     1      29.136  41.688  52.725  1.00  0.00    -0.041 SA
BRANCH  13  15
HETATM   15  N   UNL     1      27.987  44.040  52.664  1.00  0.00    -0.333 N 
HETATM   16  H   UNL     1      27.894  44.526  51.775  1.00  0.00     0.168 HD
BRANCH  15  17
HETATM   17  C   UNL     1      28.135  44.865  53.800  1.00  0.00     0.035 A 
HETATM   18  C   UNL     1      29.112  44.654  54.776  1.00  0.00     0.047 A 
HETATM   19  C   UNL     1      29.227  45.507  55.884  1.00  0.00     0.041 A 
HETATM   20  C   UNL     1      28.328  46.566  56.032  1.00  0.00     0.018 A 
HETATM   21  C   UNL     1      27.319  46.755  55.085  1.00  0.00     0.003 A 
HETATM   22  C   UNL     1      27.219  45.904  53.980  1.00  0.00     0.029 A 
BRANCH  19  23
HETATM   23  C   UNL     1      30.324  45.231  56.852  1.00  0.00     0.293 C 
HETATM   24  O   UNL     1      30.337  45.682  57.989  1.00  0.00    -0.259 OA
BRANCH  23  25
HETATM   25  O   UNL     1      31.237  44.388  56.318  1.00  0.00    -0.323 OA
HETATM   26  C   UNL     1      31.715  43.386  57.220  1.00  0.00     0.213 C 
ENDBRANCH  23  25
ENDBRANCH  19  23
ENDBRANCH  15  17
ENDBRANCH  13  15
ENDBRANCH  11  13
ENDBRANCH  10  11
ENDBRANCH   4  10
BRANCH   1  27
HETATM   27  C   UNL     1      23.518  46.286  49.070  1.00  0.00     0.038 C 
HETATM   28  N   UNL     1      24.106  47.283  49.816  1.00  0.00    -0.277 N 
HETATM   29  C   UNL     1      25.263  47.275  50.679  1.00  0.00     0.179 C 
HETATM   30  N   UNL     1      23.485  48.470  49.685  1.00  0.00    -0.172 NA
HETATM   31  C   UNL     1      22.361  48.220  49.007  1.00  0.00     0.089 C 
HETATM   32  C   UNL     1      22.337  46.862  48.618  1.00  0.00     0.061 C 
BRANCH  31  33
HETATM   33  C   UNL     1      21.380  49.254  48.688  1.00  0.00    -0.005 A 
HETATM   34  C   UNL     1      20.389  49.030  47.732  1.00  0.00     0.016 A 
HETATM   35  C   UNL     1      19.397  49.993  47.489  1.00  0.00     0.030 A 
HETATM   36  C   UNL     1      19.364  51.223  48.168  1.00  0.00     0.029 A 
HETATM   37  C   UNL     1      20.388  51.434  49.109  1.00  0.00     0.030 A 
HETATM   38  C   UNL     1      21.377  50.474  49.367  1.00  0.00     0.016 A 
BRANCH  36  39
HETATM   39  N   UNL     1      18.353  52.168  47.972  1.00  0.00    -0.390 N 
HETATM   40  C   UNL     1      17.606  52.676  49.122  1.00  0.00     0.149 C 
HETATM   41  C   UNL     1      17.607  52.119  46.713  1.00  0.00     0.149 C 
ENDBRANCH  36  39
ENDBRANCH  31  33
ENDBRANCH   1  27
TORSDOF 10
ENDMDL
MODEL 10
REMARK VINA RESULT:      -8.5      3.231      4.922
REMARK  10 active torsions:
REMARK  status: ('A' for Active; 'I' for Inactive)
REMARK    1  A    between atoms: C_4  and  C_5 
REMARK    2  A    between atoms: C_8  and  N_9 
REMARK    3  A    between atoms: C_15  and  C_16 
REMARK    4  A    between atoms: C_19  and  C_20 
REMARK    5  A    between atoms: C_20  and  N_21 
REMARK    6  A    between atoms: N_21  and  C_22 
REMARK    7  A    between atoms: C_22  and  N_23 
REMARK    8  A    between atoms: N_23  and  C_24 
REMARK    9  A    between atoms: C_26  and  C_27 
REMARK   10  A    between atoms: C_27  and  O_28 
ROOT
HETATM    1  C   UNL     1      27.798  39.990  50.353  1.00  0.00     0.067 C 
HETATM    2  C   UNL     1      28.716  39.433  49.250  1.00  0.00     0.001 C 
HETATM    3  C   UNL     1      28.279  39.919  47.852  1.00  0.00     0.040 C 
HETATM    4  C   UNL     1      26.882  39.402  47.478  1.00  0.00     0.206 C 
HETATM    5  N   UNL     1      26.266  38.834  48.750  1.00  0.00    -0.065 N 
HETATM    6  H   UNL     1      25.279  38.597  48.577  1.00  0.00     0.280 HD
HETATM    7  C   UNL     1      26.325  39.833  49.908  1.00  0.00     0.246 C 
HETATM    8  C   UNL     1      28.508  37.895  49.249  1.00  0.00     0.033 C 
HETATM    9  C   UNL     1      27.011  37.559  49.134  1.00  0.00     0.236 C 
ENDROOT
BRANCH   4  10
HETATM   10  C   UNL     1      25.991  40.464  46.795  1.00  0.00     0.155 C 
BRANCH  10  11
HETATM   11  N   UNL     1      24.614  40.003  46.630  1.00  0.00    -0.365 N 
HETATM   12  H   UNL     1      24.419  39.025  46.826  1.00  0.00     0.161 HD
BRANCH  11  13
HETATM   13  C   UNL     1      23.486  40.775  46.736  1.00  0.00     0.172 C 
HETATM   14  S   UNL     1      21.925  40.217  46.563  1.00  0.00    -0.041 SA
BRANCH  13  15
HETATM   15  N   UNL     1      23.690  42.113  46.947  1.00  0.00    -0.333 N 
HETATM   16  H   UNL     1      23.800  42.648  46.089  1.00  0.00     0.168 HD
BRANCH  15  17
HETATM   17  C   UNL     1      23.630  42.871  48.137  1.00  0.00     0.035 A 
HETATM   18  C   UNL     1      23.839  44.252  48.173  1.00  0.00     0.047 A 
HETATM   19  C   UNL     1      23.761  44.967  49.378  1.00  0.00     0.041 A 
HETATM   20  C   UNL     1      23.502  44.280  50.568  1.00  0.00     0.018 A 
HETATM   21  C   UNL     1      23.340  42.893  50.546  1.00  0.00     0.003 A 
HETATM   22  C   UNL     1      23.412  42.193  49.338  1.00  0.00     0.029 A 
BRANCH  19  23
HETATM   23  C   UNL     1      23.956  46.441  49.317  1.00  0.00     0.293 C 
HETATM   24  O   UNL     1      23.032  47.228  49.166  1.00  0.00    -0.259 OA
BRANCH  23  25
HETATM   25  O   UNL     1      25.256  46.763  49.508  1.00  0.00    -0.323 OA
HETATM   26  C   UNL     1      25.508  48.168  49.602  1.00  0.00     0.213 C 
ENDBRANCH  23  25
ENDBRANCH  19  23
ENDBRANCH  15  17
ENDBRANCH  13  15
ENDBRANCH  11  13
ENDBRANCH  10  11
ENDBRANCH   4  10
BRANCH   1  27
HETATM   27  C   UNL     1      28.041  41.336  50.976  1.00  0.00     0.038 C 
HETATM   28  N   UNL     1      27.648  42.605  50.612  1.00  0.00    -0.277 N 
HETATM   29  C   UNL     1      27.020  43.104  49.412  1.00  0.00     0.179 C 
HETATM   30  N   UNL     1      27.884  43.521  51.570  1.00  0.00    -0.172 NA
HETATM   31  C   UNL     1      28.619  42.898  52.496  1.00  0.00     0.089 C 
HETATM   32  C   UNL     1      28.753  41.534  52.153  1.00  0.00     0.061 C 
BRANCH  31  33
HETATM   33  C   UNL     1      29.118  43.567  53.694  1.00  0.00    -0.005 A 
HETATM   34  C   UNL     1      28.480  44.701  54.198  1.00  0.00     0.016 A 
HETATM   35  C   UNL     1      28.911  45.292  55.397  1.00  0.00     0.030 A 
HETATM   36  C   UNL     1      30.004  44.794  56.128  1.00  0.00     0.029 A 
HETATM   37  C   UNL     1      30.643  43.666  55.586  1.00  0.00     0.030 A 
HETATM   38  C   UNL     1      30.215  43.061  54.395  1.00  0.00     0.016 A 
BRANCH  36  39
HETATM   39  N   UNL     1      30.409  45.343  57.348  1.00  0.00    -0.390 N 
HETATM   40  C   UNL     1      31.402  44.641  58.160  1.00  0.00     0.149 C 
HETATM   41  C   UNL     1      29.434  46.136  58.098  1.00  0.00     0.149 C 
ENDBRANCH  36  39
ENDBRANCH  31  33
ENDBRANCH   1  27
TORSDOF 10
ENDMDL
