MODEL 1
REMARK VINA RESULT:      -8.6      0.000      0.000
REMARK  5 active torsions:
REMARK  status: ('A' for Active; 'I' for Inactive)
REMARK    1  A    between atoms: C_8  and  N_9 
REMARK    2  A    between atoms: N_9  and  C_10 
REMARK    3  A    between atoms: C_10  and  C_11 
REMARK    4  A    between atoms: C_11  and  N_12 
REMARK       I    between atoms: N_12  and  C_13 
REMARK    5  A    between atoms: C_13  and  C_14 
ROOT
HETATM    1  C   UNL     1      31.963  43.434  56.958  1.00  0.00     0.048 C 
HETATM    2  C   UNL     1      30.799  43.850  56.104  1.00  0.00    -0.061 A 
HETATM    3  C   UNL     1      30.101  45.035  56.375  1.00  0.00     0.020 A 
HETATM    4  C   UNL     1      29.027  45.437  55.564  1.00  0.00    -0.008 A 
HETATM    5  C   UNL     1      28.664  44.638  54.464  1.00  0.00     0.043 A 
HETATM    6  N   UNL     1      27.633  45.017  53.692  1.00  0.00    -0.346 N 
HETATM    7  H   UNL     1      27.408  44.423  52.902  1.00  0.00     0.167 HD
HETATM    8  C   UNL     1      26.885  46.116  53.897  1.00  0.00     0.086 A 
HETATM    9  C   UNL     1      27.241  46.970  54.958  1.00  0.00    -0.023 A 
HETATM   10  C   UNL     1      26.489  48.242  55.246  1.00  0.00     0.052 C 
HETATM   11  C   UNL     1      28.301  46.608  55.800  1.00  0.00     0.023 A 
HETATM   12  C   UNL     1      29.371  43.463  54.181  1.00  0.00     0.031 A 
HETATM   13  C   UNL     1      30.434  43.075  54.997  1.00  0.00     0.009 A 
ENDROOT
BRANCH   8  14
HETATM   14  N   UNL     1      25.839  46.445  53.028  1.00  0.00    -0.277 NA
HETATM   15  H   UNL     1      25.156  47.050  53.489  1.00  0.00     0.129 HD
BRANCH  14  16
HETATM   16  C   UNL     1      25.210  45.377  52.252  1.00  0.00     0.113 C 
BRANCH  16  17
HETATM   17  C   UNL     1      25.188  45.658  50.744  1.00  0.00     0.137 C 
BRANCH  17  18
HETATM   18  N   UNL     1      25.986  46.796  50.295  1.00  0.00    -0.360 N 
HETATM   19  C   UNL     1      25.489  48.018  49.885  1.00  0.00     0.221 C 
HETATM   20  O   UNL     1      24.298  48.313  49.950  1.00  0.00    -0.273 OA
HETATM   21  H   UNL     1      26.981  46.633  50.182  1.00  0.00     0.162 HD
BRANCH  19  22
HETATM   22  C   UNL     1      26.557  48.973  49.353  1.00  0.00     0.070 C 
HETATM   23  C   UNL     1      27.819  48.203  48.968  1.00  0.00     0.019 C 
HETATM   24  C   UNL     1      26.033  49.763  48.154  1.00  0.00     0.019 C 
ENDBRANCH  19  22
ENDBRANCH  17  18
ENDBRANCH  16  17
ENDBRANCH  14  16
ENDBRANCH   8  14
TORSDOF 5
ENDMDL
MODEL 2
REMARK VINA RESULT:      -8.4      1.737      3.041
REMARK  5 active torsions:
REMARK  status: ('A' for Active; 'I' for Inactive)
REMARK    1  A    between atoms: C_8  and  N_9 
REMARK    2  A    between atoms: N_9  and  C_10 
REMARK    3  A    between atoms: C_10  and  C_11 
REMARK    4  A    between atoms: C_11  and  N_12 
REMARK       I    between atoms: N_12  and  C_13 
REMARK    5  A    between atoms: C_13  and  C_14 
ROOT
HETATM    1  C   UNL     1      31.802  44.013  57.487  1.00  0.00     0.048 C 
HETATM    2  C   UNL     1      30.827  44.140  56.351  1.00  0.00    -0.061 A 
HETATM    3  C   UNL     1      30.641  43.085  55.447  1.00  0.00     0.020 A 
HETATM    4  C   UNL     1      29.714  43.193  54.397  1.00  0.00    -0.008 A 
HETATM    5  C   UNL     1      28.961  44.375  54.269  1.00  0.00     0.043 A 
HETATM    6  N   UNL     1      28.080  44.484  53.262  1.00  0.00    -0.346 N 
HETATM    7  H   UNL     1      27.548  45.345  53.209  1.00  0.00     0.167 HD
HETATM    8  C   UNL     1      27.861  43.540  52.330  1.00  0.00     0.086 A 
HETATM    9  C   UNL     1      28.557  42.321  52.446  1.00  0.00    -0.023 A 
HETATM   10  C   UNL     1      28.355  41.191  51.473  1.00  0.00     0.052 C 
HETATM   11  C   UNL     1      29.500  42.168  53.472  1.00  0.00     0.023 A 
HETATM   12  C   UNL     1      29.133  45.424  55.180  1.00  0.00     0.031 A 
HETATM   13  C   UNL     1      30.060  45.303  56.217  1.00  0.00     0.009 A 
ENDROOT
BRANCH   8  14
HETATM   14  N   UNL     1      26.906  43.730  51.325  1.00  0.00    -0.277 NA
HETATM   15  H   UNL     1      27.280  44.306  50.568  1.00  0.00     0.129 HD
BRANCH  14  16
HETATM   16  C   UNL     1      25.551  44.122  51.711  1.00  0.00     0.113 C 
BRANCH  16  17
HETATM   17  C   UNL     1      24.779  44.819  50.583  1.00  0.00     0.137 C 
BRANCH  17  18
HETATM   18  N   UNL     1      25.123  46.218  50.344  1.00  0.00    -0.360 N 
HETATM   19  C   UNL     1      26.296  46.675  49.775  1.00  0.00     0.221 C 
HETATM   20  O   UNL     1      27.152  45.925  49.311  1.00  0.00    -0.273 OA
HETATM   21  H   UNL     1      24.485  46.911  50.721  1.00  0.00     0.162 HD
BRANCH  19  22
HETATM   22  C   UNL     1      26.427  48.198  49.765  1.00  0.00     0.070 C 
HETATM   23  C   UNL     1      27.704  48.619  49.041  1.00  0.00     0.019 C 
HETATM   24  C   UNL     1      25.208  48.845  49.108  1.00  0.00     0.019 C 
ENDBRANCH  19  22
ENDBRANCH  17  18
ENDBRANCH  16  17
ENDBRANCH  14  16
ENDBRANCH   8  14
TORSDOF 5
ENDMDL
MODEL 3
REMARK VINA RESULT:      -8.3      1.940      3.157
REMARK  5 active torsions:
REMARK  status: ('A' for Active; 'I' for Inactive)
REMARK    1  A    between atoms: C_8  and  N_9 
REMARK    2  A    between atoms: N_9  and  C_10 
REMARK    3  A    between atoms: C_10  and  C_11 
REMARK    4  A    between atoms: C_11  and  N_12 
REMARK       I    between atoms: N_12  and  C_13 
REMARK    5  A    between atoms: C_13  and  C_14 
ROOT
HETATM    1  C   UNL     1      32.036  43.481  56.997  1.00  0.00     0.048 C 
HETATM    2  C   UNL     1      30.834  43.890  56.194  1.00  0.00    -0.061 A 
HETATM    3  C   UNL     1      30.156  45.084  56.479  1.00  0.00     0.020 A 
HETATM    4  C   UNL     1      29.046  45.480  55.714  1.00  0.00    -0.008 A 
HETATM    5  C   UNL     1      28.627  44.666  54.646  1.00  0.00     0.043 A 
HETATM    6  N   UNL     1      27.561  45.039  53.918  1.00  0.00    -0.346 N 
HETATM    7  H   UNL     1      27.296  44.434  53.150  1.00  0.00     0.167 HD
HETATM    8  C   UNL     1      26.830  46.146  54.141  1.00  0.00     0.086 A 
HETATM    9  C   UNL     1      27.242  47.015  55.170  1.00  0.00    -0.023 A 
HETATM   10  C   UNL     1      26.512  48.295  55.474  1.00  0.00     0.052 C 
HETATM   11  C   UNL     1      28.340  46.659  55.967  1.00  0.00     0.023 A 
HETATM   12  C   UNL     1      29.312  43.483  54.348  1.00  0.00     0.031 A 
HETATM   13  C   UNL     1      30.411  43.100  55.118  1.00  0.00     0.009 A 
ENDROOT
BRANCH   8  14
HETATM   14  N   UNL     1      25.745  46.468  53.319  1.00  0.00    -0.277 NA
HETATM   15  H   UNL     1      25.082  45.693  53.266  1.00  0.00     0.129 HD
BRANCH  14  16
HETATM   16  C   UNL     1      26.011  47.069  52.012  1.00  0.00     0.113 C 
BRANCH  16  17
HETATM   17  C   UNL     1      25.262  46.378  50.866  1.00  0.00     0.137 C 
BRANCH  17  18
HETATM   18  N   UNL     1      25.751  45.054  50.490  1.00  0.00    -0.360 N 
HETATM   19  C   UNL     1      25.401  43.863  51.096  1.00  0.00     0.221 C 
HETATM   20  O   UNL     1      24.545  43.784  51.975  1.00  0.00    -0.273 OA
HETATM   21  H   UNL     1      26.484  45.025  49.790  1.00  0.00     0.162 HD
BRANCH  19  22
HETATM   22  C   UNL     1      26.167  42.651  50.566  1.00  0.00     0.070 C 
HETATM   23  C   UNL     1      27.064  42.068  51.657  1.00  0.00     0.019 C 
HETATM   24  C   UNL     1      25.204  41.583  50.046  1.00  0.00     0.019 C 
ENDBRANCH  19  22
ENDBRANCH  17  18
ENDBRANCH  16  17
ENDBRANCH  14  16
ENDBRANCH   8  14
TORSDOF 5
ENDMDL
MODEL 4
REMARK VINA RESULT:      -8.1      1.553      2.638
REMARK  5 active torsions:
REMARK  status: ('A' for Active; 'I' for Inactive)
REMARK    1  A    between atoms: C_8  and  N_9 
REMARK    2  A    between atoms: N_9  and  C_10 
REMARK    3  A    between atoms: C_10  and  C_11 
REMARK    4  A    between atoms: C_11  and  N_12 
REMARK       I    between atoms: N_12  and  C_13 
REMARK    5  A    between atoms: C_13  and  C_14 
ROOT
HETATM    1  C   UNL     1      32.053  43.419  57.002  1.00  0.00     0.048 C 
HETATM    2  C   UNL     1      30.877  44.028  56.292  1.00  0.00    -0.061 A 
HETATM    3  C   UNL     1      30.265  43.361  55.221  1.00  0.00     0.020 A 
HETATM    4  C   UNL     1      29.150  43.918  54.572  1.00  0.00    -0.008 A 
HETATM    5  C   UNL     1      28.646  45.153  55.017  1.00  0.00     0.043 A 
HETATM    6  N   UNL     1      27.586  45.691  54.393  1.00  0.00    -0.346 N 
HETATM    7  H   UNL     1      27.243  46.576  54.748  1.00  0.00     0.167 HD
HETATM    8  C   UNL     1      26.959  45.142  53.337  1.00  0.00     0.086 A 
HETATM    9  C   UNL     1      27.399  43.882  52.887  1.00  0.00    -0.023 A 
HETATM   10  C   UNL     1      26.739  43.170  51.737  1.00  0.00     0.052 C 
HETATM   11  C   UNL     1      28.512  43.289  53.499  1.00  0.00     0.023 A 
HETATM   12  C   UNL     1      29.245  45.813  56.097  1.00  0.00     0.031 A 
HETATM   13  C   UNL     1      30.353  45.249  56.731  1.00  0.00     0.009 A 
ENDROOT
BRANCH   8  14
HETATM   14  N   UNL     1      25.846  45.763  52.760  1.00  0.00    -0.277 NA
HETATM   15  H   UNL     1      25.102  45.087  52.577  1.00  0.00     0.129 HD
BRANCH  14  16
HETATM   16  C   UNL     1      26.058  46.681  51.641  1.00  0.00     0.113 C 
BRANCH  16  17
HETATM   17  C   UNL     1      24.819  46.846  50.752  1.00  0.00     0.137 C 
BRANCH  17  18
HETATM   18  N   UNL     1      24.801  48.027  49.893  1.00  0.00    -0.360 N 
HETATM   19  C   UNL     1      23.765  48.404  49.061  1.00  0.00     0.221 C 
HETATM   20  O   UNL     1      22.684  47.820  49.029  1.00  0.00    -0.273 OA
HETATM   21  H   UNL     1      25.665  48.556  49.834  1.00  0.00     0.162 HD
BRANCH  19  22
HETATM   22  C   UNL     1      24.081  49.620  48.190  1.00  0.00     0.070 C 
HETATM   23  C   UNL     1      23.357  50.857  48.718  1.00  0.00     0.019 C 
HETATM   24  C   UNL     1      25.588  49.872  48.135  1.00  0.00     0.019 C 
ENDBRANCH  19  22
ENDBRANCH  17  18
ENDBRANCH  16  17
ENDBRANCH  14  16
ENDBRANCH   8  14
TORSDOF 5
ENDMDL
MODEL 5
REMARK VINA RESULT:      -8.0      4.188      6.899
REMARK  5 active torsions:
REMARK  status: ('A' for Active; 'I' for Inactive)
REMARK    1  A    between atoms: C_8  and  N_9 
REMARK    2  A    between atoms: N_9  and  C_10 
REMARK    3  A    between atoms: C_10  and  C_11 
REMARK    4  A    between atoms: C_11  and  N_12 
REMARK       I    between atoms: N_12  and  C_13 
REMARK    5  A    between atoms: C_13  and  C_14 
ROOT
HETATM    1  C   UNL     1      26.240  49.017  55.847  1.00  0.00     0.048 C 
HETATM    2  C   UNL     1      26.787  47.764  55.224  1.00  0.00    -0.061 A 
HETATM    3  C   UNL     1      27.868  47.088  55.808  1.00  0.00     0.020 A 
HETATM    4  C   UNL     1      28.365  45.904  55.240  1.00  0.00    -0.008 A 
HETATM    5  C   UNL     1      27.757  45.395  54.078  1.00  0.00     0.043 A 
HETATM    6  N   UNL     1      28.237  44.267  53.528  1.00  0.00    -0.346 N 
HETATM    7  H   UNL     1      27.766  43.924  52.699  1.00  0.00     0.167 HD
HETATM    8  C   UNL     1      29.289  43.573  53.998  1.00  0.00     0.086 A 
HETATM    9  C   UNL     1      29.899  44.020  55.186  1.00  0.00    -0.023 A 
HETATM   10  C   UNL     1      31.059  43.291  55.810  1.00  0.00     0.052 C 
HETATM   11  C   UNL     1      29.443  45.201  55.787  1.00  0.00     0.023 A 
HETATM   12  C   UNL     1      26.667  46.058  53.502  1.00  0.00     0.031 A 
HETATM   13  C   UNL     1      26.185  47.235  54.076  1.00  0.00     0.009 A 
ENDROOT
BRANCH   8  14
HETATM   14  N   UNL     1      29.709  42.394  53.372  1.00  0.00    -0.277 NA
HETATM   15  H   UNL     1      30.242  42.599  52.525  1.00  0.00     0.129 HD
BRANCH  14  16
HETATM   16  C   UNL     1      28.736  41.319  53.178  1.00  0.00     0.113 C 
BRANCH  16  17
HETATM   17  C   UNL     1      28.452  41.022  51.700  1.00  0.00     0.137 C 
BRANCH  17  18
HETATM   18  N   UNL     1      28.715  39.655  51.261  1.00  0.00    -0.360 N 
HETATM   19  C   UNL     1      28.844  39.239  49.950  1.00  0.00     0.221 C 
HETATM   20  O   UNL     1      28.846  40.016  48.997  1.00  0.00    -0.273 OA
HETATM   21  H   UNL     1      28.702  38.939  51.979  1.00  0.00     0.162 HD
BRANCH  19  22
HETATM   22  C   UNL     1      28.995  37.726  49.792  1.00  0.00     0.070 C 
HETATM   23  C   UNL     1      29.794  37.145  50.957  1.00  0.00     0.019 C 
HETATM   24  C   UNL     1      27.628  37.050  49.699  1.00  0.00     0.019 C 
ENDBRANCH  19  22
ENDBRANCH  17  18
ENDBRANCH  16  17
ENDBRANCH  14  16
ENDBRANCH   8  14
TORSDOF 5
ENDMDL
MODEL 6
REMARK VINA RESULT:      -8.0      2.453      4.001
REMARK  5 active torsions:
REMARK  status: ('A' for Active; 'I' for Inactive)
REMARK    1  A    between atoms: C_8  and  N_9 
REMARK    2  A    between atoms: N_9  and  C_10 
REMARK    3  A    between atoms: C_10  and  C_11 
REMARK    4  A    between atoms: C_11  and  N_12 
REMARK       I    between atoms: N_12  and  C_13 
REMARK    5  A    between atoms: C_13  and  C_14 
ROOT
HETATM    1  C   UNL     1      31.249  44.214  56.326  1.00  0.00     0.048 C 
HETATM    2  C   UNL     1      30.147  43.979  55.332  1.00  0.00    -0.061 A 
HETATM    3  C   UNL     1      30.198  42.889  54.451  1.00  0.00     0.020 A 
HETATM    4  C   UNL     1      29.157  42.656  53.538  1.00  0.00    -0.008 A 
HETATM    5  C   UNL     1      28.051  43.526  53.523  1.00  0.00     0.043 A 
HETATM    6  N   UNL     1      27.059  43.308  52.645  1.00  0.00    -0.346 N 
HETATM    7  H   UNL     1      26.274  43.948  52.671  1.00  0.00     0.167 HD
HETATM    8  C   UNL     1      27.040  42.312  51.741  1.00  0.00     0.086 A 
HETATM    9  C   UNL     1      28.103  41.389  51.752  1.00  0.00    -0.023 A 
HETATM   10  C   UNL     1      28.154  40.220  50.805  1.00  0.00     0.052 C 
HETATM   11  C   UNL     1      29.169  41.584  52.640  1.00  0.00     0.023 A 
HETATM   12  C   UNL     1      27.990  44.605  54.412  1.00  0.00     0.031 A 
HETATM   13  C   UNL     1      29.033  44.827  55.313  1.00  0.00     0.009 A 
ENDROOT
BRANCH   8  14
HETATM   14  N   UNL     1      25.953  42.148  50.876  1.00  0.00    -0.277 NA
HETATM   15  H   UNL     1      25.623  41.181  50.881  1.00  0.00     0.129 HD
BRANCH  14  16
HETATM   16  C   UNL     1      26.042  42.704  49.526  1.00  0.00     0.113 C 
BRANCH  16  17
HETATM   17  C   UNL     1      25.014  43.811  49.260  1.00  0.00     0.137 C 
BRANCH  17  18
HETATM   18  N   UNL     1      25.281  45.098  49.898  1.00  0.00    -0.360 N 
HETATM   19  C   UNL     1      24.844  45.482  51.151  1.00  0.00     0.221 C 
HETATM   20  O   UNL     1      24.252  44.725  51.916  1.00  0.00    -0.273 OA
HETATM   21  H   UNL     1      25.741  45.798  49.327  1.00  0.00     0.162 HD
BRANCH  19  22
HETATM   22  C   UNL     1      25.175  46.933  51.503  1.00  0.00     0.070 C 
HETATM   23  C   UNL     1      25.845  47.010  52.873  1.00  0.00     0.019 C 
HETATM   24  C   UNL     1      26.074  47.560  50.437  1.00  0.00     0.019 C 
ENDBRANCH  19  22
ENDBRANCH  17  18
ENDBRANCH  16  17
ENDBRANCH  14  16
ENDBRANCH   8  14
TORSDOF 5
ENDMDL
MODEL 7
REMARK VINA RESULT:      -7.7      2.533      4.760
REMARK  5 active torsions:
REMARK  status: ('A' for Active; 'I' for Inactive)
REMARK    1  A    between atoms: C_8  and  N_9 
REMARK    2  A    between atoms: N_9  and  C_10 
REMARK    3  A    between atoms: C_10  and  C_11 
REMARK    4  A    between atoms: C_11  and  N_12 
REMARK       I    between atoms: N_12  and  C_13 
REMARK    5  A    between atoms: C_13  and  C_14 
ROOT
HETATM    1  C   UNL     1      26.201  49.059  55.986  1.00  0.00     0.048 C 
HETATM    2  C   UNL     1      26.643  47.830  55.244  1.00  0.00    -0.061 A 
HETATM    3  C   UNL     1      27.717  47.059  55.713  1.00  0.00     0.020 A 
HETATM    4  C   UNL     1      28.117  45.897  55.033  1.00  0.00    -0.008 A 
HETATM    5  C   UNL     1      27.417  45.506  53.876  1.00  0.00     0.043 A 
HETATM    6  N   UNL     1      27.803  44.399  53.221  1.00  0.00    -0.346 N 
HETATM    7  H   UNL     1      27.269  44.143  52.399  1.00  0.00     0.167 HD
HETATM    8  C   UNL     1      28.841  43.621  53.575  1.00  0.00     0.086 A 
HETATM    9  C   UNL     1      29.540  43.947  54.754  1.00  0.00    -0.023 A 
HETATM   10  C   UNL     1      30.692  43.117  55.253  1.00  0.00     0.052 C 
HETATM   11  C   UNL     1      29.183  45.102  55.463  1.00  0.00     0.023 A 
HETATM   12  C   UNL     1      26.335  46.264  53.416  1.00  0.00     0.031 A 
HETATM   13  C   UNL     1      25.950  47.418  54.100  1.00  0.00     0.009 A 
ENDROOT
BRANCH   8  14
HETATM   14  N   UNL     1      29.160  42.472  52.844  1.00  0.00    -0.277 NA
HETATM   15  H   UNL     1      29.514  42.714  51.917  1.00  0.00     0.129 HD
BRANCH  14  16
HETATM   16  C   UNL     1      28.195  41.374  52.807  1.00  0.00     0.113 C 
BRANCH  16  17
HETATM   17  C   UNL     1      27.702  41.050  51.390  1.00  0.00     0.137 C 
BRANCH  17  18
HETATM   18  N   UNL     1      27.452  42.199  50.523  1.00  0.00    -0.360 N 
HETATM   19  C   UNL     1      26.362  43.043  50.597  1.00  0.00     0.221 C 
HETATM   20  O   UNL     1      25.517  42.970  51.487  1.00  0.00    -0.273 OA
HETATM   21  H   UNL     1      28.085  42.320  49.740  1.00  0.00     0.162 HD
BRANCH  19  22
HETATM   22  C   UNL     1      26.308  44.084  49.479  1.00  0.00     0.070 C 
HETATM   23  C   UNL     1      24.860  44.446  49.156  1.00  0.00     0.019 C 
HETATM   24  C   UNL     1      27.094  45.338  49.864  1.00  0.00     0.019 C 
ENDBRANCH  19  22
ENDBRANCH  17  18
ENDBRANCH  16  17
ENDBRANCH  14  16
ENDBRANCH   8  14
TORSDOF 5
ENDMDL
MODEL 8
REMARK VINA RESULT:      -7.6      3.816      9.357
REMARK  5 active torsions:
REMARK  status: ('A' for Active; 'I' for Inactive)
REMARK    1  A    between atoms: C_8  and  N_9 
REMARK    2  A    between atoms: N_9  and  C_10 
REMARK    3  A    between atoms: C_10  and  C_11 
REMARK    4  A    between atoms: C_11  and  N_12 
REMARK       I    between atoms: N_12  and  C_13 
REMARK    5  A    between atoms: C_13  and  C_14 
ROOT
HETATM    1  C   UNL     1      18.696  52.401  48.595  1.00  0.00     0.048 C 
HETATM    2  C   UNL     1      19.727  51.330  48.813  1.00  0.00    -0.061 A 
HETATM    3  C   UNL     1      21.061  51.534  48.433  1.00  0.00     0.020 A 
HETATM    4  C   UNL     1      22.031  50.542  48.658  1.00  0.00    -0.008 A 
HETATM    5  C   UNL     1      21.648  49.341  49.282  1.00  0.00     0.043 A 
HETATM    6  N   UNL     1      22.572  48.389  49.491  1.00  0.00    -0.346 N 
HETATM    7  H   UNL     1      22.263  47.542  49.953  1.00  0.00     0.167 HD
HETATM    8  C   UNL     1      23.864  48.482  49.128  1.00  0.00     0.086 A 
HETATM    9  C   UNL     1      24.302  49.686  48.543  1.00  0.00    -0.023 A 
HETATM   10  C   UNL     1      25.735  49.900  48.136  1.00  0.00     0.052 C 
HETATM   11  C   UNL     1      23.370  50.702  48.291  1.00  0.00     0.023 A 
HETATM   12  C   UNL     1      20.321  49.142  49.678  1.00  0.00     0.031 A 
HETATM   13  C   UNL     1      19.367  50.134  49.446  1.00  0.00     0.009 A 
ENDROOT
BRANCH   8  14
HETATM   14  N   UNL     1      24.764  47.447  49.403  1.00  0.00    -0.277 NA
HETATM   15  H   UNL     1      24.920  46.867  48.577  1.00  0.00     0.129 HD
BRANCH  14  16
HETATM   16  C   UNL     1      24.570  46.654  50.617  1.00  0.00     0.113 C 
BRANCH  16  17
HETATM   17  C   UNL     1      25.445  47.118  51.788  1.00  0.00     0.137 C 
BRANCH  17  18
HETATM   18  N   UNL     1      26.012  46.060  52.620  1.00  0.00    -0.360 N 
HETATM   19  C   UNL     1      26.166  46.108  53.992  1.00  0.00     0.221 C 
HETATM   20  O   UNL     1      25.741  47.032  54.682  1.00  0.00    -0.273 OA
HETATM   21  H   UNL     1      26.417  45.269  52.132  1.00  0.00     0.162 HD
BRANCH  19  22
HETATM   22  C   UNL     1      26.903  44.903  54.575  1.00  0.00     0.070 C 
HETATM   23  C   UNL     1      27.188  43.873  53.484  1.00  0.00     0.019 C 
HETATM   24  C   UNL     1      28.206  45.335  55.248  1.00  0.00     0.019 C 
ENDBRANCH  19  22
ENDBRANCH  17  18
ENDBRANCH  16  17
ENDBRANCH  14  16
ENDBRANCH   8  14
TORSDOF 5
ENDMDL
MODEL 9
REMARK VINA RESULT:      -7.2      6.231      9.244
REMARK  5 active torsions:
REMARK  status: ('A' for Active; 'I' for Inactive)
REMARK    1  A    between atoms: C_8  and  N_9 
REMARK    2  A    between atoms: N_9  and  C_10 
REMARK    3  A    between atoms: C_10  and  C_11 
REMARK    4  A    between atoms: C_11  and  N_12 
REMARK       I    between atoms: N_12  and  C_13 
REMARK    5  A    between atoms: C_13  and  C_14 
ROOT
HETATM    1  C   UNL     1      27.671  48.955  48.939  1.00  0.00     0.048 C 
HETATM    2  C   UNL     1      26.190  48.790  49.130  1.00  0.00    -0.061 A 
HETATM    3  C   UNL     1      25.301  49.802  48.740  1.00  0.00     0.020 A 
HETATM    4  C   UNL     1      23.915  49.639  48.897  1.00  0.00    -0.008 A 
HETATM    5  C   UNL     1      23.424  48.439  49.442  1.00  0.00     0.043 A 
HETATM    6  N   UNL     1      22.099  48.285  49.600  1.00  0.00    -0.346 N 
HETATM    7  H   UNL     1      21.782  47.403  49.985  1.00  0.00     0.167 HD
HETATM    8  C   UNL     1      21.178  49.213  49.288  1.00  0.00     0.086 A 
HETATM    9  C   UNL     1      21.619  50.412  48.695  1.00  0.00    -0.023 A 
HETATM   10  C   UNL     1      20.662  51.496  48.278  1.00  0.00     0.052 C 
HETATM   11  C   UNL     1      22.995  50.624  48.525  1.00  0.00     0.023 A 
HETATM   12  C   UNL     1      24.308  47.420  49.817  1.00  0.00     0.031 A 
HETATM   13  C   UNL     1      25.683  47.596  49.658  1.00  0.00     0.009 A 
ENDROOT
BRANCH   8  14
HETATM   14  N   UNL     1      19.813  48.960  49.467  1.00  0.00    -0.277 NA
HETATM   15  H   UNL     1      19.650  48.412  50.315  1.00  0.00     0.129 HD
BRANCH  14  16
HETATM   16  C   UNL     1      19.035  48.475  48.328  1.00  0.00     0.113 C 
BRANCH  16  17
HETATM   17  C   UNL     1      17.525  48.441  48.598  1.00  0.00     0.137 C 
BRANCH  17  18
HETATM   18  N   UNL     1      16.824  49.716  48.465  1.00  0.00    -0.360 N 
HETATM   19  C   UNL     1      16.930  50.789  49.328  1.00  0.00     0.221 C 
HETATM   20  O   UNL     1      17.721  50.817  50.268  1.00  0.00    -0.273 OA
HETATM   21  H   UNL     1      16.127  49.773  47.730  1.00  0.00     0.162 HD
BRANCH  19  22
HETATM   22  C   UNL     1      15.983  51.943  49.000  1.00  0.00     0.070 C 
HETATM   23  C   UNL     1      16.358  53.186  49.804  1.00  0.00     0.019 C 
HETATM   24  C   UNL     1      16.002  52.255  47.504  1.00  0.00     0.019 C 
ENDBRANCH  19  22
ENDBRANCH  17  18
ENDBRANCH  16  17
ENDBRANCH  14  16
ENDBRANCH   8  14
TORSDOF 5
ENDMDL
MODEL 10
REMARK VINA RESULT:      -7.1      4.923      6.531
REMARK  5 active torsions:
REMARK  status: ('A' for Active; 'I' for Inactive)
REMARK    1  A    between atoms: C_8  and  N_9 
REMARK    2  A    between atoms: N_9  and  C_10 
REMARK    3  A    between atoms: C_10  and  C_11 
REMARK    4  A    between atoms: C_11  and  N_12 
REMARK       I    between atoms: N_12  and  C_13 
REMARK    5  A    between atoms: C_13  and  C_14 
ROOT
HETATM    1  C   UNL     1      29.713  46.052  56.290  1.00  0.00     0.048 C 
HETATM    2  C   UNL     1      28.920  45.138  55.400  1.00  0.00    -0.061 A 
HETATM    3  C   UNL     1      29.519  44.015  54.811  1.00  0.00     0.020 A 
HETATM    4  C   UNL     1      28.773  43.147  53.997  1.00  0.00    -0.008 A 
HETATM    5  C   UNL     1      27.407  43.411  53.787  1.00  0.00     0.043 A 
HETATM    6  N   UNL     1      26.694  42.587  53.003  1.00  0.00    -0.346 N 
HETATM    7  H   UNL     1      25.711  42.802  52.885  1.00  0.00     0.167 HD
HETATM    8  C   UNL     1      27.192  41.510  52.370  1.00  0.00     0.086 A 
HETATM    9  C   UNL     1      28.543  41.179  52.590  1.00  0.00    -0.023 A 
HETATM   10  C   UNL     1      29.183  39.974  51.955  1.00  0.00     0.052 C 
HETATM   11  C   UNL     1      29.332  42.020  53.388  1.00  0.00     0.023 A 
HETATM   12  C   UNL     1      26.802  44.522  54.388  1.00  0.00     0.031 A 
HETATM   13  C   UNL     1      27.556  45.377  55.192  1.00  0.00     0.009 A 
ENDROOT
BRANCH   8  14
HETATM   14  N   UNL     1      26.370  40.693  51.587  1.00  0.00    -0.277 NA
HETATM   15  H   UNL     1      26.856  39.837  51.315  1.00  0.00     0.129 HD
BRANCH  14  16
HETATM   16  C   UNL     1      25.633  41.297  50.478  1.00  0.00     0.113 C 
BRANCH  16  17
HETATM   17  C   UNL     1      26.428  41.319  49.165  1.00  0.00     0.137 C 
BRANCH  17  18
HETATM   18  N   UNL     1      27.133  40.085  48.825  1.00  0.00    -0.360 N 
HETATM   19  C   UNL     1      28.147  39.966  47.895  1.00  0.00     0.221 C 
HETATM   20  O   UNL     1      28.638  40.931  47.312  1.00  0.00    -0.273 OA
HETATM   21  H   UNL     1      26.774  39.231  49.238  1.00  0.00     0.162 HD
BRANCH  19  22
HETATM   22  C   UNL     1      28.609  38.528  47.664  1.00  0.00     0.070 C 
HETATM   23  C   UNL     1      29.654  38.130  48.704  1.00  0.00     0.019 C 
HETATM   24  C   UNL     1      27.425  37.562  47.707  1.00  0.00     0.019 C 
ENDBRANCH  19  22
ENDBRANCH  17  18
ENDBRANCH  16  17
ENDBRANCH  14  16
ENDBRANCH   8  14
TORSDOF 5
ENDMDL
