MODEL 1
REMARK VINA RESULT:      -9.3      0.000      0.000
REMARK  6 active torsions:
REMARK  status: ('A' for Active; 'I' for Inactive)
REMARK    1  A    between atoms: C_2  and  C_3 
REMARK    2  A    between atoms: C_6  and  N_7 
REMARK    3  A    between atoms: C_8  and  C_10 
REMARK    4  A    between atoms: C_8  and  O_9 
REMARK       I    between atoms: C_10  and  N_11 
REMARK    5  A    between atoms: N_11  and  C_12 
REMARK    6  A    between atoms: C_12  and  C_13 
ROOT
HETATM    1  N   UNL     1      26.893  41.693  49.687  1.00  0.00    -0.254 N 
HETATM    2  C   UNL     1      27.330  40.940  50.880  1.00  0.00     0.256 C 
HETATM    3  C   UNL     1      28.346  39.849  50.584  1.00  0.00     0.034 A 
HETATM    4  C   UNL     1      28.473  39.395  49.279  1.00  0.00     0.048 A 
HETATM    5  N   UNL     1      27.717  39.991  48.286  1.00  0.00    -0.308 N 
HETATM    6  C   UNL     1      26.945  41.103  48.433  1.00  0.00     0.330 C 
HETATM    7  O   UNL     1      26.387  41.522  47.416  1.00  0.00    -0.246 OA
HETATM    8  C   UNL     1      29.115  39.224  51.582  1.00  0.00     0.015 A 
HETATM    9  C   UNL     1      30.008  38.197  51.261  1.00  0.00     0.001 A 
HETATM   10  C   UNL     1      30.121  37.762  49.943  1.00  0.00     0.002 A 
HETATM   11  C   UNL     1      29.344  38.353  48.950  1.00  0.00     0.030 A 
HETATM   12  H   UNL     1      27.749  39.635  47.340  1.00  0.00     0.170 HD
ENDROOT
BRANCH   2  13
HETATM   13  C   UNL     1      27.958  41.916  51.968  1.00  0.00     0.279 C 
HETATM   14  N   UNL     1      27.202  42.154  53.096  1.00  0.00    -0.352 N 
HETATM   15  H   UNL     1      26.420  41.536  53.281  1.00  0.00     0.162 HD
HETATM   16  O   UNL     1      29.027  42.494  51.743  1.00  0.00    -0.268 OA
BRANCH  14  17
HETATM   17  C   UNL     1      27.724  42.923  54.200  1.00  0.00     0.161 C 
BRANCH  17  18
HETATM   18  C   UNL     1      27.184  44.330  54.209  1.00  0.00    -0.038 A 
HETATM   19  C   UNL     1      27.671  45.274  55.132  1.00  0.00     0.048 A 
HETATM   20  C   UNL     1      27.101  46.529  55.144  1.00  0.00     0.105 A 
HETATM   21  C   UNL     1      26.076  46.867  54.293  1.00  0.00     0.105 A 
HETATM   22  O   UNL     1      27.448  47.551  55.971  1.00  0.00    -0.323 OA
HETATM   23  O   UNL     1      25.649  48.144  54.478  1.00  0.00    -0.323 OA
HETATM   24  C   UNL     1      25.566  45.971  53.381  1.00  0.00     0.040 A 
HETATM   25  C   UNL     1      26.518  48.569  55.549  1.00  0.00     0.352 A 
HETATM   26  C   UNL     1      26.125  44.689  53.344  1.00  0.00     0.012 A 
ENDBRANCH  17  18
ENDBRANCH  14  17
ENDBRANCH   2  13
BRANCH   2  27
HETATM   27  O   UNL     1      26.189  40.267  51.419  1.00  0.00    -0.359 OA
HETATM   28  H   UNL     1      26.559  39.572  51.996  1.00  0.00     0.213 HD
ENDBRANCH   2  27
BRANCH   1  29
HETATM   29  C   UNL     1      26.224  42.964  49.842  1.00  0.00     0.043 A 
HETATM   30  C   UNL     1      26.881  44.188  49.653  1.00  0.00     0.030 A 
HETATM   31  C   UNL     1      26.183  45.402  49.687  1.00  0.00     0.009 A 
HETATM   32  C   UNL     1      24.805  45.424  49.922  1.00  0.00    -0.058 A 
HETATM   33  C   UNL     1      24.143  44.215  50.139  1.00  0.00     0.009 A 
HETATM   34  C   UNL     1      24.845  43.005  50.104  1.00  0.00     0.030 A 
BRANCH  32  35
HETATM   35  C   UNL     1      24.043  46.723  49.902  1.00  0.00     0.034 C 
HETATM   36  C   UNL     1      24.972  47.912  49.704  1.00  0.00     0.010 C 
ENDBRANCH  32  35
ENDBRANCH   1  29
TORSDOF 6
ENDMDL
MODEL 2
REMARK VINA RESULT:      -9.2      2.818      6.141
REMARK  6 active torsions:
REMARK  status: ('A' for Active; 'I' for Inactive)
REMARK    1  A    between atoms: C_2  and  C_3 
REMARK    2  A    between atoms: C_6  and  N_7 
REMARK    3  A    between atoms: C_8  and  C_10 
REMARK    4  A    between atoms: C_8  and  O_9 
REMARK       I    between atoms: C_10  and  N_11 
REMARK    5  A    between atoms: N_11  and  C_12 
REMARK    6  A    between atoms: C_12  and  C_13 
ROOT
HETATM    1  N   UNL     1      26.618  42.332  50.939  1.00  0.00    -0.254 N 
HETATM    2  C   UNL     1      26.127  43.383  50.024  1.00  0.00     0.256 C 
HETATM    3  C   UNL     1      24.903  42.978  49.219  1.00  0.00     0.034 A 
HETATM    4  C   UNL     1      24.602  41.629  49.098  1.00  0.00     0.048 A 
HETATM    5  N   UNL     1      25.389  40.705  49.763  1.00  0.00    -0.308 N 
HETATM    6  C   UNL     1      26.368  40.996  50.664  1.00  0.00     0.330 C 
HETATM    7  O   UNL     1      26.925  40.034  51.199  1.00  0.00    -0.246 OA
HETATM    8  C   UNL     1      24.098  43.901  48.527  1.00  0.00     0.015 A 
HETATM    9  C   UNL     1      23.006  43.472  47.768  1.00  0.00     0.001 A 
HETATM   10  C   UNL     1      22.722  42.113  47.665  1.00  0.00     0.002 A 
HETATM   11  C   UNL     1      23.528  41.186  48.323  1.00  0.00     0.030 A 
HETATM   12  H   UNL     1      25.225  39.715  49.639  1.00  0.00     0.170 HD
ENDROOT
BRANCH   2  13
HETATM   13  C   UNL     1      25.772  44.711  50.823  1.00  0.00     0.279 C 
HETATM   14  N   UNL     1      26.558  45.815  50.568  1.00  0.00    -0.352 N 
HETATM   15  H   UNL     1      27.147  45.796  49.742  1.00  0.00     0.162 HD
HETATM   16  O   UNL     1      24.897  44.700  51.695  1.00  0.00    -0.268 OA
BRANCH  14  17
HETATM   17  C   UNL     1      26.251  47.104  51.143  1.00  0.00     0.161 C 
BRANCH  17  18
HETATM   18  C   UNL     1      25.649  48.041  50.128  1.00  0.00    -0.038 A 
HETATM   19  C   UNL     1      24.253  48.123  49.975  1.00  0.00     0.048 A 
HETATM   20  C   UNL     1      23.752  48.946  48.990  1.00  0.00     0.105 A 
HETATM   21  C   UNL     1      24.576  49.669  48.160  1.00  0.00     0.105 A 
HETATM   22  O   UNL     1      22.435  49.136  48.707  1.00  0.00    -0.323 OA
HETATM   23  O   UNL     1      23.882  50.404  47.252  1.00  0.00    -0.323 OA
HETATM   24  C   UNL     1      25.947  49.611  48.272  1.00  0.00     0.040 A 
HETATM   25  C   UNL     1      22.525  50.054  47.599  1.00  0.00     0.352 A 
HETATM   26  C   UNL     1      26.485  48.785  49.264  1.00  0.00     0.012 A 
ENDBRANCH  17  18
ENDBRANCH  14  17
ENDBRANCH   2  13
BRANCH   2  27
HETATM   27  O   UNL     1      27.152  43.642  49.061  1.00  0.00    -0.359 OA
HETATM   28  H   UNL     1      26.715  44.171  48.367  1.00  0.00     0.213 HD
ENDBRANCH   2  27
BRANCH   1  29
HETATM   29  C   UNL     1      27.526  42.675  52.009  1.00  0.00     0.043 A 
HETATM   30  C   UNL     1      27.102  42.832  53.335  1.00  0.00     0.030 A 
HETATM   31  C   UNL     1      28.019  43.042  54.373  1.00  0.00     0.009 A 
HETATM   32  C   UNL     1      29.389  43.110  54.109  1.00  0.00    -0.058 A 
HETATM   33  C   UNL     1      29.823  42.983  52.789  1.00  0.00     0.009 A 
HETATM   34  C   UNL     1      28.904  42.773  51.755  1.00  0.00     0.030 A 
BRANCH  32  35
HETATM   35  C   UNL     1      30.381  43.278  55.230  1.00  0.00     0.034 C 
HETATM   36  C   UNL     1      30.262  44.651  55.877  1.00  0.00     0.010 C 
ENDBRANCH  32  35
ENDBRANCH   1  29
TORSDOF 6
ENDMDL
MODEL 3
REMARK VINA RESULT:      -9.1      2.357      3.602
REMARK  6 active torsions:
REMARK  status: ('A' for Active; 'I' for Inactive)
REMARK    1  A    between atoms: C_2  and  C_3 
REMARK    2  A    between atoms: C_6  and  N_7 
REMARK    3  A    between atoms: C_8  and  C_10 
REMARK    4  A    between atoms: C_8  and  O_9 
REMARK       I    between atoms: C_10  and  N_11 
REMARK    5  A    between atoms: N_11  and  C_12 
REMARK    6  A    between atoms: C_12  and  C_13 
ROOT
HETATM    1  N   UNL     1      26.228  42.442  51.327  1.00  0.00    -0.254 N 
HETATM    2  C   UNL     1      27.305  41.499  51.686  1.00  0.00     0.256 C 
HETATM    3  C   UNL     1      27.612  40.473  50.608  1.00  0.00     0.034 A 
HETATM    4  C   UNL     1      26.668  40.245  49.617  1.00  0.00     0.048 A 
HETATM    5  N   UNL     1      25.510  41.001  49.610  1.00  0.00    -0.308 N 
HETATM    6  C   UNL     1      25.254  42.073  50.410  1.00  0.00     0.330 C 
HETATM    7  O   UNL     1      24.186  42.658  50.219  1.00  0.00    -0.246 OA
HETATM    8  C   UNL     1      28.780  39.687  50.604  1.00  0.00     0.015 A 
HETATM    9  C   UNL     1      28.995  38.729  49.610  1.00  0.00     0.001 A 
HETATM   10  C   UNL     1      28.035  38.522  48.624  1.00  0.00     0.002 A 
HETATM   11  C   UNL     1      26.862  39.273  48.632  1.00  0.00     0.030 A 
HETATM   12  H   UNL     1      24.782  40.810  48.934  1.00  0.00     0.170 HD
ENDROOT
BRANCH   2  13
HETATM   13  C   UNL     1      28.651  42.276  52.023  1.00  0.00     0.279 C 
HETATM   14  N   UNL     1      29.210  42.038  53.261  1.00  0.00    -0.352 N 
HETATM   15  H   UNL     1      28.880  41.232  53.782  1.00  0.00     0.162 HD
HETATM   16  O   UNL     1      29.098  43.119  51.238  1.00  0.00    -0.268 OA
BRANCH  14  17
HETATM   17  C   UNL     1      30.492  42.592  53.625  1.00  0.00     0.161 C 
BRANCH  17  18
HETATM   18  C   UNL     1      30.380  43.550  54.784  1.00  0.00    -0.038 A 
HETATM   19  C   UNL     1      31.216  43.410  55.906  1.00  0.00     0.048 A 
HETATM   20  C   UNL     1      31.033  44.269  56.968  1.00  0.00     0.105 A 
HETATM   21  C   UNL     1      30.058  45.239  56.956  1.00  0.00     0.105 A 
HETATM   22  O   UNL     1      31.748  44.266  58.125  1.00  0.00    -0.323 OA
HETATM   23  O   UNL     1      30.037  45.967  58.103  1.00  0.00    -0.323 OA
HETATM   24  C   UNL     1      29.215  45.404  55.880  1.00  0.00     0.040 A 
HETATM   25  C   UNL     1      31.106  45.340  58.843  1.00  0.00     0.352 A 
HETATM   26  C   UNL     1      29.378  44.547  54.786  1.00  0.00     0.012 A 
ENDBRANCH  17  18
ENDBRANCH  14  17
ENDBRANCH   2  13
BRANCH   2  27
HETATM   27  O   UNL     1      26.871  40.745  52.821  1.00  0.00    -0.359 OA
HETATM   28  H   UNL     1      26.334  40.020  52.448  1.00  0.00     0.213 HD
ENDBRANCH   2  27
BRANCH   1  29
HETATM   29  C   UNL     1      26.067  43.670  52.072  1.00  0.00     0.043 A 
HETATM   30  C   UNL     1      25.778  43.685  53.444  1.00  0.00     0.030 A 
HETATM   31  C   UNL     1      25.749  44.883  54.168  1.00  0.00     0.009 A 
HETATM   32  C   UNL     1      26.001  46.103  53.535  1.00  0.00    -0.058 A 
HETATM   33  C   UNL     1      26.263  46.105  52.164  1.00  0.00     0.009 A 
HETATM   34  C   UNL     1      26.291  44.906  51.445  1.00  0.00     0.030 A 
BRANCH  32  35
HETATM   35  C   UNL     1      26.027  47.387  54.323  1.00  0.00     0.034 C 
HETATM   36  C   UNL     1      27.453  47.831  54.618  1.00  0.00     0.010 C 
ENDBRANCH  32  35
ENDBRANCH   1  29
TORSDOF 6
ENDMDL
MODEL 4
REMARK VINA RESULT:      -8.7      2.455      7.774
REMARK  6 active torsions:
REMARK  status: ('A' for Active; 'I' for Inactive)
REMARK    1  A    between atoms: C_2  and  C_3 
REMARK    2  A    between atoms: C_6  and  N_7 
REMARK    3  A    between atoms: C_8  and  C_10 
REMARK    4  A    between atoms: C_8  and  O_9 
REMARK       I    between atoms: C_10  and  N_11 
REMARK    5  A    between atoms: N_11  and  C_12 
REMARK    6  A    between atoms: C_12  and  C_13 
ROOT
HETATM    1  N   UNL     1      25.463  45.481  51.343  1.00  0.00    -0.254 N 
HETATM    2  C   UNL     1      24.400  44.864  50.526  1.00  0.00     0.256 C 
HETATM    3  C   UNL     1      23.706  45.832  49.582  1.00  0.00     0.034 A 
HETATM    4  C   UNL     1      23.818  47.194  49.824  1.00  0.00     0.048 A 
HETATM    5  N   UNL     1      24.607  47.623  50.876  1.00  0.00    -0.308 N 
HETATM    6  C   UNL     1      25.421  46.837  51.634  1.00  0.00     0.330 C 
HETATM    7  O   UNL     1      26.093  47.410  52.493  1.00  0.00    -0.246 OA
HETATM    8  C   UNL     1      22.891  45.414  48.513  1.00  0.00     0.015 A 
HETATM    9  C   UNL     1      22.243  46.346  47.699  1.00  0.00     0.001 A 
HETATM   10  C   UNL     1      22.375  47.708  47.959  1.00  0.00     0.002 A 
HETATM   11  C   UNL     1      23.156  48.134  49.031  1.00  0.00     0.030 A 
HETATM   12  H   UNL     1      24.654  48.607  51.107  1.00  0.00     0.170 HD
ENDROOT
BRANCH   2  13
HETATM   13  C   UNL     1      24.976  43.661  49.659  1.00  0.00     0.279 C 
HETATM   14  N   UNL     1      24.523  42.398  49.975  1.00  0.00    -0.352 N 
HETATM   15  H   UNL     1      23.698  42.324  50.561  1.00  0.00     0.162 HD
HETATM   16  O   UNL     1      25.858  43.865  48.819  1.00  0.00    -0.268 OA
BRANCH  14  17
HETATM   17  C   UNL     1      24.883  41.250  49.177  1.00  0.00     0.161 C 
BRANCH  17  18
HETATM   18  C   UNL     1      26.180  40.634  49.635  1.00  0.00    -0.038 A 
HETATM   19  C   UNL     1      26.823  39.661  48.849  1.00  0.00     0.048 A 
HETATM   20  C   UNL     1      27.973  39.080  49.340  1.00  0.00     0.105 A 
HETATM   21  C   UNL     1      28.489  39.420  50.568  1.00  0.00     0.105 A 
HETATM   22  O   UNL     1      28.711  38.126  48.712  1.00  0.00    -0.323 OA
HETATM   23  O   UNL     1      29.616  38.722  50.867  1.00  0.00    -0.323 OA
HETATM   24  C   UNL     1      27.886  40.361  51.372  1.00  0.00     0.040 A 
HETATM   25  C   UNL     1      29.746  37.897  49.690  1.00  0.00     0.352 A 
HETATM   26  C   UNL     1      26.718  40.969  50.899  1.00  0.00     0.012 A 
ENDBRANCH  17  18
ENDBRANCH  14  17
ENDBRANCH   2  13
BRANCH   2  27
HETATM   27  O   UNL     1      23.381  44.393  51.411  1.00  0.00    -0.359 OA
HETATM   28  H   UNL     1      23.774  44.458  52.302  1.00  0.00     0.213 HD
ENDBRANCH   2  27
BRANCH   1  29
HETATM   29  C   UNL     1      26.437  44.647  52.009  1.00  0.00     0.043 A 
HETATM   30  C   UNL     1      27.737  44.468  51.517  1.00  0.00     0.030 A 
HETATM   31  C   UNL     1      28.699  43.755  52.243  1.00  0.00     0.009 A 
HETATM   32  C   UNL     1      28.382  43.193  53.482  1.00  0.00    -0.058 A 
HETATM   33  C   UNL     1      27.083  43.340  53.972  1.00  0.00     0.009 A 
HETATM   34  C   UNL     1      26.126  44.052  53.243  1.00  0.00     0.030 A 
BRANCH  32  35
HETATM   35  C   UNL     1      29.430  42.475  54.292  1.00  0.00     0.034 C 
HETATM   36  C   UNL     1      30.194  43.437  55.191  1.00  0.00     0.010 C 
ENDBRANCH  32  35
ENDBRANCH   1  29
TORSDOF 6
ENDMDL
MODEL 5
REMARK VINA RESULT:      -8.7     11.574     13.899
REMARK  6 active torsions:
REMARK  status: ('A' for Active; 'I' for Inactive)
REMARK    1  A    between atoms: C_2  and  C_3 
REMARK    2  A    between atoms: C_6  and  N_7 
REMARK    3  A    between atoms: C_8  and  C_10 
REMARK    4  A    between atoms: C_8  and  O_9 
REMARK       I    between atoms: C_10  and  N_11 
REMARK    5  A    between atoms: N_11  and  C_12 
REMARK    6  A    between atoms: C_12  and  C_13 
ROOT
HETATM    1  N   UNL     1      27.920  49.786  39.550  1.00  0.00    -0.254 N 
HETATM    2  C   UNL     1      27.747  48.824  40.657  1.00  0.00     0.256 C 
HETATM    3  C   UNL     1      26.883  47.624  40.304  1.00  0.00     0.034 A 
HETATM    4  C   UNL     1      26.047  47.708  39.200  1.00  0.00     0.048 A 
HETATM    5  N   UNL     1      26.074  48.854  38.425  1.00  0.00    -0.308 N 
HETATM    6  C   UNL     1      26.961  49.880  38.552  1.00  0.00     0.330 C 
HETATM    7  O   UNL     1      26.864  50.794  37.730  1.00  0.00    -0.246 OA
HETATM    8  C   UNL     1      26.834  46.455  41.085  1.00  0.00     0.015 A 
HETATM    9  C   UNL     1      25.992  45.396  40.737  1.00  0.00     0.001 A 
HETATM   10  C   UNL     1      25.166  45.501  39.622  1.00  0.00     0.002 A 
HETATM   11  C   UNL     1      25.184  46.665  38.856  1.00  0.00     0.030 A 
HETATM   12  H   UNL     1      25.430  48.960  37.653  1.00  0.00     0.170 HD
ENDROOT
BRANCH   2  13
HETATM   13  C   UNL     1      29.154  48.284  41.165  1.00  0.00     0.279 C 
HETATM   14  N   UNL     1      29.756  48.990  42.186  1.00  0.00    -0.352 N 
HETATM   15  H   UNL     1      29.186  49.650  42.705  1.00  0.00     0.162 HD
HETATM   16  O   UNL     1      29.704  47.339  40.590  1.00  0.00    -0.268 OA
BRANCH  14  17
HETATM   17  C   UNL     1      30.972  48.521  42.807  1.00  0.00     0.161 C 
BRANCH  17  18
HETATM   18  C   UNL     1      32.093  49.518  42.667  1.00  0.00    -0.038 A 
HETATM   19  C   UNL     1      33.163  49.268  41.789  1.00  0.00     0.048 A 
HETATM   20  C   UNL     1      34.197  50.178  41.743  1.00  0.00     0.105 A 
HETATM   21  C   UNL     1      34.207  51.303  42.533  1.00  0.00     0.105 A 
HETATM   22  O   UNL     1      35.303  50.085  40.958  1.00  0.00    -0.323 OA
HETATM   23  O   UNL     1      35.321  52.059  42.344  1.00  0.00    -0.323 OA
HETATM   24  C   UNL     1      33.183  51.581  43.411  1.00  0.00     0.040 A 
HETATM   25  C   UNL     1      36.015  51.276  41.351  1.00  0.00     0.352 A 
HETATM   26  C   UNL     1      32.119  50.676  43.478  1.00  0.00     0.012 A 
ENDBRANCH  17  18
ENDBRANCH  14  17
ENDBRANCH   2  13
BRANCH   2  27
HETATM   27  O   UNL     1      27.060  49.492  41.718  1.00  0.00    -0.359 OA
HETATM   28  H   UNL     1      27.213  50.442  41.555  1.00  0.00     0.213 HD
ENDBRANCH   2  27
BRANCH   1  29
HETATM   29  C   UNL     1      28.978  50.767  39.607  1.00  0.00     0.043 A 
HETATM   30  C   UNL     1      28.886  51.929  40.386  1.00  0.00     0.030 A 
HETATM   31  C   UNL     1      29.972  52.803  40.522  1.00  0.00     0.009 A 
HETATM   32  C   UNL     1      31.181  52.541  39.873  1.00  0.00    -0.058 A 
HETATM   33  C   UNL     1      31.278  51.402  39.072  1.00  0.00     0.009 A 
HETATM   34  C   UNL     1      30.191  50.532  38.939  1.00  0.00     0.030 A 
BRANCH  32  35
HETATM   35  C   UNL     1      32.369  53.448  40.063  1.00  0.00     0.034 C 
HETATM   36  C   UNL     1      33.591  52.929  39.319  1.00  0.00     0.010 C 
ENDBRANCH  32  35
ENDBRANCH   1  29
TORSDOF 6
ENDMDL
MODEL 6
REMARK VINA RESULT:      -8.6      2.021      2.745
REMARK  6 active torsions:
REMARK  status: ('A' for Active; 'I' for Inactive)
REMARK    1  A    between atoms: C_2  and  C_3 
REMARK    2  A    between atoms: C_6  and  N_7 
REMARK    3  A    between atoms: C_8  and  C_10 
REMARK    4  A    between atoms: C_8  and  O_9 
REMARK       I    between atoms: C_10  and  N_11 
REMARK    5  A    between atoms: N_11  and  C_12 
REMARK    6  A    between atoms: C_12  and  C_13 
ROOT
HETATM    1  N   UNL     1      25.696  41.501  49.516  1.00  0.00    -0.254 N 
HETATM    2  C   UNL     1      26.459  40.409  50.154  1.00  0.00     0.256 C 
HETATM    3  C   UNL     1      26.700  39.213  49.248  1.00  0.00     0.034 A 
HETATM    4  C   UNL     1      25.905  39.060  48.121  1.00  0.00     0.048 A 
HETATM    5  N   UNL     1      24.964  40.031  47.830  1.00  0.00    -0.308 N 
HETATM    6  C   UNL     1      24.829  41.226  48.469  1.00  0.00     0.330 C 
HETATM    7  O   UNL     1      23.966  41.990  48.030  1.00  0.00    -0.246 OA
HETATM    8  C   UNL     1      27.645  38.210  49.533  1.00  0.00     0.015 A 
HETATM    9  C   UNL     1      27.799  37.109  48.686  1.00  0.00     0.001 A 
HETATM   10  C   UNL     1      26.993  36.981  47.559  1.00  0.00     0.002 A 
HETATM   11  C   UNL     1      26.034  37.952  47.280  1.00  0.00     0.030 A 
HETATM   12  H   UNL     1      24.333  39.910  47.049  1.00  0.00     0.170 HD
ENDROOT
BRANCH   2  13
HETATM   13  C   UNL     1      27.872  40.929  50.668  1.00  0.00     0.279 C 
HETATM   14  N   UNL     1      28.008  41.105  52.029  1.00  0.00    -0.352 N 
HETATM   15  H   UNL     1      27.310  40.685  52.633  1.00  0.00     0.162 HD
HETATM   16  O   UNL     1      28.751  41.246  49.861  1.00  0.00    -0.268 OA
BRANCH  14  17
HETATM   17  C   UNL     1      29.280  41.455  52.617  1.00  0.00     0.161 C 
BRANCH  17  18
HETATM   18  C   UNL     1      29.183  42.695  53.467  1.00  0.00    -0.038 A 
HETATM   19  C   UNL     1      30.193  43.002  54.396  1.00  0.00     0.048 A 
HETATM   20  C   UNL     1      30.028  44.112  55.197  1.00  0.00     0.105 A 
HETATM   21  C   UNL     1      28.909  44.906  55.113  1.00  0.00     0.105 A 
HETATM   22  O   UNL     1      30.902  44.544  56.145  1.00  0.00    -0.323 OA
HETATM   23  O   UNL     1      28.939  45.938  55.997  1.00  0.00    -0.323 OA
HETATM   24  C   UNL     1      27.895  44.636  54.222  1.00  0.00     0.040 A 
HETATM   25  C   UNL     1      30.201  45.697  56.654  1.00  0.00     0.352 A 
HETATM   26  C   UNL     1      28.034  43.516  53.395  1.00  0.00     0.012 A 
ENDBRANCH  17  18
ENDBRANCH  14  17
ENDBRANCH   2  13
BRANCH   2  27
HETATM   27  O   UNL     1      25.686  39.912  51.248  1.00  0.00    -0.359 OA
HETATM   28  H   UNL     1      24.777  40.223  51.074  1.00  0.00     0.213 HD
ENDBRANCH   2  27
BRANCH   1  29
HETATM   29  C   UNL     1      25.696  42.820  50.106  1.00  0.00     0.043 A 
HETATM   30  C   UNL     1      26.471  43.872  49.598  1.00  0.00     0.030 A 
HETATM   31  C   UNL     1      26.360  45.171  50.110  1.00  0.00     0.009 A 
HETATM   32  C   UNL     1      25.473  45.451  51.152  1.00  0.00    -0.058 A 
HETATM   33  C   UNL     1      24.716  44.408  51.686  1.00  0.00     0.009 A 
HETATM   34  C   UNL     1      24.830  43.112  51.172  1.00  0.00     0.030 A 
BRANCH  32  35
HETATM   35  C   UNL     1      25.310  46.858  51.666  1.00  0.00     0.034 C 
HETATM   36  C   UNL     1      25.919  47.020  53.051  1.00  0.00     0.010 C 
ENDBRANCH  32  35
ENDBRANCH   1  29
TORSDOF 6
ENDMDL
MODEL 7
REMARK VINA RESULT:      -8.6     11.985     13.356
REMARK  6 active torsions:
REMARK  status: ('A' for Active; 'I' for Inactive)
REMARK    1  A    between atoms: C_2  and  C_3 
REMARK    2  A    between atoms: C_6  and  N_7 
REMARK    3  A    between atoms: C_8  and  C_10 
REMARK    4  A    between atoms: C_8  and  O_9 
REMARK       I    between atoms: C_10  and  N_11 
REMARK    5  A    between atoms: N_11  and  C_12 
REMARK    6  A    between atoms: C_12  and  C_13 
ROOT
HETATM    1  N   UNL     1      26.996  48.750  39.800  1.00  0.00    -0.254 N 
HETATM    2  C   UNL     1      27.778  47.608  40.315  1.00  0.00     0.256 C 
HETATM    3  C   UNL     1      27.303  46.256  39.810  1.00  0.00     0.034 A 
HETATM    4  C   UNL     1      26.025  46.155  39.278  1.00  0.00     0.048 A 
HETATM    5  N   UNL     1      25.253  47.299  39.170  1.00  0.00    -0.308 N 
HETATM    6  C   UNL     1      25.678  48.571  39.405  1.00  0.00     0.330 C 
HETATM    7  O   UNL     1      24.859  49.470  39.201  1.00  0.00    -0.246 OA
HETATM    8  C   UNL     1      28.069  45.081  39.920  1.00  0.00     0.015 A 
HETATM    9  C   UNL     1      27.568  43.855  39.475  1.00  0.00     0.001 A 
HETATM   10  C   UNL     1      26.285  43.780  38.941  1.00  0.00     0.002 A 
HETATM   11  C   UNL     1      25.505  44.931  38.852  1.00  0.00     0.030 A 
HETATM   12  H   UNL     1      24.299  47.238  38.843  1.00  0.00     0.170 HD
ENDROOT
BRANCH   2  13
HETATM   13  C   UNL     1      29.317  47.760  39.942  1.00  0.00     0.279 C 
HETATM   14  N   UNL     1      30.185  48.005  40.984  1.00  0.00    -0.352 N 
HETATM   15  H   UNL     1      29.849  47.845  41.928  1.00  0.00     0.162 HD
HETATM   16  O   UNL     1      29.675  47.753  38.759  1.00  0.00    -0.268 OA
BRANCH  14  17
HETATM   17  C   UNL     1      31.614  48.038  40.779  1.00  0.00     0.161 C 
BRANCH  17  18
HETATM   18  C   UNL     1      32.262  49.173  41.529  1.00  0.00    -0.038 A 
HETATM   19  C   UNL     1      33.638  49.429  41.383  1.00  0.00     0.048 A 
HETATM   20  C   UNL     1      34.198  50.436  42.139  1.00  0.00     0.105 A 
HETATM   21  C   UNL     1      33.453  51.177  43.025  1.00  0.00     0.105 A 
HETATM   22  O   UNL     1      35.506  50.808  42.122  1.00  0.00    -0.323 OA
HETATM   23  O   UNL     1      34.198  52.108  43.677  1.00  0.00    -0.323 OA
HETATM   24  C   UNL     1      32.106  50.953  43.203  1.00  0.00     0.040 A 
HETATM   25  C   UNL     1      35.500  51.862  43.107  1.00  0.00     0.352 A 
HETATM   26  C   UNL     1      31.509  49.938  42.448  1.00  0.00     0.012 A 
ENDBRANCH  17  18
ENDBRANCH  14  17
ENDBRANCH   2  13
BRANCH   2  27
HETATM   27  O   UNL     1      27.615  47.567  41.735  1.00  0.00    -0.359 OA
HETATM   28  H   UNL     1      27.886  46.665  41.991  1.00  0.00     0.213 HD
ENDBRANCH   2  27
BRANCH   1  29
HETATM   29  C   UNL     1      27.529  50.089  39.894  1.00  0.00     0.043 A 
HETATM   30  C   UNL     1      27.759  50.724  41.123  1.00  0.00     0.030 A 
HETATM   31  C   UNL     1      28.390  51.972  41.191  1.00  0.00     0.009 A 
HETATM   32  C   UNL     1      28.804  52.625  40.027  1.00  0.00    -0.058 A 
HETATM   33  C   UNL     1      28.557  52.017  38.795  1.00  0.00     0.009 A 
HETATM   34  C   UNL     1      27.926  50.771  38.731  1.00  0.00     0.030 A 
BRANCH  32  35
HETATM   35  C   UNL     1      29.534  53.940  40.100  1.00  0.00     0.034 C 
HETATM   36  C   UNL     1      30.861  53.800  40.834  1.00  0.00     0.010 C 
ENDBRANCH  32  35
ENDBRANCH   1  29
TORSDOF 6
ENDMDL
MODEL 8
REMARK VINA RESULT:      -8.5      2.263      7.218
REMARK  6 active torsions:
REMARK  status: ('A' for Active; 'I' for Inactive)
REMARK    1  A    between atoms: C_2  and  C_3 
REMARK    2  A    between atoms: C_6  and  N_7 
REMARK    3  A    between atoms: C_8  and  C_10 
REMARK    4  A    between atoms: C_8  and  O_9 
REMARK       I    between atoms: C_10  and  N_11 
REMARK    5  A    between atoms: N_11  and  C_12 
REMARK    6  A    between atoms: C_12  and  C_13 
ROOT
HETATM    1  N   UNL     1      27.512  44.161  52.712  1.00  0.00    -0.254 N 
HETATM    2  C   UNL     1      28.772  43.425  52.941  1.00  0.00     0.256 C 
HETATM    3  C   UNL     1      29.424  43.721  54.282  1.00  0.00     0.034 A 
HETATM    4  C   UNL     1      29.050  44.869  54.966  1.00  0.00     0.048 A 
HETATM    5  N   UNL     1      28.056  45.670  54.434  1.00  0.00    -0.308 N 
HETATM    6  C   UNL     1      27.284  45.369  53.354  1.00  0.00     0.330 C 
HETATM    7  O   UNL     1      26.407  46.185  53.061  1.00  0.00    -0.246 OA
HETATM    8  C   UNL     1      30.444  42.924  54.834  1.00  0.00     0.015 A 
HETATM    9  C   UNL     1      31.039  43.262  56.052  1.00  0.00     0.001 A 
HETATM   10  C   UNL     1      30.643  44.417  56.722  1.00  0.00     0.002 A 
HETATM   11  C   UNL     1      29.654  45.230  56.173  1.00  0.00     0.030 A 
HETATM   12  H   UNL     1      27.811  46.542  54.884  1.00  0.00     0.170 HD
ENDROOT
BRANCH   2  13
HETATM   13  C   UNL     1      28.538  41.855  52.844  1.00  0.00     0.279 C 
HETATM   14  N   UNL     1      29.037  41.224  51.724  1.00  0.00    -0.352 N 
HETATM   15  H   UNL     1      29.709  41.729  51.156  1.00  0.00     0.162 HD
HETATM   16  O   UNL     1      27.856  41.272  53.692  1.00  0.00    -0.268 OA
BRANCH  14  17
HETATM   17  C   UNL     1      28.991  39.787  51.589  1.00  0.00     0.161 C 
BRANCH  17  18
HETATM   18  C   UNL     1      28.377  39.366  50.279  1.00  0.00    -0.038 A 
HETATM   19  C   UNL     1      29.076  38.515  49.405  1.00  0.00     0.048 A 
HETATM   20  C   UNL     1      28.501  38.210  48.191  1.00  0.00     0.105 A 
HETATM   21  C   UNL     1      27.281  38.722  47.818  1.00  0.00     0.105 A 
HETATM   22  O   UNL     1      29.042  37.410  47.233  1.00  0.00    -0.323 OA
HETATM   23  O   UNL     1      26.902  38.309  46.580  1.00  0.00    -0.323 OA
HETATM   24  C   UNL     1      26.567  39.565  48.640  1.00  0.00     0.040 A 
HETATM   25  C   UNL     1      28.027  37.484  46.212  1.00  0.00     0.352 A 
HETATM   26  C   UNL     1      27.126  39.891  49.881  1.00  0.00     0.012 A 
ENDBRANCH  17  18
ENDBRANCH  14  17
ENDBRANCH   2  13
BRANCH   2  27
HETATM   27  O   UNL     1      29.716  43.848  51.954  1.00  0.00    -0.359 OA
HETATM   28  H   UNL     1      29.726  44.822  52.020  1.00  0.00     0.213 HD
ENDBRANCH   2  27
BRANCH   1  29
HETATM   29  C   UNL     1      26.606  43.731  51.672  1.00  0.00     0.043 A 
HETATM   30  C   UNL     1      25.336  43.206  51.950  1.00  0.00     0.030 A 
HETATM   31  C   UNL     1      24.430  42.912  50.923  1.00  0.00     0.009 A 
HETATM   32  C   UNL     1      24.774  43.129  49.587  1.00  0.00    -0.058 A 
HETATM   33  C   UNL     1      26.045  43.625  49.294  1.00  0.00     0.009 A 
HETATM   34  C   UNL     1      26.947  43.917  50.322  1.00  0.00     0.030 A 
BRANCH  32  35
HETATM   35  C   UNL     1      23.780  42.868  48.485  1.00  0.00     0.034 C 
HETATM   36  C   UNL     1      23.318  41.418  48.483  1.00  0.00     0.010 C 
ENDBRANCH  32  35
ENDBRANCH   1  29
TORSDOF 6
ENDMDL
MODEL 9
REMARK VINA RESULT:      -8.4      2.603      4.580
REMARK  6 active torsions:
REMARK  status: ('A' for Active; 'I' for Inactive)
REMARK    1  A    between atoms: C_2  and  C_3 
REMARK    2  A    between atoms: C_6  and  N_7 
REMARK    3  A    between atoms: C_8  and  C_10 
REMARK    4  A    between atoms: C_8  and  O_9 
REMARK       I    between atoms: C_10  and  N_11 
REMARK    5  A    between atoms: N_11  and  C_12 
REMARK    6  A    between atoms: C_12  and  C_13 
ROOT
HETATM    1  N   UNL     1      24.775  44.362  50.397  1.00  0.00    -0.254 N 
HETATM    2  C   UNL     1      25.206  42.952  50.331  1.00  0.00     0.256 C 
HETATM    3  C   UNL     1      24.990  42.303  48.974  1.00  0.00     0.034 A 
HETATM    4  C   UNL     1      24.101  42.893  48.087  1.00  0.00     0.048 A 
HETATM    5  N   UNL     1      23.490  44.082  48.444  1.00  0.00    -0.308 N 
HETATM    6  C   UNL     1      23.785  44.829  49.544  1.00  0.00     0.330 C 
HETATM    7  O   UNL     1      23.172  45.892  49.665  1.00  0.00    -0.246 OA
HETATM    8  C   UNL     1      25.594  41.089  48.597  1.00  0.00     0.015 A 
HETATM    9  C   UNL     1      25.330  40.513  47.351  1.00  0.00     0.001 A 
HETATM   10  C   UNL     1      24.437  41.127  46.477  1.00  0.00     0.002 A 
HETATM   11  C   UNL     1      23.811  42.315  46.849  1.00  0.00     0.030 A 
HETATM   12  H   UNL     1      22.794  44.496  47.840  1.00  0.00     0.170 HD
ENDROOT
BRANCH   2  13
HETATM   13  C   UNL     1      26.746  42.812  50.703  1.00  0.00     0.279 C 
HETATM   14  N   UNL     1      27.042  42.132  51.866  1.00  0.00    -0.352 N 
HETATM   15  H   UNL     1      26.309  41.570  52.286  1.00  0.00     0.162 HD
HETATM   16  O   UNL     1      27.607  43.378  50.021  1.00  0.00    -0.268 OA
BRANCH  14  17
HETATM   17  C   UNL     1      28.406  41.839  52.237  1.00  0.00     0.161 C 
BRANCH  17  18
HETATM   18  C   UNL     1      28.910  42.775  53.306  1.00  0.00    -0.038 A 
HETATM   19  C   UNL     1      29.935  42.372  54.180  1.00  0.00     0.048 A 
HETATM   20  C   UNL     1      30.317  43.237  55.182  1.00  0.00     0.105 A 
HETATM   21  C   UNL     1      29.718  44.463  55.348  1.00  0.00     0.105 A 
HETATM   22  O   UNL     1      31.284  43.002  56.109  1.00  0.00    -0.323 OA
HETATM   23  O   UNL     1      30.232  45.153  56.400  1.00  0.00    -0.323 OA
HETATM   24  C   UNL     1      28.706  44.892  54.519  1.00  0.00     0.040 A 
HETATM   25  C   UNL     1      31.218  44.217  56.883  1.00  0.00     0.352 A 
HETATM   26  C   UNL     1      28.297  44.036  53.491  1.00  0.00     0.012 A 
ENDBRANCH  17  18
ENDBRANCH  14  17
ENDBRANCH   2  13
BRANCH   2  27
HETATM   27  O   UNL     1      24.405  42.203  51.247  1.00  0.00    -0.359 OA
HETATM   28  H   UNL     1      24.065  42.863  51.880  1.00  0.00     0.213 HD
ENDBRANCH   2  27
BRANCH   1  29
HETATM   29  C   UNL     1      25.232  45.206  51.476  1.00  0.00     0.043 A 
HETATM   30  C   UNL     1      25.981  46.371  51.256  1.00  0.00     0.030 A 
HETATM   31  C   UNL     1      26.307  47.237  52.307  1.00  0.00     0.009 A 
HETATM   32  C   UNL     1      25.897  46.957  53.613  1.00  0.00    -0.058 A 
HETATM   33  C   UNL     1      25.173  45.787  53.851  1.00  0.00     0.009 A 
HETATM   34  C   UNL     1      24.850  44.925  52.798  1.00  0.00     0.030 A 
BRANCH  32  35
HETATM   35  C   UNL     1      26.196  47.915  54.735  1.00  0.00     0.034 C 
HETATM   36  C   UNL     1      27.687  48.201  54.841  1.00  0.00     0.010 C 
ENDBRANCH  32  35
ENDBRANCH   1  29
TORSDOF 6
ENDMDL
MODEL 10
REMARK VINA RESULT:      -8.3      3.138      5.582
REMARK  6 active torsions:
REMARK  status: ('A' for Active; 'I' for Inactive)
REMARK    1  A    between atoms: C_2  and  C_3 
REMARK    2  A    between atoms: C_6  and  N_7 
REMARK    3  A    between atoms: C_8  and  C_10 
REMARK    4  A    between atoms: C_8  and  O_9 
REMARK       I    between atoms: C_10  and  N_11 
REMARK    5  A    between atoms: N_11  and  C_12 
REMARK    6  A    between atoms: C_12  and  C_13 
ROOT
HETATM    1  N   UNL     1      25.855  42.277  50.987  1.00  0.00    -0.254 N 
HETATM    2  C   UNL     1      26.079  43.406  51.913  1.00  0.00     0.256 C 
HETATM    3  C   UNL     1      27.337  43.274  52.755  1.00  0.00     0.034 A 
HETATM    4  C   UNL     1      27.920  42.022  52.889  1.00  0.00     0.048 A 
HETATM    5  N   UNL     1      27.373  40.952  52.204  1.00  0.00    -0.308 N 
HETATM    6  C   UNL     1      26.381  41.026  51.274  1.00  0.00     0.330 C 
HETATM    7  O   UNL     1      26.062  39.968  50.726  1.00  0.00    -0.246 OA
HETATM    8  C   UNL     1      27.902  44.348  53.467  1.00  0.00     0.015 A 
HETATM    9  C   UNL     1      29.038  44.164  54.260  1.00  0.00     0.001 A 
HETATM   10  C   UNL     1      29.608  42.899  54.375  1.00  0.00     0.002 A 
HETATM   11  C   UNL     1      29.042  41.821  53.697  1.00  0.00     0.030 A 
HETATM   12  H   UNL     1      27.744  40.021  52.336  1.00  0.00     0.170 HD
ENDROOT
BRANCH   2  13
HETATM   13  C   UNL     1      26.160  44.782  51.119  1.00  0.00     0.279 C 
HETATM   14  N   UNL     1      25.128  45.674  51.320  1.00  0.00    -0.352 N 
HETATM   15  H   UNL     1      24.515  45.518  52.113  1.00  0.00     0.162 HD
HETATM   16  O   UNL     1      27.062  44.976  50.297  1.00  0.00    -0.268 OA
BRANCH  14  17
HETATM   17  C   UNL     1      25.160  47.000  50.749  1.00  0.00     0.161 C 
BRANCH  17  18
HETATM   18  C   UNL     1      24.044  47.211  49.759  1.00  0.00    -0.038 A 
HETATM   19  C   UNL     1      23.452  48.478  49.613  1.00  0.00     0.048 A 
HETATM   20  C   UNL     1      22.392  48.607  48.742  1.00  0.00     0.105 A 
HETATM   21  C   UNL     1      21.903  47.536  48.032  1.00  0.00     0.105 A 
HETATM   22  O   UNL     1      21.707  49.755  48.488  1.00  0.00    -0.323 OA
HETATM   23  O   UNL     1      20.849  47.875  47.243  1.00  0.00    -0.323 OA
HETATM   24  C   UNL     1      22.448  46.278  48.153  1.00  0.00     0.040 A 
HETATM   25  C   UNL     1      20.725  49.281  47.544  1.00  0.00     0.352 A 
HETATM   26  C   UNL     1      23.527  46.116  49.028  1.00  0.00     0.012 A 
ENDBRANCH  17  18
ENDBRANCH  14  17
ENDBRANCH   2  13
BRANCH   2  27
HETATM   27  O   UNL     1      24.995  43.434  52.844  1.00  0.00    -0.359 OA
HETATM   28  H   UNL     1      24.642  44.342  52.789  1.00  0.00     0.213 HD
ENDBRANCH   2  27
BRANCH   1  29
HETATM   29  C   UNL     1      24.926  42.418  49.890  1.00  0.00     0.043 A 
HETATM   30  C   UNL     1      25.327  42.337  48.549  1.00  0.00     0.030 A 
HETATM   31  C   UNL     1      24.391  42.353  47.507  1.00  0.00     0.009 A 
HETATM   32  C   UNL     1      23.025  42.459  47.780  1.00  0.00    -0.058 A 
HETATM   33  C   UNL     1      22.614  42.568  49.109  1.00  0.00     0.009 A 
HETATM   34  C   UNL     1      23.552  42.552  50.146  1.00  0.00     0.030 A 
BRANCH  32  35
HETATM   35  C   UNL     1      22.013  42.419  46.665  1.00  0.00     0.034 C 
HETATM   36  C   UNL     1      22.675  42.589  45.305  1.00  0.00     0.010 C 
ENDBRANCH  32  35
ENDBRANCH   1  29
TORSDOF 6
ENDMDL
