MODEL 1
REMARK VINA RESULT:      -8.4      0.000      0.000
REMARK  6 active torsions:
REMARK  status: ('A' for Active; 'I' for Inactive)
REMARK    1  A    between atoms: C_3  and  N_4 
REMARK    2  A    between atoms: N_4  and  C_5 
REMARK    3  A    between atoms: C_5  and  C_6 
REMARK    4  A    between atoms: N_8  and  C_10 
REMARK    5  A    between atoms: C_10  and  C_11 
REMARK    6  A    between atoms: C_16  and  O_17 
ROOT
HETATM    1  C   UNL     1      25.896  44.863  53.428  1.00  0.00     0.031 C 
HETATM    2  C   UNL     1      26.514  45.233  52.082  1.00  0.00     0.241 C 
HETATM    3  N   UNL     1      26.058  46.656  51.837  1.00  0.00    -0.067 N 
HETATM    4  H   UNL     1      26.890  47.218  51.599  1.00  0.00     0.280 HD
HETATM    5  C   UNL     1      25.504  47.196  53.141  1.00  0.00     0.235 C 
HETATM    6  C   UNL     1      25.965  46.189  54.181  1.00  0.00     0.035 C 
ENDROOT
BRANCH   3   7
HETATM    7  C   UNL     1      25.130  46.814  50.652  1.00  0.00     0.274 C 
BRANCH   7   8
HETATM    8  C   UNL     1      25.469  47.983  49.770  1.00  0.00    -0.013 A 
HETATM    9  C   UNL     1      24.515  48.658  48.990  1.00  0.00     0.019 A 
HETATM   10 BR   UNL     1      22.692  48.127  48.966  1.00  0.00    -0.051 Br
HETATM   11  C   UNL     1      24.885  49.741  48.185  1.00  0.00     0.022 A 
HETATM   12  C   UNL     1      26.215  50.162  48.140  1.00  0.00     0.038 A 
HETATM   13  C   UNL     1      27.162  49.494  48.902  1.00  0.00     0.066 A 
HETATM   14  C   UNL     1      26.803  48.421  49.712  1.00  0.00     0.046 A 
BRANCH  13  15
HETATM   15  O   UNL     1      28.474  49.850  48.890  1.00  0.00    -0.361 OA
HETATM   16  H   UNL     1      28.604  50.601  48.282  1.00  0.00     0.217 HD
ENDBRANCH  13  15
ENDBRANCH   7   8
ENDBRANCH   3   7
BRANCH   1  17
HETATM   17  C   UNL     1      26.626  43.708  54.122  1.00  0.00     0.127 C 
BRANCH  17  18
HETATM   18  N   UNL     1      28.039  43.687  53.728  1.00  0.00    -0.376 N 
HETATM   19  H   UNL     1      28.226  44.027  52.790  1.00  0.00     0.161 HD
BRANCH  18  20
HETATM   20  C   UNL     1      29.037  43.893  54.669  1.00  0.00     0.100 A 
HETATM   21  C   UNL     1      30.053  42.974  54.965  1.00  0.00     0.048 A 
HETATM   22  C   UNL     1      31.030  43.282  55.913  1.00  0.00     0.005 A 
HETATM   23  C   UNL     1      31.001  44.511  56.554  1.00  0.00     0.017 A 
HETATM   24  C   UNL     1      30.000  45.407  56.224  1.00  0.00     0.089 A 
HETATM   25  N   UNL     1      29.074  45.078  55.307  1.00  0.00    -0.353 N 
HETATM   26  H   UNL     1      28.371  45.771  55.074  1.00  0.00     0.166 HD
ENDBRANCH  18  20
ENDBRANCH  17  18
ENDBRANCH   1  17
TORSDOF 6
ENDMDL
MODEL 2
REMARK VINA RESULT:      -8.2      2.184      2.706
REMARK  6 active torsions:
REMARK  status: ('A' for Active; 'I' for Inactive)
REMARK    1  A    between atoms: C_3  and  N_4 
REMARK    2  A    between atoms: N_4  and  C_5 
REMARK    3  A    between atoms: C_5  and  C_6 
REMARK    4  A    between atoms: N_8  and  C_10 
REMARK    5  A    between atoms: C_10  and  C_11 
REMARK    6  A    between atoms: C_16  and  O_17 
ROOT
HETATM    1  C   UNL     1      27.070  45.721  53.835  1.00  0.00     0.031 C 
HETATM    2  C   UNL     1      26.476  46.937  53.129  1.00  0.00     0.241 C 
HETATM    3  N   UNL     1      25.641  46.352  52.010  1.00  0.00    -0.067 N 
HETATM    4  H   UNL     1      24.703  46.779  52.059  1.00  0.00     0.280 HD
HETATM    5  C   UNL     1      25.479  44.869  52.279  1.00  0.00     0.235 C 
HETATM    6  C   UNL     1      25.938  44.704  53.719  1.00  0.00     0.035 C 
ENDROOT
BRANCH   3   7
HETATM    7  C   UNL     1      26.147  46.683  50.622  1.00  0.00     0.274 C 
BRANCH   7   8
HETATM    8  C   UNL     1      25.301  47.690  49.895  1.00  0.00    -0.013 A 
HETATM    9  C   UNL     1      25.841  48.770  49.176  1.00  0.00     0.019 A 
HETATM   10 BR   UNL     1      27.715  49.065  49.081  1.00  0.00    -0.051 Br
HETATM   11  C   UNL     1      25.007  49.680  48.517  1.00  0.00     0.022 A 
HETATM   12  C   UNL     1      23.621  49.531  48.571  1.00  0.00     0.038 A 
HETATM   13  C   UNL     1      23.083  48.472  49.286  1.00  0.00     0.066 A 
HETATM   14  C   UNL     1      23.903  47.556  49.939  1.00  0.00     0.046 A 
BRANCH  13  15
HETATM   15  O   UNL     1      21.740  48.281  49.386  1.00  0.00    -0.361 OA
HETATM   16  H   UNL     1      21.559  47.555  50.011  1.00  0.00     0.217 HD
ENDBRANCH  13  15
ENDBRANCH   7   8
ENDBRANCH   3   7
BRANCH   1  17
HETATM   17  C   UNL     1      27.501  46.019  55.276  1.00  0.00     0.127 C 
BRANCH  17  18
HETATM   18  N   UNL     1      28.952  46.225  55.342  1.00  0.00    -0.376 N 
HETATM   19  H   UNL     1      29.243  47.197  55.402  1.00  0.00     0.161 HD
BRANCH  18  20
HETATM   20  C   UNL     1      29.769  45.298  55.971  1.00  0.00     0.100 A 
HETATM   21  C   UNL     1      30.227  44.112  55.382  1.00  0.00     0.048 A 
HETATM   22  C   UNL     1      31.067  43.250  56.088  1.00  0.00     0.005 A 
HETATM   23  C   UNL     1      31.462  43.580  57.376  1.00  0.00     0.017 A 
HETATM   24  C   UNL     1      31.013  44.768  57.923  1.00  0.00     0.089 A 
HETATM   25  N   UNL     1      30.204  45.574  57.216  1.00  0.00    -0.353 N 
HETATM   26  H   UNL     1      29.916  46.449  57.641  1.00  0.00     0.166 HD
ENDBRANCH  18  20
ENDBRANCH  17  18
ENDBRANCH   1  17
TORSDOF 6
ENDMDL
MODEL 3
REMARK VINA RESULT:      -8.1      3.204      7.843
REMARK  6 active torsions:
REMARK  status: ('A' for Active; 'I' for Inactive)
REMARK    1  A    between atoms: C_3  and  N_4 
REMARK    2  A    between atoms: N_4  and  C_5 
REMARK    3  A    between atoms: C_5  and  C_6 
REMARK    4  A    between atoms: N_8  and  C_10 
REMARK    5  A    between atoms: C_10  and  C_11 
REMARK    6  A    between atoms: C_16  and  O_17 
ROOT
HETATM    1  C   UNL     1      25.104  44.875  50.556  1.00  0.00     0.031 C 
HETATM    2  C   UNL     1      25.564  45.478  51.881  1.00  0.00     0.241 C 
HETATM    3  N   UNL     1      26.878  44.784  52.174  1.00  0.00    -0.067 N 
HETATM    4  H   UNL     1      27.579  45.510  52.386  1.00  0.00     0.280 HD
HETATM    5  C   UNL     1      27.323  44.080  50.906  1.00  0.00     0.235 C 
HETATM    6  C   UNL     1      26.428  44.667  49.827  1.00  0.00     0.035 C 
ENDROOT
BRANCH   3   7
HETATM    7  C   UNL     1      26.850  43.899  53.401  1.00  0.00     0.274 C 
BRANCH   7   8
HETATM    8  C   UNL     1      28.147  43.880  54.161  1.00  0.00    -0.013 A 
HETATM    9  C   UNL     1      29.045  42.800  54.119  1.00  0.00     0.019 A 
HETATM   10 BR   UNL     1      28.679  41.239  53.102  1.00  0.00    -0.051 Br
HETATM   11  C   UNL     1      30.240  42.833  54.848  1.00  0.00     0.022 A 
HETATM   12  C   UNL     1      30.553  43.942  55.635  1.00  0.00     0.038 A 
HETATM   13  C   UNL     1      29.666  45.007  55.686  1.00  0.00     0.066 A 
HETATM   14  C   UNL     1      28.479  44.988  54.960  1.00  0.00     0.046 A 
BRANCH  13  15
HETATM   15  O   UNL     1      29.910  46.110  56.444  1.00  0.00    -0.361 OA
HETATM   16  H   UNL     1      29.503  45.998  57.323  1.00  0.00     0.217 HD
ENDBRANCH  13  15
ENDBRANCH   7   8
ENDBRANCH   3   7
BRANCH   1  17
HETATM   17  C   UNL     1      24.109  45.769  49.808  1.00  0.00     0.127 C 
BRANCH  17  18
HETATM   18  N   UNL     1      24.191  47.148  50.300  1.00  0.00    -0.376 N 
HETATM   19  H   UNL     1      24.229  47.240  51.311  1.00  0.00     0.161 HD
BRANCH  18  20
HETATM   20  C   UNL     1      24.856  48.120  49.568  1.00  0.00     0.100 A 
HETATM   21  C   UNL     1      26.248  48.283  49.541  1.00  0.00     0.048 A 
HETATM   22  C   UNL     1      26.829  49.277  48.753  1.00  0.00     0.005 A 
HETATM   23  C   UNL     1      26.022  50.098  47.980  1.00  0.00     0.017 A 
HETATM   24  C   UNL     1      24.653  49.899  48.008  1.00  0.00     0.089 A 
HETATM   25  N   UNL     1      24.127  48.933  48.779  1.00  0.00    -0.353 N 
HETATM   26  H   UNL     1      23.121  48.801  48.754  1.00  0.00     0.166 HD
ENDBRANCH  18  20
ENDBRANCH  17  18
ENDBRANCH   1  17
TORSDOF 6
ENDMDL
MODEL 4
REMARK VINA RESULT:      -8.0      3.322      8.321
REMARK  6 active torsions:
REMARK  status: ('A' for Active; 'I' for Inactive)
REMARK    1  A    between atoms: C_3  and  N_4 
REMARK    2  A    between atoms: N_4  and  C_5 
REMARK    3  A    between atoms: C_5  and  C_6 
REMARK    4  A    between atoms: N_8  and  C_10 
REMARK    5  A    between atoms: C_10  and  C_11 
REMARK    6  A    between atoms: C_16  and  O_17 
ROOT
HETATM    1  C   UNL     1      25.074  45.083  50.391  1.00  0.00     0.031 C 
HETATM    2  C   UNL     1      25.444  45.646  51.762  1.00  0.00     0.241 C 
HETATM    3  N   UNL     1      26.771  44.995  52.090  1.00  0.00    -0.067 N 
HETATM    4  H   UNL     1      27.428  45.740  52.367  1.00  0.00     0.280 HD
HETATM    5  C   UNL     1      27.306  44.368  50.818  1.00  0.00     0.235 C 
HETATM    6  C   UNL     1      26.440  44.963  49.721  1.00  0.00     0.035 C 
ENDROOT
BRANCH   3   7
HETATM    7  C   UNL     1      26.723  44.057  53.276  1.00  0.00     0.274 C 
BRANCH   7   8
HETATM    8  C   UNL     1      28.008  44.004  54.056  1.00  0.00    -0.013 A 
HETATM    9  C   UNL     1      28.884  42.905  54.018  1.00  0.00     0.019 A 
HETATM   10 BR   UNL     1      28.501  41.362  52.979  1.00  0.00    -0.051 Br
HETATM   11  C   UNL     1      30.067  42.907  54.764  1.00  0.00     0.022 A 
HETATM   12  C   UNL     1      30.391  44.002  55.567  1.00  0.00     0.038 A 
HETATM   13  C   UNL     1      29.526  45.084  55.615  1.00  0.00     0.066 A 
HETATM   14  C   UNL     1      28.350  45.097  54.871  1.00  0.00     0.046 A 
BRANCH  13  15
HETATM   15  O   UNL     1      29.780  46.174  56.388  1.00  0.00    -0.361 OA
HETATM   16  H   UNL     1      29.059  46.822  56.286  1.00  0.00     0.217 HD
ENDBRANCH  13  15
ENDBRANCH   7   8
ENDBRANCH   3   7
BRANCH   1  17
HETATM   17  C   UNL     1      24.077  45.967  49.633  1.00  0.00     0.127 C 
BRANCH  17  18
HETATM   18  N   UNL     1      23.944  47.270  50.294  1.00  0.00    -0.376 N 
HETATM   19  H   UNL     1      24.591  47.428  51.060  1.00  0.00     0.161 HD
BRANCH  18  20
HETATM   20  C   UNL     1      23.555  48.389  49.574  1.00  0.00     0.100 A 
HETATM   21  C   UNL     1      24.417  49.177  48.800  1.00  0.00     0.048 A 
HETATM   22  C   UNL     1      23.928  50.273  48.090  1.00  0.00     0.005 A 
HETATM   23  C   UNL     1      22.575  50.575  48.140  1.00  0.00     0.017 A 
HETATM   24  C   UNL     1      21.743  49.765  48.894  1.00  0.00     0.089 A 
HETATM   25  N   UNL     1      22.249  48.718  49.566  1.00  0.00    -0.353 N 
HETATM   26  H   UNL     1      21.604  48.133  50.087  1.00  0.00     0.166 HD
ENDBRANCH  18  20
ENDBRANCH  17  18
ENDBRANCH   1  17
TORSDOF 6
ENDMDL
MODEL 5
REMARK VINA RESULT:      -7.7      4.965      7.767
REMARK  6 active torsions:
REMARK  status: ('A' for Active; 'I' for Inactive)
REMARK    1  A    between atoms: C_3  and  N_4 
REMARK    2  A    between atoms: N_4  and  C_5 
REMARK    3  A    between atoms: C_5  and  C_6 
REMARK    4  A    between atoms: N_8  and  C_10 
REMARK    5  A    between atoms: C_10  and  C_11 
REMARK    6  A    between atoms: C_16  and  O_17 
ROOT
HETATM    1  C   UNL     1      27.211  42.897  51.968  1.00  0.00     0.031 C 
HETATM    2  C   UNL     1      28.186  42.663  53.119  1.00  0.00     0.241 C 
HETATM    3  N   UNL     1      27.946  43.827  54.058  1.00  0.00    -0.067 N 
HETATM    4  H   UNL     1      27.804  43.445  55.005  1.00  0.00     0.280 HD
HETATM    5  C   UNL     1      26.652  44.499  53.641  1.00  0.00     0.235 C 
HETATM    6  C   UNL     1      26.010  43.503  52.689  1.00  0.00     0.035 C 
ENDROOT
BRANCH   3   7
HETATM    7  C   UNL     1      29.124  44.769  54.190  1.00  0.00     0.274 C 
BRANCH   7   8
HETATM    8  C   UNL     1      29.629  44.910  55.598  1.00  0.00    -0.013 A 
HETATM    9  C   UNL     1      29.136  45.871  56.497  1.00  0.00     0.019 A 
HETATM   10 BR   UNL     1      27.786  47.107  55.992  1.00  0.00    -0.051 Br
HETATM   11  C   UNL     1      29.643  45.960  57.799  1.00  0.00     0.022 A 
HETATM   12  C   UNL     1      30.654  45.097  58.221  1.00  0.00     0.038 A 
HETATM   13  C   UNL     1      31.149  44.152  57.335  1.00  0.00     0.066 A 
HETATM   14  C   UNL     1      30.648  44.049  56.041  1.00  0.00     0.046 A 
BRANCH  13  15
HETATM   15  O   UNL     1      32.143  43.291  57.684  1.00  0.00    -0.361 OA
HETATM   16  H   UNL     1      31.982  42.954  58.585  1.00  0.00     0.217 HD
ENDBRANCH  13  15
ENDBRANCH   7   8
ENDBRANCH   3   7
BRANCH   1  17
HETATM   17  C   UNL     1      26.893  41.617  51.186  1.00  0.00     0.127 C 
BRANCH  17  18
HETATM   18  N   UNL     1      27.717  40.505  51.671  1.00  0.00    -0.376 N 
HETATM   19  H   UNL     1      27.361  40.039  52.501  1.00  0.00     0.161 HD
BRANCH  18  20
HETATM   20  C   UNL     1      28.433  39.717  50.782  1.00  0.00     0.100 A 
HETATM   21  C   UNL     1      28.316  39.784  49.387  1.00  0.00     0.048 A 
HETATM   22  C   UNL     1      29.098  38.966  48.572  1.00  0.00     0.005 A 
HETATM   23  C   UNL     1      30.007  38.091  49.148  1.00  0.00     0.017 A 
HETATM   24  C   UNL     1      30.118  38.064  50.527  1.00  0.00     0.089 A 
HETATM   25  N   UNL     1      29.348  38.865  51.282  1.00  0.00    -0.353 N 
HETATM   26  H   UNL     1      29.476  38.835  52.288  1.00  0.00     0.166 HD
ENDBRANCH  18  20
ENDBRANCH  17  18
ENDBRANCH   1  17
TORSDOF 6
ENDMDL
MODEL 6
REMARK VINA RESULT:      -7.6      9.855     13.596
REMARK  6 active torsions:
REMARK  status: ('A' for Active; 'I' for Inactive)
REMARK    1  A    between atoms: C_3  and  N_4 
REMARK    2  A    between atoms: N_4  and  C_5 
REMARK    3  A    between atoms: C_5  and  C_6 
REMARK    4  A    between atoms: N_8  and  C_10 
REMARK    5  A    between atoms: C_10  and  C_11 
REMARK    6  A    between atoms: C_16  and  O_17 
ROOT
HETATM    1  C   UNL     1      14.923  52.936  49.919  1.00  0.00     0.031 C 
HETATM    2  C   UNL     1      16.423  52.891  50.201  1.00  0.00     0.241 C 
HETATM    3  N   UNL     1      17.015  52.216  48.981  1.00  0.00    -0.067 N 
HETATM    4  H   UNL     1      17.791  52.805  48.640  1.00  0.00     0.280 HD
HETATM    5  C   UNL     1      15.951  52.198  47.900  1.00  0.00     0.235 C 
HETATM    6  C   UNL     1      14.892  53.161  48.410  1.00  0.00     0.035 C 
ENDROOT
BRANCH   3   7
HETATM    7  C   UNL     1      17.642  50.868  49.262  1.00  0.00     0.274 C 
BRANCH   7   8
HETATM    8  C   UNL     1      19.139  50.857  49.120  1.00  0.00    -0.013 A 
HETATM    9  C   UNL     1      19.791  50.688  47.887  1.00  0.00     0.019 A 
HETATM   10 BR   UNL     1      18.822  50.432  46.274  1.00  0.00    -0.051 Br
HETATM   11  C   UNL     1      21.189  50.685  47.811  1.00  0.00     0.022 A 
HETATM   12  C   UNL     1      21.956  50.843  48.965  1.00  0.00     0.038 A 
HETATM   13  C   UNL     1      21.317  51.002  50.185  1.00  0.00     0.066 A 
HETATM   14  C   UNL     1      19.928  51.014  50.272  1.00  0.00     0.046 A 
BRANCH  13  15
HETATM   15  O   UNL     1      22.011  51.148  51.346  1.00  0.00    -0.361 OA
HETATM   16  H   UNL     1      22.956  50.968  51.187  1.00  0.00     0.217 HD
ENDBRANCH  13  15
ENDBRANCH   7   8
ENDBRANCH   3   7
BRANCH   1  17
HETATM   17  C   UNL     1      14.196  54.014  50.730  1.00  0.00     0.127 C 
BRANCH  17  18
HETATM   18  N   UNL     1      14.907  54.276  51.986  1.00  0.00    -0.376 N 
HETATM   19  H   UNL     1      15.625  53.596  52.220  1.00  0.00     0.161 HD
BRANCH  18  20
HETATM   20  C   UNL     1      15.126  55.576  52.416  1.00  0.00     0.100 A 
HETATM   21  C   UNL     1      14.890  56.720  51.642  1.00  0.00     0.048 A 
HETATM   22  C   UNL     1      15.119  57.991  52.170  1.00  0.00     0.005 A 
HETATM   23  C   UNL     1      15.567  58.120  53.476  1.00  0.00     0.017 A 
HETATM   24  C   UNL     1      15.768  56.973  54.224  1.00  0.00     0.089 A 
HETATM   25  N   UNL     1      15.540  55.765  53.683  1.00  0.00    -0.353 N 
HETATM   26  H   UNL     1      15.674  54.949  54.271  1.00  0.00     0.166 HD
ENDBRANCH  18  20
ENDBRANCH  17  18
ENDBRANCH   1  17
TORSDOF 6
ENDMDL
MODEL 7
REMARK VINA RESULT:      -7.5      3.312      8.340
REMARK  6 active torsions:
REMARK  status: ('A' for Active; 'I' for Inactive)
REMARK    1  A    between atoms: C_3  and  N_4 
REMARK    2  A    between atoms: N_4  and  C_5 
REMARK    3  A    between atoms: C_5  and  C_6 
REMARK    4  A    between atoms: N_8  and  C_10 
REMARK    5  A    between atoms: C_10  and  C_11 
REMARK    6  A    between atoms: C_16  and  O_17 
ROOT
HETATM    1  C   UNL     1      24.794  45.494  50.398  1.00  0.00     0.031 C 
HETATM    2  C   UNL     1      25.612  46.200  51.476  1.00  0.00     0.241 C 
HETATM    3  N   UNL     1      26.604  45.154  51.942  1.00  0.00    -0.067 N 
HETATM    4  H   UNL     1      27.544  45.577  51.917  1.00  0.00     0.280 HD
HETATM    5  C   UNL     1      26.590  44.021  50.934  1.00  0.00     0.235 C 
HETATM    6  C   UNL     1      25.842  44.598  49.743  1.00  0.00     0.035 C 
ENDROOT
BRANCH   3   7
HETATM    7  C   UNL     1      26.412  44.714  53.377  1.00  0.00     0.274 C 
BRANCH   7   8
HETATM    8  C   UNL     1      27.630  44.907  54.236  1.00  0.00    -0.013 A 
HETATM    9  C   UNL     1      27.867  46.076  54.980  1.00  0.00     0.019 A 
HETATM   10 BR   UNL     1      26.659  47.541  54.945  1.00  0.00    -0.051 Br
HETATM   11  C   UNL     1      29.019  46.204  55.764  1.00  0.00     0.022 A 
HETATM   12  C   UNL     1      29.957  45.172  55.811  1.00  0.00     0.038 A 
HETATM   13  C   UNL     1      29.732  44.020  55.072  1.00  0.00     0.066 A 
HETATM   14  C   UNL     1      28.586  43.879  54.295  1.00  0.00     0.046 A 
BRANCH  13  15
HETATM   15  O   UNL     1      30.615  42.985  55.067  1.00  0.00    -0.361 OA
HETATM   16  H   UNL     1      30.129  42.143  55.001  1.00  0.00     0.217 HD
ENDBRANCH  13  15
ENDBRANCH   7   8
ENDBRANCH   3   7
BRANCH   1  17
HETATM   17  C   UNL     1      24.111  46.469  49.433  1.00  0.00     0.127 C 
BRANCH  17  18
HETATM   18  N   UNL     1      23.738  47.703  50.133  1.00  0.00    -0.376 N 
HETATM   19  H   UNL     1      24.381  47.990  50.866  1.00  0.00     0.161 HD
BRANCH  18  20
HETATM   20  C   UNL     1      23.072  48.719  49.466  1.00  0.00     0.100 A 
HETATM   21  C   UNL     1      23.699  49.726  48.720  1.00  0.00     0.048 A 
HETATM   22  C   UNL     1      22.941  50.695  48.061  1.00  0.00     0.005 A 
HETATM   23  C   UNL     1      21.557  50.650  48.135  1.00  0.00     0.017 A 
HETATM   24  C   UNL     1      20.965  49.630  48.859  1.00  0.00     0.089 A 
HETATM   25  N   UNL     1      21.725  48.714  49.482  1.00  0.00    -0.353 N 
HETATM   26  H   UNL     1      21.254  47.968  49.982  1.00  0.00     0.166 HD
ENDBRANCH  18  20
ENDBRANCH  17  18
ENDBRANCH   1  17
TORSDOF 6
ENDMDL
MODEL 8
REMARK VINA RESULT:      -7.5      3.285      7.716
REMARK  6 active torsions:
REMARK  status: ('A' for Active; 'I' for Inactive)
REMARK    1  A    between atoms: C_3  and  N_4 
REMARK    2  A    between atoms: N_4  and  C_5 
REMARK    3  A    between atoms: C_5  and  C_6 
REMARK    4  A    between atoms: N_8  and  C_10 
REMARK    5  A    between atoms: C_10  and  C_11 
REMARK    6  A    between atoms: C_16  and  O_17 
ROOT
HETATM    1  C   UNL     1      26.394  45.598  51.971  1.00  0.00     0.031 C 
HETATM    2  C   UNL     1      25.738  44.309  52.461  1.00  0.00     0.241 C 
HETATM    3  N   UNL     1      25.530  44.533  53.944  1.00  0.00    -0.067 N 
HETATM    4  H   UNL     1      24.547  44.308  54.163  1.00  0.00     0.280 HD
HETATM    5  C   UNL     1      25.729  46.011  54.222  1.00  0.00     0.235 C 
HETATM    6  C   UNL     1      25.713  46.649  52.843  1.00  0.00     0.035 C 
ENDROOT
BRANCH   3   7
HETATM    7  C   UNL     1      26.346  43.617  54.829  1.00  0.00     0.274 C 
BRANCH   7   8
HETATM    8  C   UNL     1      27.696  43.274  54.263  1.00  0.00    -0.013 A 
HETATM    9  C   UNL     1      28.856  44.016  54.543  1.00  0.00     0.019 A 
HETATM   10 BR   UNL     1      28.812  45.550  55.661  1.00  0.00    -0.051 Br
HETATM   11  C   UNL     1      30.089  43.654  53.988  1.00  0.00     0.022 A 
HETATM   12  C   UNL     1      30.180  42.551  53.138  1.00  0.00     0.038 A 
HETATM   13  C   UNL     1      29.037  41.821  52.852  1.00  0.00     0.066 A 
HETATM   14  C   UNL     1      27.807  42.167  53.404  1.00  0.00     0.046 A 
BRANCH  13  15
HETATM   15  O   UNL     1      29.061  40.744  52.021  1.00  0.00    -0.361 OA
HETATM   16  H   UNL     1      29.985  40.505  51.823  1.00  0.00     0.217 HD
ENDBRANCH  13  15
ENDBRANCH   7   8
ENDBRANCH   3   7
BRANCH   1  17
HETATM   17  C   UNL     1      26.218  45.821  50.465  1.00  0.00     0.127 C 
BRANCH  17  18
HETATM   18  N   UNL     1      26.775  47.119  50.072  1.00  0.00    -0.376 N 
HETATM   19  H   UNL     1      27.759  47.103  49.820  1.00  0.00     0.161 HD
BRANCH  18  20
HETATM   20  C   UNL     1      25.988  48.058  49.422  1.00  0.00     0.100 A 
HETATM   21  C   UNL     1      24.590  48.115  49.500  1.00  0.00     0.048 A 
HETATM   22  C   UNL     1      23.885  49.114  48.828  1.00  0.00     0.005 A 
HETATM   23  C   UNL     1      24.576  50.065  48.091  1.00  0.00     0.017 A 
HETATM   24  C   UNL     1      25.957  49.997  48.052  1.00  0.00     0.089 A 
HETATM   25  N   UNL     1      26.604  49.021  48.710  1.00  0.00    -0.353 N 
HETATM   26  H   UNL     1      27.619  49.020  48.678  1.00  0.00     0.166 HD
ENDBRANCH  18  20
ENDBRANCH  17  18
ENDBRANCH   1  17
TORSDOF 6
ENDMDL
MODEL 9
REMARK VINA RESULT:      -7.5      3.903      5.306
REMARK  6 active torsions:
REMARK  status: ('A' for Active; 'I' for Inactive)
REMARK    1  A    between atoms: C_3  and  N_4 
REMARK    2  A    between atoms: N_4  and  C_5 
REMARK    3  A    between atoms: C_5  and  C_6 
REMARK    4  A    between atoms: N_8  and  C_10 
REMARK    5  A    between atoms: C_10  and  C_11 
REMARK    6  A    between atoms: C_16  and  O_17 
ROOT
HETATM    1  C   UNL     1      27.190  46.171  54.280  1.00  0.00     0.031 C 
HETATM    2  C   UNL     1      27.729  45.170  53.260  1.00  0.00     0.241 C 
HETATM    3  N   UNL     1      26.594  44.988  52.275  1.00  0.00    -0.067 N 
HETATM    4  H   UNL     1      26.976  45.119  51.326  1.00  0.00     0.280 HD
HETATM    5  C   UNL     1      25.588  46.097  52.517  1.00  0.00     0.235 C 
HETATM    6  C   UNL     1      26.332  47.081  53.405  1.00  0.00     0.035 C 
ENDROOT
BRANCH   3   7
HETATM    7  C   UNL     1      25.998  43.597  52.266  1.00  0.00     0.274 C 
BRANCH   7   8
HETATM    8  C   UNL     1      26.709  42.642  51.348  1.00  0.00    -0.013 A 
HETATM    9  C   UNL     1      27.608  41.663  51.805  1.00  0.00     0.019 A 
HETATM   10 BR   UNL     1      28.026  41.478  53.649  1.00  0.00    -0.051 Br
HETATM   11  C   UNL     1      28.244  40.799  50.907  1.00  0.00     0.022 A 
HETATM   12  C   UNL     1      27.997  40.903  49.537  1.00  0.00     0.038 A 
HETATM   13  C   UNL     1      27.117  41.872  49.080  1.00  0.00     0.066 A 
HETATM   14  C   UNL     1      26.474  42.732  49.965  1.00  0.00     0.046 A 
BRANCH  13  15
HETATM   15  O   UNL     1      26.846  42.030  47.757  1.00  0.00    -0.361 OA
HETATM   16  H   UNL     1      26.623  42.962  47.578  1.00  0.00     0.217 HD
ENDBRANCH  13  15
ENDBRANCH   7   8
ENDBRANCH   3   7
BRANCH   1  17
HETATM   17  C   UNL     1      28.300  46.900  55.044  1.00  0.00     0.127 C 
BRANCH  17  18
HETATM   18  N   UNL     1      28.458  46.327  56.385  1.00  0.00    -0.376 N 
HETATM   19  H   UNL     1      27.588  46.150  56.880  1.00  0.00     0.161 HD
BRANCH  18  20
HETATM   20  C   UNL     1      29.511  45.470  56.667  1.00  0.00     0.100 A 
HETATM   21  C   UNL     1      30.050  44.547  55.761  1.00  0.00     0.048 A 
HETATM   22  C   UNL     1      31.129  43.743  56.129  1.00  0.00     0.005 A 
HETATM   23  C   UNL     1      31.679  43.870  57.396  1.00  0.00     0.017 A 
HETATM   24  C   UNL     1      31.141  44.807  58.261  1.00  0.00     0.089 A 
HETATM   25  N   UNL     1      30.102  45.564  57.874  1.00  0.00    -0.353 N 
HETATM   26  H   UNL     1      29.751  46.257  58.527  1.00  0.00     0.166 HD
ENDBRANCH  18  20
ENDBRANCH  17  18
ENDBRANCH   1  17
TORSDOF 6
ENDMDL
MODEL 10
REMARK VINA RESULT:      -7.3      2.268      2.890
REMARK  6 active torsions:
REMARK  status: ('A' for Active; 'I' for Inactive)
REMARK    1  A    between atoms: C_3  and  N_4 
REMARK    2  A    between atoms: N_4  and  C_5 
REMARK    3  A    between atoms: C_5  and  C_6 
REMARK    4  A    between atoms: N_8  and  C_10 
REMARK    5  A    between atoms: C_10  and  C_11 
REMARK    6  A    between atoms: C_16  and  O_17 
ROOT
HETATM    1  C   UNL     1      27.268  44.983  53.459  1.00  0.00     0.031 C 
HETATM    2  C   UNL     1      26.093  45.714  52.814  1.00  0.00     0.241 C 
HETATM    3  N   UNL     1      25.696  44.834  51.648  1.00  0.00    -0.067 N 
HETATM    4  H   UNL     1      24.679  44.673  51.705  1.00  0.00     0.280 HD
HETATM    5  C   UNL     1      26.378  43.491  51.829  1.00  0.00     0.235 C 
HETATM    6  C   UNL     1      26.876  43.521  53.264  1.00  0.00     0.035 C 
ENDROOT
BRANCH   3   7
HETATM    7  C   UNL     1      25.916  45.467  50.291  1.00  0.00     0.274 C 
BRANCH   7   8
HETATM    8  C   UNL     1      24.701  46.167  49.749  1.00  0.00    -0.013 A 
HETATM    9  C   UNL     1      23.694  45.506  49.024  1.00  0.00     0.019 A 
HETATM   10 BR   UNL     1      23.797  43.649  48.644  1.00  0.00    -0.051 Br
HETATM   11  C   UNL     1      22.584  46.207  48.540  1.00  0.00     0.022 A 
HETATM   12  C   UNL     1      22.465  47.579  48.765  1.00  0.00     0.038 A 
HETATM   13  C   UNL     1      23.459  48.237  49.472  1.00  0.00     0.066 A 
HETATM   14  C   UNL     1      24.565  47.549  49.964  1.00  0.00     0.046 A 
BRANCH  13  15
HETATM   15  O   UNL     1      23.405  49.575  49.712  1.00  0.00    -0.361 OA
HETATM   16  H   UNL     1      23.001  49.734  50.584  1.00  0.00     0.217 HD
ENDBRANCH  13  15
ENDBRANCH   7   8
ENDBRANCH   3   7
BRANCH   1  17
HETATM   17  C   UNL     1      27.490  45.384  54.922  1.00  0.00     0.127 C 
BRANCH  17  18
HETATM   18  N   UNL     1      28.869  45.839  55.123  1.00  0.00    -0.376 N 
HETATM   19  H   UNL     1      28.988  46.848  55.141  1.00  0.00     0.161 HD
BRANCH  18  20
HETATM   20  C   UNL     1      29.750  45.101  55.900  1.00  0.00     0.100 A 
HETATM   21  C   UNL     1      30.419  43.949  55.467  1.00  0.00     0.048 A 
HETATM   22  C   UNL     1      31.307  43.286  56.315  1.00  0.00     0.005 A 
HETATM   23  C   UNL     1      31.539  43.783  57.589  1.00  0.00     0.017 A 
HETATM   24  C   UNL     1      30.882  44.936  57.980  1.00  0.00     0.089 A 
HETATM   25  N   UNL     1      30.033  45.548  57.139  1.00  0.00    -0.353 N 
HETATM   26  H   UNL     1      29.590  46.405  57.453  1.00  0.00     0.166 HD
ENDBRANCH  18  20
ENDBRANCH  17  18
ENDBRANCH   1  17
TORSDOF 6
ENDMDL
