MODEL 1
REMARK VINA RESULT:      -7.7      0.000      0.000
REMARK  4 active torsions:
REMARK  status: ('A' for Active; 'I' for Inactive)
REMARK    1  A    between atoms: C_6  and  C_7 
REMARK    2  A    between atoms: C_7  and  N_8 
REMARK    3  A    between atoms: N_8  and  C_9 
REMARK    4  A    between atoms: C_9  and  C_10 
ROOT
HETATM    1  C   UNL     1      27.822  41.871  52.390  1.00  0.00     0.327 C 
ENDROOT
BRANCH   1   2
HETATM    2  N   UNL     1      27.729  42.372  53.768  1.00  0.00     0.097 N 
HETATM    3  H   UNL     1      27.138  43.206  53.785  1.00  0.00     0.317 HD
BRANCH   2   4
HETATM    4  C   UNL     1      29.048  42.774  54.303  1.00  0.00     0.252 C 
HETATM    5  C   UNL     1      30.183  42.616  53.285  1.00  0.00     0.048 C 
BRANCH   4   6
HETATM    6  C   UNL     1      28.928  44.198  54.758  1.00  0.00     0.006 A 
HETATM    7  C   UNL     1      29.760  44.862  55.647  1.00  0.00     0.058 A 
HETATM    8  O   UNL     1      29.373  46.158  55.791  1.00  0.00    -0.320 OA
HETATM    9  C   UNL     1      30.953  44.460  56.424  1.00  0.00     0.077 C 
HETATM   10  C   UNL     1      28.303  46.355  54.978  1.00  0.00     0.050 A 
HETATM   11  C   UNL     1      27.745  47.722  54.942  1.00  0.00     0.076 C 
HETATM   12  C   UNL     1      27.984  45.184  54.329  1.00  0.00     0.044 A 
ENDBRANCH   4   6
ENDBRANCH   2   4
ENDBRANCH   1   2
BRANCH   1  13
HETATM   13  C   UNL     1      27.067  42.792  51.451  1.00  0.00     0.044 A 
HETATM   14  N   UNL     1      25.733  42.483  51.258  1.00  0.00    -0.338 N 
HETATM   15  H   UNL     1      25.329  41.688  51.760  1.00  0.00     0.168 HD
HETATM   16  C   UNL     1      24.988  43.217  50.470  1.00  0.00     0.158 A 
HETATM   17  N   UNL     1      25.475  44.268  49.841  1.00  0.00    -0.269 N 
HETATM   18  S   UNL     1      23.307  42.920  50.154  1.00  0.00    -0.064 SA
HETATM   19  C   UNL     1      26.811  44.699  49.962  1.00  0.00     0.255 A 
HETATM   20  C   UNL     1      24.534  44.907  49.058  1.00  0.00     0.109 A 
HETATM   21  O   UNL     1      27.226  45.678  49.372  1.00  0.00    -0.268 OA
HETATM   22  C   UNL     1      27.622  43.857  50.856  1.00  0.00     0.101 A 
HETATM   23  C   UNL     1      23.327  44.325  49.106  1.00  0.00     0.071 A 
ENDBRANCH   1  13
TORSDOF 4
ENDMDL
MODEL 2
REMARK VINA RESULT:      -7.7      3.221      4.383
REMARK  4 active torsions:
REMARK  status: ('A' for Active; 'I' for Inactive)
REMARK    1  A    between atoms: C_6  and  C_7 
REMARK    2  A    between atoms: C_7  and  N_8 
REMARK    3  A    between atoms: N_8  and  C_9 
REMARK    4  A    between atoms: C_9  and  C_10 
ROOT
HETATM    1  C   UNL     1      27.882  41.932  52.748  1.00  0.00     0.327 C 
ENDROOT
BRANCH   1   2
HETATM    2  N   UNL     1      28.679  43.165  52.792  1.00  0.00     0.097 N 
HETATM    3  H   UNL     1      29.638  42.938  53.064  1.00  0.00     0.317 HD
BRANCH   2   4
HETATM    4  C   UNL     1      28.167  44.121  53.797  1.00  0.00     0.252 C 
HETATM    5  C   UNL     1      26.826  43.694  54.405  1.00  0.00     0.048 C 
BRANCH   4   6
HETATM    6  C   UNL     1      29.219  44.256  54.859  1.00  0.00     0.006 A 
HETATM    7  C   UNL     1      29.350  45.289  55.776  1.00  0.00     0.058 A 
HETATM    8  O   UNL     1      30.395  45.056  56.615  1.00  0.00    -0.320 OA
HETATM    9  C   UNL     1      28.593  46.535  56.027  1.00  0.00     0.077 C 
HETATM   10  C   UNL     1      30.936  43.860  56.268  1.00  0.00     0.050 A 
HETATM   11  C   UNL     1      32.068  43.384  57.089  1.00  0.00     0.076 C 
HETATM   12  C   UNL     1      30.259  43.331  55.192  1.00  0.00     0.044 A 
ENDBRANCH   4   6
ENDBRANCH   2   4
ENDBRANCH   1   2
BRANCH   1  13
HETATM   13  C   UNL     1      28.004  41.283  51.383  1.00  0.00     0.044 A 
HETATM   14  N   UNL     1      28.604  40.037  51.366  1.00  0.00    -0.338 N 
HETATM   15  H   UNL     1      28.904  39.619  52.250  1.00  0.00     0.168 HD
HETATM   16  C   UNL     1      28.755  39.387  50.240  1.00  0.00     0.158 A 
HETATM   17  N   UNL     1      28.343  39.887  49.093  1.00  0.00    -0.269 N 
HETATM   18  S   UNL     1      29.493  37.821  50.104  1.00  0.00    -0.064 SA
HETATM   19  C   UNL     1      27.705  41.139  48.973  1.00  0.00     0.255 A 
HETATM   20  C   UNL     1      28.594  39.052  48.023  1.00  0.00     0.109 A 
HETATM   21  O   UNL     1      27.331  41.568  47.898  1.00  0.00    -0.268 OA
HETATM   22  C   UNL     1      27.546  41.844  50.255  1.00  0.00     0.101 A 
HETATM   23  C   UNL     1      29.201  37.911  48.378  1.00  0.00     0.071 A 
ENDBRANCH   1  13
TORSDOF 4
ENDMDL
MODEL 3
REMARK VINA RESULT:      -7.6      3.053      4.152
REMARK  4 active torsions:
REMARK  status: ('A' for Active; 'I' for Inactive)
REMARK    1  A    between atoms: C_6  and  C_7 
REMARK    2  A    between atoms: C_7  and  N_8 
REMARK    3  A    between atoms: N_8  and  C_9 
REMARK    4  A    between atoms: C_9  and  C_10 
ROOT
HETATM    1  C   UNL     1      24.897  45.232  51.508  1.00  0.00     0.327 C 
ENDROOT
BRANCH   1   2
HETATM    2  N   UNL     1      26.122  44.913  52.253  1.00  0.00     0.097 N 
HETATM    3  H   UNL     1      26.299  43.907  52.197  1.00  0.00     0.317 HD
BRANCH   2   4
HETATM    4  C   UNL     1      26.002  45.244  53.689  1.00  0.00     0.252 C 
HETATM    5  C   UNL     1      25.067  44.296  54.449  1.00  0.00     0.048 C 
BRANCH   4   6
HETATM    6  C   UNL     1      27.385  45.214  54.269  1.00  0.00     0.006 A 
HETATM    7  C   UNL     1      28.085  46.283  54.810  1.00  0.00     0.058 A 
HETATM    8  O   UNL     1      29.295  45.876  55.280  1.00  0.00    -0.320 OA
HETATM    9  C   UNL     1      27.779  47.719  54.989  1.00  0.00     0.077 C 
HETATM   10  C   UNL     1      29.382  44.537  55.074  1.00  0.00     0.050 A 
HETATM   11  C   UNL     1      30.609  43.872  55.557  1.00  0.00     0.076 C 
HETATM   12  C   UNL     1      28.241  44.082  54.449  1.00  0.00     0.044 A 
ENDBRANCH   4   6
ENDBRANCH   2   4
ENDBRANCH   1   2
BRANCH   1  13
HETATM   13  C   UNL     1      25.107  46.479  50.671  1.00  0.00     0.044 A 
HETATM   14  N   UNL     1      23.961  47.039  50.137  1.00  0.00    -0.338 N 
HETATM   15  H   UNL     1      23.055  46.611  50.346  1.00  0.00     0.168 HD
HETATM   16  C   UNL     1      24.030  48.121  49.402  1.00  0.00     0.158 A 
HETATM   17  N   UNL     1      25.180  48.712  49.150  1.00  0.00    -0.269 N 
HETATM   18  S   UNL     1      22.659  48.905  48.682  1.00  0.00    -0.064 SA
HETATM   19  C   UNL     1      26.418  48.253  49.644  1.00  0.00     0.255 A 
HETATM   20  C   UNL     1      25.043  49.834  48.357  1.00  0.00     0.109 A 
HETATM   21  O   UNL     1      27.461  48.827  49.397  1.00  0.00    -0.268 OA
HETATM   22  C   UNL     1      26.308  47.039  50.469  1.00  0.00     0.101 A 
HETATM   23  C   UNL     1      23.771  50.084  48.015  1.00  0.00     0.071 A 
ENDBRANCH   1  13
TORSDOF 4
ENDMDL
MODEL 4
REMARK VINA RESULT:      -7.4      3.086      4.221
REMARK  4 active torsions:
REMARK  status: ('A' for Active; 'I' for Inactive)
REMARK    1  A    between atoms: C_6  and  C_7 
REMARK    2  A    between atoms: C_7  and  N_8 
REMARK    3  A    between atoms: N_8  and  C_9 
REMARK    4  A    between atoms: C_9  and  C_10 
ROOT
HETATM    1  C   UNL     1      25.691  44.535  51.147  1.00  0.00     0.327 C 
ENDROOT
BRANCH   1   2
HETATM    2  N   UNL     1      26.839  44.666  52.054  1.00  0.00     0.097 N 
HETATM    3  H   UNL     1      27.226  43.738  52.245  1.00  0.00     0.317 HD
BRANCH   2   4
HETATM    4  C   UNL     1      26.453  45.242  53.360  1.00  0.00     0.252 C 
HETATM    5  C   UNL     1      25.350  44.445  54.067  1.00  0.00     0.048 C 
BRANCH   4   6
HETATM    6  C   UNL     1      27.693  45.308  54.202  1.00  0.00     0.006 A 
HETATM    7  C   UNL     1      28.161  46.403  54.911  1.00  0.00     0.058 A 
HETATM    8  O   UNL     1      29.292  46.084  55.596  1.00  0.00    -0.320 OA
HETATM    9  C   UNL     1      27.680  47.792  55.082  1.00  0.00     0.077 C 
HETATM   10  C   UNL     1      29.554  44.773  55.359  1.00  0.00     0.050 A 
HETATM   11  C   UNL     1      30.726  44.198  56.051  1.00  0.00     0.076 C 
HETATM   12  C   UNL     1      28.609  44.251  54.504  1.00  0.00     0.044 A 
ENDBRANCH   4   6
ENDBRANCH   2   4
ENDBRANCH   1   2
BRANCH   1  13
HETATM   13  C   UNL     1      25.398  45.866  50.484  1.00  0.00     0.044 A 
HETATM   14  N   UNL     1      26.507  46.621  50.146  1.00  0.00    -0.338 N 
HETATM   15  H   UNL     1      27.440  46.245  50.334  1.00  0.00     0.168 HD
HETATM   16  C   UNL     1      26.366  47.785  49.564  1.00  0.00     0.158 A 
HETATM   17  N   UNL     1      25.177  48.276  49.278  1.00  0.00    -0.269 N 
HETATM   18  S   UNL     1      27.686  48.814  49.100  1.00  0.00    -0.064 SA
HETATM   19  C   UNL     1      23.970  47.603  49.555  1.00  0.00     0.255 A 
HETATM   20  C   UNL     1      25.240  49.513  48.669  1.00  0.00     0.109 A 
HETATM   21  O   UNL     1      22.889  48.082  49.271  1.00  0.00    -0.268 OA
HETATM   22  C   UNL     1      24.160  46.297  50.206  1.00  0.00     0.101 A 
HETATM   23  C   UNL     1      26.496  49.951  48.497  1.00  0.00     0.071 A 
ENDBRANCH   1  13
TORSDOF 4
ENDMDL
MODEL 5
REMARK VINA RESULT:      -7.4      2.805      3.331
REMARK  4 active torsions:
REMARK  status: ('A' for Active; 'I' for Inactive)
REMARK    1  A    between atoms: C_6  and  C_7 
REMARK    2  A    between atoms: C_7  and  N_8 
REMARK    3  A    between atoms: N_8  and  C_9 
REMARK    4  A    between atoms: C_9  and  C_10 
ROOT
HETATM    1  C   UNL     1      28.494  41.022  53.310  1.00  0.00     0.327 C 
ENDROOT
BRANCH   1   2
HETATM    2  N   UNL     1      27.982  42.264  53.905  1.00  0.00     0.097 N 
HETATM    3  H   UNL     1      27.574  42.847  53.171  1.00  0.00     0.317 HD
BRANCH   2   4
HETATM    4  C   UNL     1      29.056  43.063  54.534  1.00  0.00     0.252 C 
HETATM    5  C   UNL     1      30.355  43.071  53.719  1.00  0.00     0.048 C 
BRANCH   4   6
HETATM    6  C   UNL     1      28.526  44.455  54.716  1.00  0.00     0.006 A 
HETATM    7  C   UNL     1      29.099  45.473  55.463  1.00  0.00     0.058 A 
HETATM    8  O   UNL     1      28.364  46.613  55.364  1.00  0.00    -0.320 OA
HETATM    9  C   UNL     1      30.318  45.567  56.297  1.00  0.00     0.077 C 
HETATM   10  C   UNL     1      27.322  46.354  54.532  1.00  0.00     0.050 A 
HETATM   11  C   UNL     1      26.411  47.481  54.244  1.00  0.00     0.076 C 
HETATM   12  C   UNL     1      27.369  45.043  54.114  1.00  0.00     0.044 A 
ENDBRANCH   4   6
ENDBRANCH   2   4
ENDBRANCH   1   2
BRANCH   1  13
HETATM   13  C   UNL     1      28.241  41.019  51.815  1.00  0.00     0.044 A 
HETATM   14  N   UNL     1      28.635  39.875  51.145  1.00  0.00    -0.338 N 
HETATM   15  H   UNL     1      29.043  39.103  51.679  1.00  0.00     0.168 HD
HETATM   16  C   UNL     1      28.458  39.767  49.853  1.00  0.00     0.158 A 
HETATM   17  N   UNL     1      27.900  40.732  49.149  1.00  0.00    -0.269 N 
HETATM   18  S   UNL     1      28.915  38.380  48.914  1.00  0.00    -0.064 SA
HETATM   19  C   UNL     1      27.442  41.941  49.710  1.00  0.00     0.255 A 
HETATM   20  C   UNL     1      27.804  40.428  47.806  1.00  0.00     0.109 A 
HETATM   21  O   UNL     1      26.926  42.808  49.032  1.00  0.00    -0.268 OA
HETATM   22  C   UNL     1      27.652  42.032  51.164  1.00  0.00     0.101 A 
HETATM   23  C   UNL     1      28.296  39.217  47.504  1.00  0.00     0.071 A 
ENDBRANCH   1  13
TORSDOF 4
ENDMDL
MODEL 6
REMARK VINA RESULT:      -7.3      1.870      2.189
REMARK  4 active torsions:
REMARK  status: ('A' for Active; 'I' for Inactive)
REMARK    1  A    between atoms: C_6  and  C_7 
REMARK    2  A    between atoms: C_7  and  N_8 
REMARK    3  A    between atoms: N_8  and  C_9 
REMARK    4  A    between atoms: C_9  and  C_10 
ROOT
HETATM    1  C   UNL     1      27.266  42.439  51.882  1.00  0.00     0.327 C 
ENDROOT
BRANCH   1   2
HETATM    2  N   UNL     1      27.276  42.487  53.350  1.00  0.00     0.097 N 
HETATM    3  H   UNL     1      26.696  43.268  53.666  1.00  0.00     0.317 HD
BRANCH   2   4
HETATM    4  C   UNL     1      28.633  42.721  53.889  1.00  0.00     0.252 C 
HETATM    5  C   UNL     1      29.733  42.579  52.831  1.00  0.00     0.048 C 
BRANCH   4   6
HETATM    6  C   UNL     1      28.641  44.096  54.491  1.00  0.00     0.006 A 
HETATM    7  C   UNL     1      29.586  44.618  55.362  1.00  0.00     0.058 A 
HETATM    8  O   UNL     1      29.294  45.911  55.667  1.00  0.00    -0.320 OA
HETATM    9  C   UNL     1      30.814  44.075  55.983  1.00  0.00     0.077 C 
HETATM   10  C   UNL     1      28.174  46.249  54.979  1.00  0.00     0.050 A 
HETATM   11  C   UNL     1      27.701  47.640  55.128  1.00  0.00     0.076 C 
HETATM   12  C   UNL     1      27.727  45.170  54.249  1.00  0.00     0.044 A 
ENDBRANCH   4   6
ENDBRANCH   2   4
ENDBRANCH   1   2
BRANCH   1  13
HETATM   13  C   UNL     1      26.218  43.390  51.338  1.00  0.00     0.044 A 
HETATM   14  N   UNL     1      26.682  44.638  50.965  1.00  0.00    -0.338 N 
HETATM   15  H   UNL     1      27.681  44.843  51.050  1.00  0.00     0.168 HD
HETATM   16  C   UNL     1      25.860  45.534  50.478  1.00  0.00     0.158 A 
HETATM   17  N   UNL     1      24.576  45.282  50.323  1.00  0.00    -0.269 N 
HETATM   18  S   UNL     1      26.333  47.129  49.980  1.00  0.00    -0.064 SA
HETATM   19  C   UNL     1      23.979  44.048  50.650  1.00  0.00     0.255 A 
HETATM   20  C   UNL     1      23.880  46.352  49.798  1.00  0.00     0.109 A 
HETATM   21  O   UNL     1      22.791  43.847  50.488  1.00  0.00    -0.268 OA
HETATM   22  C   UNL     1      24.927  43.061  51.191  1.00  0.00     0.101 A 
HETATM   23  C   UNL     1      24.657  47.418  49.556  1.00  0.00     0.071 A 
ENDBRANCH   1  13
TORSDOF 4
ENDMDL
MODEL 7
REMARK VINA RESULT:      -7.2      1.642      2.669
REMARK  4 active torsions:
REMARK  status: ('A' for Active; 'I' for Inactive)
REMARK    1  A    between atoms: C_6  and  C_7 
REMARK    2  A    between atoms: C_7  and  N_8 
REMARK    3  A    between atoms: N_8  and  C_9 
REMARK    4  A    between atoms: C_9  and  C_10 
ROOT
HETATM    1  C   UNL     1      27.456  43.400  51.054  1.00  0.00     0.327 C 
ENDROOT
BRANCH   1   2
HETATM    2  N   UNL     1      28.243  43.930  52.175  1.00  0.00     0.097 N 
HETATM    3  H   UNL     1      29.239  43.812  51.974  1.00  0.00     0.317 HD
BRANCH   2   4
HETATM    4  C   UNL     1      27.974  43.203  53.435  1.00  0.00     0.252 C 
HETATM    5  C   UNL     1      28.016  41.679  53.270  1.00  0.00     0.048 C 
BRANCH   4   6
HETATM    6  C   UNL     1      28.990  43.663  54.439  1.00  0.00     0.006 A 
HETATM    7  C   UNL     1      29.037  44.896  55.071  1.00  0.00     0.058 A 
HETATM    8  O   UNL     1      30.073  44.945  55.952  1.00  0.00    -0.320 OA
HETATM    9  C   UNL     1      28.202  46.115  54.997  1.00  0.00     0.077 C 
HETATM   10  C   UNL     1      30.692  43.737  55.919  1.00  0.00     0.050 A 
HETATM   11  C   UNL     1      31.829  43.552  56.843  1.00  0.00     0.076 C 
HETATM   12  C   UNL     1      30.074  42.917  55.001  1.00  0.00     0.044 A 
ENDBRANCH   4   6
ENDBRANCH   2   4
ENDBRANCH   1   2
BRANCH   1  13
HETATM   13  C   UNL     1      26.387  44.398  50.652  1.00  0.00     0.044 A 
HETATM   14  N   UNL     1      25.531  43.983  49.648  1.00  0.00    -0.338 N 
HETATM   15  H   UNL     1      25.643  43.044  49.256  1.00  0.00     0.168 HD
HETATM   16  C   UNL     1      24.569  44.766  49.229  1.00  0.00     0.158 A 
HETATM   17  N   UNL     1      24.380  45.965  49.744  1.00  0.00    -0.269 N 
HETATM   18  S   UNL     1      23.440  44.348  47.978  1.00  0.00    -0.064 SA
HETATM   19  C   UNL     1      25.172  46.502  50.779  1.00  0.00     0.255 A 
HETATM   20  C   UNL     1      23.319  46.634  49.168  1.00  0.00     0.109 A 
HETATM   21  O   UNL     1      24.965  47.610  51.236  1.00  0.00    -0.268 OA
HETATM   22  C   UNL     1      26.241  45.598  51.231  1.00  0.00     0.101 A 
HETATM   23  C   UNL     1      22.706  45.923  48.210  1.00  0.00     0.071 A 
ENDBRANCH   1  13
TORSDOF 4
ENDMDL
MODEL 8
REMARK VINA RESULT:      -7.1      3.557      4.752
REMARK  4 active torsions:
REMARK  status: ('A' for Active; 'I' for Inactive)
REMARK    1  A    between atoms: C_6  and  C_7 
REMARK    2  A    between atoms: C_7  and  N_8 
REMARK    3  A    between atoms: N_8  and  C_9 
REMARK    4  A    between atoms: C_9  and  C_10 
ROOT
HETATM    1  C   UNL     1      28.127  41.550  52.726  1.00  0.00     0.327 C 
ENDROOT
BRANCH   1   2
HETATM    2  N   UNL     1      28.936  42.766  52.564  1.00  0.00     0.097 N 
HETATM    3  H   UNL     1      29.885  42.587  52.900  1.00  0.00     0.317 HD
BRANCH   2   4
HETATM    4  C   UNL     1      28.408  43.894  53.361  1.00  0.00     0.252 C 
HETATM    5  C   UNL     1      26.974  43.664  53.852  1.00  0.00     0.048 C 
BRANCH   4   6
HETATM    6  C   UNL     1      29.345  44.099  54.515  1.00  0.00     0.006 A 
HETATM    7  C   UNL     1      29.375  45.182  55.381  1.00  0.00     0.058 A 
HETATM    8  O   UNL     1      30.329  45.008  56.334  1.00  0.00    -0.320 OA
HETATM    9  C   UNL     1      28.589  46.432  55.483  1.00  0.00     0.077 C 
HETATM   10  C   UNL     1      30.910  43.801  56.112  1.00  0.00     0.050 A 
HETATM   11  C   UNL     1      31.955  43.385  57.070  1.00  0.00     0.076 C 
HETATM   12  C   UNL     1      30.350  43.206  55.004  1.00  0.00     0.044 A 
ENDBRANCH   4   6
ENDBRANCH   2   4
ENDBRANCH   1   2
BRANCH   1  13
HETATM   13  C   UNL     1      28.465  40.552  51.635  1.00  0.00     0.044 A 
HETATM   14  N   UNL     1      27.941  40.833  50.386  1.00  0.00    -0.338 N 
HETATM   15  H   UNL     1      27.389  41.685  50.260  1.00  0.00     0.168 HD
HETATM   16  C   UNL     1      28.176  40.037  49.373  1.00  0.00     0.158 A 
HETATM   17  N   UNL     1      28.915  38.954  49.502  1.00  0.00    -0.269 N 
HETATM   18  S   UNL     1      27.569  40.292  47.767  1.00  0.00    -0.064 SA
HETATM   19  C   UNL     1      29.519  38.562  50.714  1.00  0.00     0.255 A 
HETATM   20  C   UNL     1      29.043  38.250  48.322  1.00  0.00     0.109 A 
HETATM   21  O   UNL     1      30.201  37.558  50.796  1.00  0.00    -0.268 OA
HETATM   22  C   UNL     1      29.240  39.476  51.833  1.00  0.00     0.101 A 
HETATM   23  C   UNL     1      28.391  38.817  47.297  1.00  0.00     0.071 A 
ENDBRANCH   1  13
TORSDOF 4
ENDMDL
MODEL 9
REMARK VINA RESULT:      -7.1      2.051      3.409
REMARK  4 active torsions:
REMARK  status: ('A' for Active; 'I' for Inactive)
REMARK    1  A    between atoms: C_6  and  C_7 
REMARK    2  A    between atoms: C_7  and  N_8 
REMARK    3  A    between atoms: N_8  and  C_9 
REMARK    4  A    between atoms: C_9  and  C_10 
ROOT
HETATM    1  C   UNL     1      25.775  45.260  53.778  1.00  0.00     0.327 C 
ENDROOT
BRANCH   1   2
HETATM    2  N   UNL     1      26.905  44.610  54.456  1.00  0.00     0.097 N 
HETATM    3  H   UNL     1      26.688  44.507  55.450  1.00  0.00     0.317 HD
BRANCH   2   4
HETATM    4  C   UNL     1      28.141  45.417  54.372  1.00  0.00     0.252 C 
HETATM    5  C   UNL     1      28.038  46.755  55.114  1.00  0.00     0.048 C 
BRANCH   4   6
HETATM    6  C   UNL     1      29.257  44.580  54.925  1.00  0.00     0.006 A 
HETATM    7  C   UNL     1      29.865  43.493  54.314  1.00  0.00     0.058 A 
HETATM    8  O   UNL     1      30.869  43.006  55.092  1.00  0.00    -0.320 OA
HETATM    9  C   UNL     1      29.661  42.800  53.024  1.00  0.00     0.077 C 
HETATM   10  C   UNL     1      30.940  43.786  56.202  1.00  0.00     0.050 A 
HETATM   11  C   UNL     1      32.005  43.459  57.172  1.00  0.00     0.076 C 
HETATM   12  C   UNL     1      29.968  44.760  56.154  1.00  0.00     0.044 A 
ENDBRANCH   4   6
ENDBRANCH   2   4
ENDBRANCH   1   2
BRANCH   1  13
HETATM   13  C   UNL     1      25.395  44.478  52.535  1.00  0.00     0.044 A 
HETATM   14  N   UNL     1      26.063  43.280  52.357  1.00  0.00    -0.338 N 
HETATM   15  H   UNL     1      26.741  42.980  53.062  1.00  0.00     0.168 HD
HETATM   16  C   UNL     1      25.807  42.525  51.319  1.00  0.00     0.158 A 
HETATM   17  N   UNL     1      24.911  42.871  50.417  1.00  0.00    -0.269 N 
HETATM   18  S   UNL     1      26.585  41.006  50.996  1.00  0.00    -0.064 SA
HETATM   19  C   UNL     1      24.152  44.057  50.487  1.00  0.00     0.255 A 
HETATM   20  C   UNL     1      24.788  41.945  49.401  1.00  0.00     0.109 A 
HETATM   21  O   UNL     1      23.328  44.343  49.640  1.00  0.00    -0.268 OA
HETATM   22  C   UNL     1      24.459  44.883  51.666  1.00  0.00     0.101 A 
HETATM   23  C   UNL     1      25.604  40.891  49.548  1.00  0.00     0.071 A 
ENDBRANCH   1  13
TORSDOF 4
ENDMDL
MODEL 10
REMARK VINA RESULT:      -7.0      1.838      2.714
REMARK  4 active torsions:
REMARK  status: ('A' for Active; 'I' for Inactive)
REMARK    1  A    between atoms: C_6  and  C_7 
REMARK    2  A    between atoms: C_7  and  N_8 
REMARK    3  A    between atoms: N_8  and  C_9 
REMARK    4  A    between atoms: C_9  and  C_10 
ROOT
HETATM    1  C   UNL     1      27.659  41.735  52.713  1.00  0.00     0.327 C 
ENDROOT
BRANCH   1   2
HETATM    2  N   UNL     1      28.654  42.804  52.871  1.00  0.00     0.097 N 
HETATM    3  H   UNL     1      29.501  42.418  53.295  1.00  0.00     0.317 HD
BRANCH   2   4
HETATM    4  C   UNL     1      28.178  43.876  53.772  1.00  0.00     0.252 C 
HETATM    5  C   UNL     1      26.835  43.551  54.436  1.00  0.00     0.048 C 
BRANCH   4   6
HETATM    6  C   UNL     1      29.247  44.099  54.801  1.00  0.00     0.006 A 
HETATM    7  C   UNL     1      29.433  45.234  55.576  1.00  0.00     0.058 A 
HETATM    8  O   UNL     1      30.476  45.063  56.433  1.00  0.00    -0.320 OA
HETATM    9  C   UNL     1      28.736  46.535  55.668  1.00  0.00     0.077 C 
HETATM   10  C   UNL     1      30.960  43.809  56.242  1.00  0.00     0.050 A 
HETATM   11  C   UNL     1      32.078  43.393  57.112  1.00  0.00     0.076 C 
HETATM   12  C   UNL     1      30.247  43.178  55.246  1.00  0.00     0.044 A 
ENDBRANCH   4   6
ENDBRANCH   2   4
ENDBRANCH   1   2
BRANCH   1  13
HETATM   13  C   UNL     1      27.034  41.807  51.333  1.00  0.00     0.044 A 
HETATM   14  N   UNL     1      25.691  42.137  51.304  1.00  0.00    -0.338 N 
HETATM   15  H   UNL     1      25.209  42.334  52.185  1.00  0.00     0.168 HD
HETATM   16  C   UNL     1      25.055  42.231  50.164  1.00  0.00     0.158 A 
HETATM   17  N   UNL     1      25.663  42.020  49.014  1.00  0.00    -0.269 N 
HETATM   18  S   UNL     1      23.374  42.638  50.011  1.00  0.00    -0.064 SA
HETATM   19  C   UNL     1      27.029  41.690  48.904  1.00  0.00     0.255 A 
HETATM   20  C   UNL     1      24.822  42.165  47.929  1.00  0.00     0.109 A 
HETATM   21  O   UNL     1      27.560  41.509  47.825  1.00  0.00    -0.268 OA
HETATM   22  C   UNL     1      27.718  41.596  50.200  1.00  0.00     0.101 A 
HETATM   23  C   UNL     1      23.568  42.492  48.275  1.00  0.00     0.071 A 
ENDBRANCH   1  13
TORSDOF 4
ENDMDL
