MODEL 1
REMARK VINA RESULT:      -8.2      0.000      0.000
REMARK  3 active torsions:
REMARK  status: ('A' for Active; 'I' for Inactive)
REMARK    1  A    between atoms: C_2  and  C_3 
REMARK    2  A    between atoms: C_18  and  C_19 
REMARK    3  A    between atoms: C_22  and  O_23 
ROOT
HETATM    1  C   UNL     1      20.499  45.792  48.817  1.00  0.00     0.060 C 
HETATM    2  C   UNL     1      19.688  47.057  48.400  1.00  0.00     0.210 C 
HETATM    3  N   UNL     1      18.689  47.157  49.481  1.00  0.00     0.110 N 
HETATM    4  C   UNL     1      17.437  47.830  49.156  1.00  0.00     0.374 C 
HETATM    5  C   UNL     1      17.491  49.218  48.552  1.00  0.00     0.250 C 
HETATM    6  O   UNL     1      16.425  49.811  48.324  1.00  0.00    -0.271 OA
HETATM    7  N   UNL     1      18.621  49.918  48.304  1.00  0.00    -0.325 N 
HETATM    8  C   UNL     1      19.986  49.619  48.359  1.00  0.00     0.044 A 
HETATM    9  C   UNL     1      20.550  48.336  48.442  1.00  0.00     0.012 A 
HETATM   10  C   UNL     1      20.824  50.747  48.290  1.00  0.00     0.031 A 
HETATM   11  C   UNL     1      22.210  50.634  48.375  1.00  0.00     0.014 A 
HETATM   12  C   UNL     1      22.812  49.386  48.519  1.00  0.00    -0.025 A 
HETATM   13  C   UNL     1      21.968  48.258  48.527  1.00  0.00     0.024 A 
HETATM   14  H   UNL     1      19.122  47.612  50.284  1.00  0.00     0.318 HD
HETATM   15  H   UNL     1      18.378  50.865  48.034  1.00  0.00     0.169 HD
ENDROOT
BRANCH  12  16
HETATM   16  C   UNL     1      24.274  49.258  48.679  1.00  0.00    -0.026 A 
HETATM   17  C   UNL     1      24.822  48.252  49.499  1.00  0.00     0.015 A 
HETATM   18  C   UNL     1      26.205  48.110  49.653  1.00  0.00     0.037 A 
HETATM   19  C   UNL     1      27.057  48.976  48.982  1.00  0.00     0.065 A 
HETATM   20  C   UNL     1      26.549  49.977  48.166  1.00  0.00     0.037 A 
HETATM   21  C   UNL     1      25.165  50.118  48.017  1.00  0.00     0.015 A 
BRANCH  19  22
HETATM   22  O   UNL     1      28.411  48.874  49.098  1.00  0.00    -0.361 OA
HETATM   23  H   UNL     1      28.789  49.768  49.127  1.00  0.00     0.217 HD
ENDBRANCH  19  22
ENDBRANCH  12  16
BRANCH   2  24
HETATM   24  C   UNL     1      19.100  46.724  47.003  1.00  0.00    -0.016 A 
HETATM   25  C   UNL     1      19.431  47.458  45.848  1.00  0.00     0.010 A 
HETATM   26  C   UNL     1      18.882  47.138  44.601  1.00  0.00     0.001 A 
HETATM   27  C   UNL     1      18.002  46.068  44.474  1.00  0.00     0.000 A 
HETATM   28  C   UNL     1      17.678  45.307  45.592  1.00  0.00     0.001 A 
HETATM   29  C   UNL     1      18.229  45.625  46.836  1.00  0.00     0.010 A 
ENDBRANCH   2  24
TORSDOF 3
ENDMDL
MODEL 2
REMARK VINA RESULT:      -8.0      4.050      7.715
REMARK  3 active torsions:
REMARK  status: ('A' for Active; 'I' for Inactive)
REMARK    1  A    between atoms: C_2  and  C_3 
REMARK    2  A    between atoms: C_18  and  C_19 
REMARK    3  A    between atoms: C_22  and  O_23 
ROOT
HETATM    1  C   UNL     1      18.628  52.341  48.192  1.00  0.00     0.060 C 
HETATM    2  C   UNL     1      19.018  50.841  48.016  1.00  0.00     0.210 C 
HETATM    3  N   UNL     1      18.109  50.169  48.964  1.00  0.00     0.110 N 
HETATM    4  C   UNL     1      18.550  48.886  49.497  1.00  0.00     0.374 C 
HETATM    5  C   UNL     1      18.969  47.799  48.529  1.00  0.00     0.250 C 
HETATM    6  O   UNL     1      19.295  46.691  48.982  1.00  0.00    -0.271 OA
HETATM    7  N   UNL     1      18.946  47.904  47.181  1.00  0.00    -0.325 N 
HETATM    8  C   UNL     1      18.707  48.952  46.287  1.00  0.00     0.044 A 
HETATM    9  C   UNL     1      18.685  50.320  46.602  1.00  0.00     0.012 A 
HETATM   10  C   UNL     1      18.505  48.539  44.958  1.00  0.00     0.031 A 
HETATM   11  C   UNL     1      18.212  49.450  43.946  1.00  0.00     0.014 A 
HETATM   12  C   UNL     1      18.120  50.812  44.223  1.00  0.00    -0.025 A 
HETATM   13  C   UNL     1      18.383  51.223  45.545  1.00  0.00     0.024 A 
HETATM   14  H   UNL     1      17.198  50.058  48.519  1.00  0.00     0.318 HD
HETATM   15  H   UNL     1      19.138  46.997  46.770  1.00  0.00     0.169 HD
ENDROOT
BRANCH  12  16
HETATM   16  C   UNL     1      17.742  51.780  43.174  1.00  0.00    -0.026 A 
HETATM   17  C   UNL     1      16.963  52.911  43.488  1.00  0.00     0.015 A 
HETATM   18  C   UNL     1      16.605  53.844  42.509  1.00  0.00     0.037 A 
HETATM   19  C   UNL     1      17.028  53.654  41.201  1.00  0.00     0.065 A 
HETATM   20  C   UNL     1      17.798  52.551  40.859  1.00  0.00     0.037 A 
HETATM   21  C   UNL     1      18.151  51.619  41.840  1.00  0.00     0.015 A 
BRANCH  19  22
HETATM   22  O   UNL     1      16.707  54.537  40.214  1.00  0.00    -0.361 OA
HETATM   23  H   UNL     1      16.662  54.058  39.370  1.00  0.00     0.217 HD
ENDBRANCH  19  22
ENDBRANCH  12  16
BRANCH   2  24
HETATM   24  C   UNL     1      20.521  50.763  48.394  1.00  0.00    -0.016 A 
HETATM   25  C   UNL     1      20.989  51.018  49.695  1.00  0.00     0.010 A 
HETATM   26  C   UNL     1      22.352  50.943  50.007  1.00  0.00     0.001 A 
HETATM   27  C   UNL     1      23.278  50.597  49.028  1.00  0.00     0.000 A 
HETATM   28  C   UNL     1      22.843  50.312  47.738  1.00  0.00     0.001 A 
HETATM   29  C   UNL     1      21.482  50.383  47.430  1.00  0.00     0.010 A 
ENDBRANCH   2  24
TORSDOF 3
ENDMDL
MODEL 3
REMARK VINA RESULT:      -8.0      1.520      1.896
REMARK  3 active torsions:
REMARK  status: ('A' for Active; 'I' for Inactive)
REMARK    1  A    between atoms: C_2  and  C_3 
REMARK    2  A    between atoms: C_18  and  C_19 
REMARK    3  A    between atoms: C_22  and  O_23 
ROOT
HETATM    1  C   UNL     1      19.851  46.999  46.853  1.00  0.00     0.060 C 
HETATM    2  C   UNL     1      19.166  48.338  47.266  1.00  0.00     0.210 C 
HETATM    3  N   UNL     1      18.125  47.879  48.205  1.00  0.00     0.110 N 
HETATM    4  C   UNL     1      16.949  48.730  48.346  1.00  0.00     0.374 C 
HETATM    5  C   UNL     1      17.145  50.196  48.674  1.00  0.00     0.250 C 
HETATM    6  O   UNL     1      16.143  50.907  48.846  1.00  0.00    -0.271 OA
HETATM    7  N   UNL     1      18.339  50.797  48.879  1.00  0.00    -0.325 N 
HETATM    8  C   UNL     1      19.671  50.395  48.739  1.00  0.00     0.044 A 
HETATM    9  C   UNL     1      20.125  49.260  48.047  1.00  0.00     0.012 A 
HETATM   10  C   UNL     1      20.599  51.263  49.341  1.00  0.00     0.031 A 
HETATM   11  C   UNL     1      21.966  50.991  49.334  1.00  0.00     0.014 A 
HETATM   12  C   UNL     1      22.457  49.845  48.713  1.00  0.00    -0.025 A 
HETATM   13  C   UNL     1      21.526  49.013  48.060  1.00  0.00     0.024 A 
HETATM   14  H   UNL     1      18.552  47.733  49.119  1.00  0.00     0.318 HD
HETATM   15  H   UNL     1      18.187  51.740  49.219  1.00  0.00     0.169 HD
ENDROOT
BRANCH  12  16
HETATM   16  C   UNL     1      23.894  49.510  48.757  1.00  0.00    -0.026 A 
HETATM   17  C   UNL     1      24.356  48.431  49.536  1.00  0.00     0.015 A 
HETATM   18  C   UNL     1      25.713  48.093  49.582  1.00  0.00     0.037 A 
HETATM   19  C   UNL     1      26.624  48.833  48.841  1.00  0.00     0.065 A 
HETATM   20  C   UNL     1      26.201  49.901  48.062  1.00  0.00     0.037 A 
HETATM   21  C   UNL     1      24.844  50.238  48.022  1.00  0.00     0.015 A 
BRANCH  19  22
HETATM   22  O   UNL     1      27.954  48.539  48.851  1.00  0.00    -0.361 OA
HETATM   23  H   UNL     1      28.285  48.565  47.938  1.00  0.00     0.217 HD
ENDBRANCH  19  22
ENDBRANCH  12  16
BRANCH   2  24
HETATM   24  C   UNL     1      18.625  48.945  45.944  1.00  0.00    -0.016 A 
HETATM   25  C   UNL     1      18.886  50.273  45.558  1.00  0.00     0.010 A 
HETATM   26  C   UNL     1      18.381  50.796  44.362  1.00  0.00     0.001 A 
HETATM   27  C   UNL     1      17.617  50.000  43.515  1.00  0.00     0.000 A 
HETATM   28  C   UNL     1      17.366  48.676  43.855  1.00  0.00     0.001 A 
HETATM   29  C   UNL     1      17.873  48.154  45.048  1.00  0.00     0.010 A 
ENDBRANCH   2  24
TORSDOF 3
ENDMDL
MODEL 4
REMARK VINA RESULT:      -7.8      2.775      3.615
REMARK  3 active torsions:
REMARK  status: ('A' for Active; 'I' for Inactive)
REMARK    1  A    between atoms: C_2  and  C_3 
REMARK    2  A    between atoms: C_18  and  C_19 
REMARK    3  A    between atoms: C_22  and  O_23 
ROOT
HETATM    1  C   UNL     1      18.055  48.078  45.951  1.00  0.00     0.060 C 
HETATM    2  C   UNL     1      17.570  49.546  46.155  1.00  0.00     0.210 C 
HETATM    3  N   UNL     1      16.327  49.360  46.928  1.00  0.00     0.110 N 
HETATM    4  C   UNL     1      15.320  50.408  46.811  1.00  0.00     0.374 C 
HETATM    5  C   UNL     1      15.726  51.843  47.074  1.00  0.00     0.250 C 
HETATM    6  O   UNL     1      14.856  52.726  47.025  1.00  0.00    -0.271 OA
HETATM    7  N   UNL     1      16.962  52.249  47.443  1.00  0.00    -0.325 N 
HETATM    8  C   UNL     1      18.203  51.616  47.559  1.00  0.00     0.044 A 
HETATM    9  C   UNL     1      18.546  50.362  47.029  1.00  0.00     0.012 A 
HETATM   10  C   UNL     1      19.167  52.366  48.256  1.00  0.00     0.031 A 
HETATM   11  C   UNL     1      20.445  51.867  48.501  1.00  0.00     0.014 A 
HETATM   12  C   UNL     1      20.810  50.602  48.047  1.00  0.00    -0.025 A 
HETATM   13  C   UNL     1      19.858  49.883  47.298  1.00  0.00     0.024 A 
HETATM   14  H   UNL     1      16.570  49.230  47.909  1.00  0.00     0.318 HD
HETATM   15  H   UNL     1      16.933  53.232  47.691  1.00  0.00     0.169 HD
ENDROOT
BRANCH  12  16
HETATM   16  C   UNL     1      22.137  50.033  48.359  1.00  0.00    -0.026 A 
HETATM   17  C   UNL     1      22.254  48.881  49.161  1.00  0.00     0.015 A 
HETATM   18  C   UNL     1      23.502  48.324  49.458  1.00  0.00     0.037 A 
HETATM   19  C   UNL     1      24.650  48.915  48.950  1.00  0.00     0.065 A 
HETATM   20  C   UNL     1      24.568  50.050  48.155  1.00  0.00     0.037 A 
HETATM   21  C   UNL     1      23.319  50.607  47.864  1.00  0.00     0.015 A 
BRANCH  19  22
HETATM   22  O   UNL     1      25.887  48.405  49.209  1.00  0.00    -0.361 OA
HETATM   23  H   UNL     1      25.884  48.020  50.101  1.00  0.00     0.217 HD
ENDBRANCH  19  22
ENDBRANCH  12  16
BRANCH   2  24
HETATM   24  C   UNL     1      17.364  50.111  44.723  1.00  0.00    -0.016 A 
HETATM   25  C   UNL     1      18.092  51.211  44.232  1.00  0.00     0.010 A 
HETATM   26  C   UNL     1      17.883  51.702  42.938  1.00  0.00     0.001 A 
HETATM   27  C   UNL     1      16.953  51.097  42.099  1.00  0.00     0.000 A 
HETATM   28  C   UNL     1      16.239  49.991  42.547  1.00  0.00     0.001 A 
HETATM   29  C   UNL     1      16.451  49.499  43.837  1.00  0.00     0.010 A 
ENDBRANCH   2  24
TORSDOF 3
ENDMDL
MODEL 5
REMARK VINA RESULT:      -7.8     11.570     14.152
REMARK  3 active torsions:
REMARK  status: ('A' for Active; 'I' for Inactive)
REMARK    1  A    between atoms: C_2  and  C_3 
REMARK    2  A    between atoms: C_18  and  C_19 
REMARK    3  A    between atoms: C_22  and  O_23 
ROOT
HETATM    1  C   UNL     1      33.089  50.985  38.668  1.00  0.00     0.060 C 
HETATM    2  C   UNL     1      31.977  50.746  39.735  1.00  0.00     0.210 C 
HETATM    3  N   UNL     1      31.647  49.323  39.529  1.00  0.00     0.110 N 
HETATM    4  C   UNL     1      30.305  48.899  39.913  1.00  0.00     0.374 C 
HETATM    5  C   UNL     1      29.816  49.209  41.313  1.00  0.00     0.250 C 
HETATM    6  O   UNL     1      28.695  48.802  41.656  1.00  0.00    -0.271 OA
HETATM    7  N   UNL     1      30.537  49.835  42.271  1.00  0.00    -0.325 N 
HETATM    8  C   UNL     1      31.777  50.482  42.293  1.00  0.00     0.044 A 
HETATM    9  C   UNL     1      32.515  50.896  41.174  1.00  0.00     0.012 A 
HETATM   10  C   UNL     1      32.264  50.742  43.587  1.00  0.00     0.031 A 
HETATM   11  C   UNL     1      33.505  51.341  43.793  1.00  0.00     0.014 A 
HETATM   12  C   UNL     1      34.301  51.714  42.711  1.00  0.00    -0.025 A 
HETATM   13  C   UNL     1      33.777  51.504  41.421  1.00  0.00     0.024 A 
HETATM   14  H   UNL     1      32.337  48.753  40.017  1.00  0.00     0.318 HD
HETATM   15  H   UNL     1      30.035  49.792  43.151  1.00  0.00     0.169 HD
ENDROOT
BRANCH  12  16
HETATM   16  C   UNL     1      35.646  52.286  42.916  1.00  0.00    -0.026 A 
HETATM   17  C   UNL     1      36.535  52.437  41.833  1.00  0.00     0.015 A 
HETATM   18  C   UNL     1      37.809  52.987  42.007  1.00  0.00     0.037 A 
HETATM   19  C   UNL     1      38.207  53.396  43.272  1.00  0.00     0.065 A 
HETATM   20  C   UNL     1      37.354  53.262  44.360  1.00  0.00     0.037 A 
HETATM   21  C   UNL     1      36.083  52.708  44.182  1.00  0.00     0.015 A 
BRANCH  19  22
HETATM   22  O   UNL     1      39.436  53.941  43.489  1.00  0.00    -0.361 OA
HETATM   23  H   UNL     1      39.719  54.402  42.682  1.00  0.00     0.217 HD
ENDBRANCH  19  22
ENDBRANCH  12  16
BRANCH   2  24
HETATM   24  C   UNL     1      30.838  51.735  39.368  1.00  0.00    -0.016 A 
HETATM   25  C   UNL     1      30.397  52.741  40.248  1.00  0.00     0.010 A 
HETATM   26  C   UNL     1      29.365  53.617  39.893  1.00  0.00     0.001 A 
HETATM   27  C   UNL     1      28.760  53.520  38.644  1.00  0.00     0.000 A 
HETATM   28  C   UNL     1      29.194  52.554  37.742  1.00  0.00     0.001 A 
HETATM   29  C   UNL     1      30.227  51.682  38.096  1.00  0.00     0.010 A 
ENDBRANCH   2  24
TORSDOF 3
ENDMDL
MODEL 6
REMARK VINA RESULT:      -7.7     11.609     14.280
REMARK  3 active torsions:
REMARK  status: ('A' for Active; 'I' for Inactive)
REMARK    1  A    between atoms: C_2  and  C_3 
REMARK    2  A    between atoms: C_18  and  C_19 
REMARK    3  A    between atoms: C_22  and  O_23 
ROOT
HETATM    1  C   UNL     1      31.020  51.019  42.764  1.00  0.00     0.060 C 
HETATM    2  C   UNL     1      31.209  50.915  41.219  1.00  0.00     0.210 C 
HETATM    3  N   UNL     1      30.380  52.031  40.727  1.00  0.00     0.110 N 
HETATM    4  C   UNL     1      29.851  51.908  39.374  1.00  0.00     0.374 C 
HETATM    5  C   UNL     1      30.811  51.612  38.240  1.00  0.00     0.250 C 
HETATM    6  O   UNL     1      30.367  51.559  37.083  1.00  0.00    -0.271 OA
HETATM    7  N   UNL     1      32.150  51.474  38.367  1.00  0.00    -0.325 N 
HETATM    8  C   UNL     1      33.026  51.409  39.456  1.00  0.00     0.044 A 
HETATM    9  C   UNL     1      32.667  51.194  40.796  1.00  0.00     0.012 A 
HETATM   10  C   UNL     1      34.381  51.549  39.110  1.00  0.00     0.031 A 
HETATM   11  C   UNL     1      35.386  51.551  40.076  1.00  0.00     0.014 A 
HETATM   12  C   UNL     1      35.071  51.402  41.425  1.00  0.00    -0.025 A 
HETATM   13  C   UNL     1      33.716  51.203  41.756  1.00  0.00     0.024 A 
HETATM   14  H   UNL     1      30.916  52.895  40.806  1.00  0.00     0.318 HD
HETATM   15  H   UNL     1      32.572  51.422  37.446  1.00  0.00     0.169 HD
ENDROOT
BRANCH  12  16
HETATM   16  C   UNL     1      36.117  51.472  42.464  1.00  0.00    -0.026 A 
HETATM   17  C   UNL     1      37.239  50.622  42.412  1.00  0.00     0.015 A 
HETATM   18  C   UNL     1      38.245  50.682  43.382  1.00  0.00     0.037 A 
HETATM   19  C   UNL     1      38.139  51.601  44.417  1.00  0.00     0.065 A 
HETATM   20  C   UNL     1      37.047  52.455  44.496  1.00  0.00     0.037 A 
HETATM   21  C   UNL     1      36.042  52.389  43.526  1.00  0.00     0.015 A 
BRANCH  19  22
HETATM   22  O   UNL     1      39.096  51.699  45.382  1.00  0.00    -0.361 OA
HETATM   23  H   UNL     1      39.870  51.181  45.105  1.00  0.00     0.217 HD
ENDBRANCH  19  22
ENDBRANCH  12  16
BRANCH   2  24
HETATM   24  C   UNL     1      30.688  49.503  40.838  1.00  0.00    -0.016 A 
HETATM   25  C   UNL     1      31.499  48.542  40.207  1.00  0.00     0.010 A 
HETATM   26  C   UNL     1      31.002  47.278  39.870  1.00  0.00     0.001 A 
HETATM   27  C   UNL     1      29.686  46.938  40.170  1.00  0.00     0.000 A 
HETATM   28  C   UNL     1      28.869  47.857  40.819  1.00  0.00     0.001 A 
HETATM   29  C   UNL     1      29.367  49.117  41.158  1.00  0.00     0.010 A 
ENDBRANCH   2  24
TORSDOF 3
ENDMDL
MODEL 7
REMARK VINA RESULT:      -7.7      3.534      8.010
REMARK  3 active torsions:
REMARK  status: ('A' for Active; 'I' for Inactive)
REMARK    1  A    between atoms: C_2  and  C_3 
REMARK    2  A    between atoms: C_18  and  C_19 
REMARK    3  A    between atoms: C_22  and  O_23 
ROOT
HETATM    1  C   UNL     1      18.643  49.329  50.702  1.00  0.00     0.060 C 
HETATM    2  C   UNL     1      18.898  49.187  49.170  1.00  0.00     0.210 C 
HETATM    3  N   UNL     1      18.625  47.756  48.939  1.00  0.00     0.110 N 
HETATM    4  C   UNL     1      19.293  47.138  47.799  1.00  0.00     0.374 C 
HETATM    5  C   UNL     1      19.154  47.782  46.435  1.00  0.00     0.250 C 
HETATM    6  O   UNL     1      19.679  47.226  45.458  1.00  0.00    -0.271 OA
HETATM    7  N   UNL     1      18.428  48.890  46.166  1.00  0.00    -0.325 N 
HETATM    8  C   UNL     1      17.746  49.825  46.951  1.00  0.00     0.044 A 
HETATM    9  C   UNL     1      17.879  49.996  48.338  1.00  0.00     0.012 A 
HETATM   10  C   UNL     1      16.883  50.665  46.224  1.00  0.00     0.031 A 
HETATM   11  C   UNL     1      16.094  51.625  46.855  1.00  0.00     0.014 A 
HETATM   12  C   UNL     1      16.148  51.789  48.238  1.00  0.00    -0.025 A 
HETATM   13  C   UNL     1      17.060  50.985  48.950  1.00  0.00     0.024 A 
HETATM   14  H   UNL     1      17.618  47.625  48.855  1.00  0.00     0.318 HD
HETATM   15  H   UNL     1      18.385  49.029  45.162  1.00  0.00     0.169 HD
ENDROOT
BRANCH  12  16
HETATM   16  C   UNL     1      15.268  52.754  48.926  1.00  0.00    -0.026 A 
HETATM   17  C   UNL     1      14.523  53.697  48.191  1.00  0.00     0.015 A 
HETATM   18  C   UNL     1      13.676  54.612  48.826  1.00  0.00     0.037 A 
HETATM   19  C   UNL     1      13.563  54.588  50.209  1.00  0.00     0.065 A 
HETATM   20  C   UNL     1      14.282  53.670  50.962  1.00  0.00     0.037 A 
HETATM   21  C   UNL     1      15.131  52.760  50.324  1.00  0.00     0.015 A 
BRANCH  19  22
HETATM   22  O   UNL     1      12.748  55.456  50.871  1.00  0.00    -0.361 OA
HETATM   23  H   UNL     1      12.088  54.946  51.368  1.00  0.00     0.217 HD
ENDBRANCH  19  22
ENDBRANCH  12  16
BRANCH   2  24
HETATM   24  C   UNL     1      20.377  49.608  48.961  1.00  0.00    -0.016 A 
HETATM   25  C   UNL     1      20.746  50.909  48.573  1.00  0.00     0.010 A 
HETATM   26  C   UNL     1      22.089  51.260  48.388  1.00  0.00     0.001 A 
HETATM   27  C   UNL     1      23.095  50.323  48.600  1.00  0.00     0.000 A 
HETATM   28  C   UNL     1      22.763  49.037  49.010  1.00  0.00     0.001 A 
HETATM   29  C   UNL     1      21.423  48.689  49.199  1.00  0.00     0.010 A 
ENDBRANCH   2  24
TORSDOF 3
ENDMDL
MODEL 8
REMARK VINA RESULT:      -7.7     10.892     13.260
REMARK  3 active torsions:
REMARK  status: ('A' for Active; 'I' for Inactive)
REMARK    1  A    between atoms: C_2  and  C_3 
REMARK    2  A    between atoms: C_18  and  C_19 
REMARK    3  A    between atoms: C_22  and  O_23 
ROOT
HETATM    1  C   UNL     1      30.287  49.000  42.338  1.00  0.00     0.060 C 
HETATM    2  C   UNL     1      29.814  49.410  40.910  1.00  0.00     0.210 C 
HETATM    3  N   UNL     1      28.715  50.350  41.203  1.00  0.00     0.110 N 
HETATM    4  C   UNL     1      27.683  50.489  40.183  1.00  0.00     0.374 C 
HETATM    5  C   UNL     1      28.100  50.815  38.763  1.00  0.00     0.250 C 
HETATM    6  O   UNL     1      27.218  50.984  37.908  1.00  0.00    -0.271 OA
HETATM    7  N   UNL     1      29.371  51.018  38.351  1.00  0.00    -0.325 N 
HETATM    8  C   UNL     1      30.627  50.879  38.951  1.00  0.00     0.044 A 
HETATM    9  C   UNL     1      30.903  50.190  40.143  1.00  0.00     0.012 A 
HETATM   10  C   UNL     1      31.676  51.480  38.233  1.00  0.00     0.031 A 
HETATM   11  C   UNL     1      32.985  51.474  38.710  1.00  0.00     0.014 A 
HETATM   12  C   UNL     1      33.296  50.855  39.919  1.00  0.00    -0.025 A 
HETATM   13  C   UNL     1      32.250  50.204  40.600  1.00  0.00     0.024 A 
HETATM   14  H   UNL     1      29.115  51.265  41.410  1.00  0.00     0.318 HD
HETATM   15  H   UNL     1      29.365  51.357  37.395  1.00  0.00     0.169 HD
ENDROOT
BRANCH  12  16
HETATM   16  C   UNL     1      34.666  50.900  40.469  1.00  0.00    -0.026 A 
HETATM   17  C   UNL     1      34.913  50.550  41.810  1.00  0.00     0.015 A 
HETATM   18  C   UNL     1      36.206  50.577  42.344  1.00  0.00     0.037 A 
HETATM   19  C   UNL     1      37.269  50.954  41.536  1.00  0.00     0.065 A 
HETATM   20  C   UNL     1      37.059  51.304  40.209  1.00  0.00     0.037 A 
HETATM   21  C   UNL     1      35.764  51.279  39.680  1.00  0.00     0.015 A 
BRANCH  19  22
HETATM   22  O   UNL     1      38.545  50.992  42.010  1.00  0.00    -0.361 OA
HETATM   23  H   UNL     1      38.518  51.200  42.959  1.00  0.00     0.217 HD
ENDBRANCH  19  22
ENDBRANCH  12  16
BRANCH   2  24
HETATM   24  C   UNL     1      29.372  48.087  40.230  1.00  0.00    -0.016 A 
HETATM   25  C   UNL     1      29.947  47.622  39.034  1.00  0.00     0.010 A 
HETATM   26  C   UNL     1      29.526  46.426  38.440  1.00  0.00     0.001 A 
HETATM   27  C   UNL     1      28.530  45.659  39.036  1.00  0.00     0.000 A 
HETATM   28  C   UNL     1      27.962  46.079  40.233  1.00  0.00     0.001 A 
HETATM   29  C   UNL     1      28.386  47.270  40.827  1.00  0.00     0.010 A 
ENDBRANCH   2  24
TORSDOF 3
ENDMDL
MODEL 9
REMARK VINA RESULT:      -7.4      9.819     12.854
REMARK  3 active torsions:
REMARK  status: ('A' for Active; 'I' for Inactive)
REMARK    1  A    between atoms: C_2  and  C_3 
REMARK    2  A    between atoms: C_18  and  C_19 
REMARK    3  A    between atoms: C_22  and  O_23 
ROOT
HETATM    1  C   UNL     1      31.104  49.484  38.740  1.00  0.00     0.060 C 
HETATM    2  C   UNL     1      30.069  50.014  39.779  1.00  0.00     0.210 C 
HETATM    3  N   UNL     1      29.420  51.114  39.041  1.00  0.00     0.110 N 
HETATM    4  C   UNL     1      28.835  52.185  39.841  1.00  0.00     0.374 C 
HETATM    5  C   UNL     1      27.853  51.824  40.936  1.00  0.00     0.250 C 
HETATM    6  O   UNL     1      27.317  52.739  41.580  1.00  0.00    -0.271 OA
HETATM    7  N   UNL     1      27.438  50.571  41.230  1.00  0.00    -0.325 N 
HETATM    8  C   UNL     1      27.813  49.293  40.803  1.00  0.00     0.044 A 
HETATM    9  C   UNL     1      28.984  48.965  40.101  1.00  0.00     0.012 A 
HETATM   10  C   UNL     1      26.910  48.279  41.167  1.00  0.00     0.031 A 
HETATM   11  C   UNL     1      27.107  46.953  40.786  1.00  0.00     0.014 A 
HETATM   12  C   UNL     1      28.224  46.590  40.036  1.00  0.00    -0.025 A 
HETATM   13  C   UNL     1      29.153  47.602  39.728  1.00  0.00     0.024 A 
HETATM   14  H   UNL     1      28.708  50.720  38.427  1.00  0.00     0.318 HD
HETATM   15  H   UNL     1      26.681  50.617  41.903  1.00  0.00     0.169 HD
ENDROOT
BRANCH  12  16
HETATM   16  C   UNL     1      28.409  45.202  39.567  1.00  0.00    -0.026 A 
HETATM   17  C   UNL     1      29.277  44.916  38.495  1.00  0.00     0.015 A 
HETATM   18  C   UNL     1      29.473  43.606  38.045  1.00  0.00     0.037 A 
HETATM   19  C   UNL     1      28.801  42.564  38.669  1.00  0.00     0.065 A 
HETATM   20  C   UNL     1      27.940  42.813  39.730  1.00  0.00     0.037 A 
HETATM   21  C   UNL     1      27.744  44.124  40.174  1.00  0.00     0.015 A 
BRANCH  19  22
HETATM   22  O   UNL     1      28.963  41.273  38.269  1.00  0.00    -0.361 OA
HETATM   23  H   UNL     1      28.477  41.142  37.438  1.00  0.00     0.217 HD
ENDBRANCH  19  22
ENDBRANCH  12  16
BRANCH   2  24
HETATM   24  C   UNL     1      30.912  50.463  41.003  1.00  0.00    -0.016 A 
HETATM   25  C   UNL     1      31.562  51.710  41.058  1.00  0.00     0.010 A 
HETATM   26  C   UNL     1      32.319  52.087  42.173  1.00  0.00     0.001 A 
HETATM   27  C   UNL     1      32.432  51.234  43.267  1.00  0.00     0.000 A 
HETATM   28  C   UNL     1      31.777  50.008  43.253  1.00  0.00     0.001 A 
HETATM   29  C   UNL     1      31.018  49.633  42.141  1.00  0.00     0.010 A 
ENDBRANCH   2  24
TORSDOF 3
ENDMDL
MODEL 10
REMARK VINA RESULT:      -7.3     23.585     26.574
REMARK  3 active torsions:
REMARK  status: ('A' for Active; 'I' for Inactive)
REMARK    1  A    between atoms: C_2  and  C_3 
REMARK    2  A    between atoms: C_18  and  C_19 
REMARK    3  A    between atoms: C_22  and  O_23 
ROOT
HETATM    1  C   UNL     1      40.016  42.442  67.056  1.00  0.00     0.060 C 
HETATM    2  C   UNL     1      39.422  42.619  65.625  1.00  0.00     0.210 C 
HETATM    3  N   UNL     1      40.255  43.705  65.074  1.00  0.00     0.110 N 
HETATM    4  C   UNL     1      39.656  44.521  64.023  1.00  0.00     0.374 C 
HETATM    5  C   UNL     1      39.071  43.830  62.809  1.00  0.00     0.250 C 
HETATM    6  O   UNL     1      38.609  44.527  61.892  1.00  0.00    -0.271 OA
HETATM    7  N   UNL     1      39.075  42.496  62.592  1.00  0.00    -0.325 N 
HETATM    8  C   UNL     1      39.433  41.383  63.361  1.00  0.00     0.044 A 
HETATM    9  C   UNL     1      39.646  41.369  64.748  1.00  0.00     0.012 A 
HETATM   10  C   UNL     1      39.544  40.190  62.625  1.00  0.00     0.031 A 
HETATM   11  C   UNL     1      39.934  38.994  63.226  1.00  0.00     0.014 A 
HETATM   12  C   UNL     1      40.216  38.946  64.590  1.00  0.00    -0.025 A 
HETATM   13  C   UNL     1      40.043  40.132  65.329  1.00  0.00     0.024 A 
HETATM   14  H   UNL     1      41.131  43.307  64.738  1.00  0.00     0.318 HD
HETATM   15  H   UNL     1      38.752  42.306  61.649  1.00  0.00     0.169 HD
ENDROOT
BRANCH  12  16
HETATM   16  C   UNL     1      40.696  37.703  65.225  1.00  0.00    -0.026 A 
HETATM   17  C   UNL     1      39.957  37.091  66.256  1.00  0.00     0.015 A 
HETATM   18  C   UNL     1      40.391  35.908  66.862  1.00  0.00     0.037 A 
HETATM   19  C   UNL     1      41.574  35.320  66.437  1.00  0.00     0.065 A 
HETATM   20  C   UNL     1      42.325  35.896  65.421  1.00  0.00     0.037 A 
HETATM   21  C   UNL     1      41.889  37.082  64.821  1.00  0.00     0.015 A 
BRANCH  19  22
HETATM   22  O   UNL     1      42.035  34.165  66.994  1.00  0.00    -0.361 OA
HETATM   23  H   UNL     1      42.909  33.966  66.618  1.00  0.00     0.217 HD
ENDBRANCH  19  22
ENDBRANCH  12  16
BRANCH   2  24
HETATM   24  C   UNL     1      37.931  42.992  65.843  1.00  0.00    -0.016 A 
HETATM   25  C   UNL     1      36.877  42.269  65.257  1.00  0.00     0.010 A 
HETATM   26  C   UNL     1      35.541  42.630  65.468  1.00  0.00     0.001 A 
HETATM   27  C   UNL     1      35.226  43.713  66.283  1.00  0.00     0.000 A 
HETATM   28  C   UNL     1      36.246  44.430  66.898  1.00  0.00     0.001 A 
HETATM   29  C   UNL     1      37.579  44.066  66.690  1.00  0.00     0.010 A 
ENDBRANCH   2  24
TORSDOF 3
ENDMDL
