MODEL 1
REMARK VINA RESULT:      -8.9      0.000      0.000
REMARK  6 active torsions:
REMARK  status: ('A' for Active; 'I' for Inactive)
REMARK    1  A    between atoms: C_2  and  C_3 
REMARK       I    between atoms: C_3  and  N_4 
REMARK    2  A    between atoms: N_4  and  C_5 
REMARK    3  A    between atoms: C_5  and  C_6 
REMARK    4  A    between atoms: N_8  and  C_10 
REMARK    5  A    between atoms: C_10  and  C_11 
REMARK    6  A    between atoms: C_12  and  C_13 
ROOT
HETATM    1  C   UNL     1      25.323  45.555  49.561  1.00  0.00     0.029 C 
HETATM    2  C   UNL     1      26.328  45.349  50.699  1.00  0.00     0.241 C 
HETATM    3  N   UNL     1      25.705  44.660  51.890  1.00  0.00    -0.067 N 
HETATM    4  H   UNL     1      24.993  45.322  52.264  1.00  0.00     0.280 HD
HETATM    5  C   UNL     1      25.065  43.348  51.536  1.00  0.00     0.235 C 
HETATM    6  C   UNL     1      24.118  43.471  50.349  1.00  0.00     0.028 C 
HETATM    7  C   UNL     1      24.748  44.189  49.159  1.00  0.00     0.009 C 
ENDROOT
BRANCH   3   8
HETATM    8  C   UNL     1      26.725  44.555  53.018  1.00  0.00     0.277 C 
BRANCH   8   9
HETATM    9  C   UNL     1      26.887  45.754  53.887  1.00  0.00     0.016 A 
HETATM   10  C   UNL     1      27.877  46.016  54.891  1.00  0.00     0.096 A 
HETATM   11  N   UNL     1      27.704  47.234  55.421  1.00  0.00    -0.174 NA
HETATM   12  N   UNL     1      26.583  47.703  54.873  1.00  0.00    -0.288 N 
HETATM   13  H   UNL     1      26.240  48.609  55.181  1.00  0.00     0.188 HD
HETATM   14  C   UNL     1      26.048  46.856  53.950  1.00  0.00     0.120 A 
BRANCH  10  15
HETATM   15  C   UNL     1      28.961  45.170  55.386  1.00  0.00    -0.003 A 
HETATM   16  C   UNL     1      29.623  45.476  56.581  1.00  0.00     0.037 A 
HETATM   17  C   UNL     1      30.695  44.689  57.005  1.00  0.00     0.035 A 
HETATM   18 CL   UNL     1      31.477  45.062  58.492  1.00  0.00    -0.084 Cl
HETATM   19  C   UNL     1      31.132  43.608  56.244  1.00  0.00     0.024 A 
HETATM   20  C   UNL     1      30.491  43.308  55.043  1.00  0.00     0.003 A 
HETATM   21  C   UNL     1      29.411  44.086  54.616  1.00  0.00     0.014 A 
ENDBRANCH  10  15
ENDBRANCH   8   9
ENDBRANCH   3   8
BRANCH   1  22
HETATM   22  C   UNL     1      24.179  46.548  49.845  1.00  0.00     0.128 C 
BRANCH  22  23
HETATM   23  N   UNL     1      24.517  47.933  49.613  1.00  0.00    -0.360 N 
HETATM   24  C   UNL     1      23.557  48.835  49.196  1.00  0.00     0.221 C 
HETATM   25  O   UNL     1      22.359  48.553  49.239  1.00  0.00    -0.273 OA
HETATM   26  H   UNL     1      25.489  48.155  49.411  1.00  0.00     0.162 HD
BRANCH  24  27
HETATM   27  C   UNL     1      24.119  50.175  48.731  1.00  0.00     0.070 C 
HETATM   28  C   UNL     1      23.095  50.922  47.878  1.00  0.00     0.019 C 
HETATM   29  C   UNL     1      25.418  49.983  47.957  1.00  0.00     0.019 C 
ENDBRANCH  24  27
ENDBRANCH  22  23
ENDBRANCH   1  22
TORSDOF 6
ENDMDL
MODEL 2
REMARK VINA RESULT:      -8.9      1.875      2.945
REMARK  6 active torsions:
REMARK  status: ('A' for Active; 'I' for Inactive)
REMARK    1  A    between atoms: C_2  and  C_3 
REMARK       I    between atoms: C_3  and  N_4 
REMARK    2  A    between atoms: N_4  and  C_5 
REMARK    3  A    between atoms: C_5  and  C_6 
REMARK    4  A    between atoms: N_8  and  C_10 
REMARK    5  A    between atoms: C_10  and  C_11 
REMARK    6  A    between atoms: C_12  and  C_13 
ROOT
HETATM    1  C   UNL     1      25.015  45.774  49.650  1.00  0.00     0.029 C 
HETATM    2  C   UNL     1      26.409  45.162  49.823  1.00  0.00     0.241 C 
HETATM    3  N   UNL     1      26.581  44.514  51.176  1.00  0.00    -0.067 N 
HETATM    4  H   UNL     1      26.528  45.286  51.874  1.00  0.00     0.280 HD
HETATM    5  C   UNL     1      25.533  43.476  51.464  1.00  0.00     0.235 C 
HETATM    6  C   UNL     1      24.124  44.001  51.223  1.00  0.00     0.028 C 
HETATM    7  C   UNL     1      23.965  44.675  49.863  1.00  0.00     0.009 C 
ENDROOT
BRANCH   3   8
HETATM    8  C   UNL     1      28.008  43.996  51.323  1.00  0.00     0.277 C 
BRANCH   8   9
HETATM    9  C   UNL     1      28.178  42.697  52.032  1.00  0.00     0.016 A 
HETATM   10  C   UNL     1      28.683  42.445  53.350  1.00  0.00     0.096 A 
HETATM   11  N   UNL     1      28.635  41.137  53.634  1.00  0.00    -0.174 NA
HETATM   12  N   UNL     1      28.227  40.545  52.512  1.00  0.00    -0.288 N 
HETATM   13  H   UNL     1      28.169  39.530  52.497  1.00  0.00     0.188 HD
HETATM   14  C   UNL     1      27.943  41.432  51.517  1.00  0.00     0.120 A 
BRANCH  10  15
HETATM   15  C   UNL     1      29.223  43.372  54.343  1.00  0.00    -0.003 A 
HETATM   16  C   UNL     1      30.316  43.013  55.140  1.00  0.00     0.037 A 
HETATM   17  C   UNL     1      30.779  43.889  56.123  1.00  0.00     0.035 A 
HETATM   18 CL   UNL     1      32.144  43.444  57.074  1.00  0.00    -0.084 Cl
HETATM   19  C   UNL     1      30.155  45.115  56.338  1.00  0.00     0.024 A 
HETATM   20  C   UNL     1      29.054  45.471  55.561  1.00  0.00     0.003 A 
HETATM   21  C   UNL     1      28.590  44.603  54.569  1.00  0.00     0.014 A 
ENDBRANCH  10  15
ENDBRANCH   8   9
ENDBRANCH   3   8
BRANCH   1  22
HETATM   22  C   UNL     1      24.698  46.989  50.544  1.00  0.00     0.128 C 
BRANCH  22  23
HETATM   23  N   UNL     1      24.675  48.255  49.849  1.00  0.00    -0.360 N 
HETATM   24  C   UNL     1      23.650  48.566  48.977  1.00  0.00     0.221 C 
HETATM   25  O   UNL     1      22.618  47.894  48.945  1.00  0.00    -0.273 OA
HETATM   26  H   UNL     1      25.561  48.742  49.725  1.00  0.00     0.162 HD
BRANCH  24  27
HETATM   27  C   UNL     1      23.910  49.802  48.121  1.00  0.00     0.070 C 
HETATM   28  C   UNL     1      25.405  50.110  48.062  1.00  0.00     0.019 C 
HETATM   29  C   UNL     1      23.138  51.004  48.650  1.00  0.00     0.019 C 
ENDBRANCH  24  27
ENDBRANCH  22  23
ENDBRANCH   1  22
TORSDOF 6
ENDMDL
MODEL 3
REMARK VINA RESULT:      -8.9      4.032      9.089
REMARK  6 active torsions:
REMARK  status: ('A' for Active; 'I' for Inactive)
REMARK    1  A    between atoms: C_2  and  C_3 
REMARK       I    between atoms: C_3  and  N_4 
REMARK    2  A    between atoms: N_4  and  C_5 
REMARK    3  A    between atoms: C_5  and  C_6 
REMARK    4  A    between atoms: N_8  and  C_10 
REMARK    5  A    between atoms: C_10  and  C_11 
REMARK    6  A    between atoms: C_12  and  C_13 
ROOT
HETATM    1  C   UNL     1      26.229  44.922  53.466  1.00  0.00     0.029 C 
HETATM    2  C   UNL     1      25.327  45.796  52.588  1.00  0.00     0.241 C 
HETATM    3  N   UNL     1      26.037  46.275  51.344  1.00  0.00    -0.067 N 
HETATM    4  H   UNL     1      26.799  46.904  51.671  1.00  0.00     0.280 HD
HETATM    5  C   UNL     1      26.603  45.149  50.525  1.00  0.00     0.235 C 
HETATM    6  C   UNL     1      27.439  44.193  51.364  1.00  0.00     0.028 C 
HETATM    7  C   UNL     1      26.724  43.733  52.631  1.00  0.00     0.009 C 
ENDROOT
BRANCH   3   8
HETATM    8  C   UNL     1      25.122  47.203  50.552  1.00  0.00     0.277 C 
BRANCH   8   9
HETATM    9  C   UNL     1      25.784  48.175  49.638  1.00  0.00     0.016 A 
HETATM   10  C   UNL     1      25.195  49.200  48.828  1.00  0.00     0.096 A 
HETATM   11  N   UNL     1      26.139  49.894  48.179  1.00  0.00    -0.174 NA
HETATM   12  N   UNL     1      27.287  49.277  48.460  1.00  0.00    -0.288 N 
HETATM   13  H   UNL     1      28.137  49.620  48.019  1.00  0.00     0.188 HD
HETATM   14  C   UNL     1      27.133  48.238  49.326  1.00  0.00     0.120 A 
BRANCH  10  15
HETATM   15  C   UNL     1      23.789  49.544  48.622  1.00  0.00    -0.003 A 
HETATM   16  C   UNL     1      22.866  48.576  48.210  1.00  0.00     0.037 A 
HETATM   17  C   UNL     1      21.540  48.937  47.962  1.00  0.00     0.035 A 
HETATM   18 CL   UNL     1      20.412  47.728  47.485  1.00  0.00    -0.084 Cl
HETATM   19  C   UNL     1      21.123  50.258  48.099  1.00  0.00     0.024 A 
HETATM   20  C   UNL     1      22.041  51.232  48.491  1.00  0.00     0.003 A 
HETATM   21  C   UNL     1      23.367  50.876  48.750  1.00  0.00     0.014 A 
ENDBRANCH  10  15
ENDBRANCH   8   9
ENDBRANCH   3   8
BRANCH   1  22
HETATM   22  C   UNL     1      27.423  45.638  54.127  1.00  0.00     0.128 C 
BRANCH  22  23
HETATM   23  N   UNL     1      28.499  44.763  54.529  1.00  0.00    -0.360 N 
HETATM   24  C   UNL     1      29.441  45.177  55.452  1.00  0.00     0.221 C 
HETATM   25  O   UNL     1      29.263  46.190  56.130  1.00  0.00    -0.273 OA
HETATM   26  H   UNL     1      28.765  44.016  53.890  1.00  0.00     0.162 HD
BRANCH  24  27
HETATM   27  C   UNL     1      30.655  44.259  55.560  1.00  0.00     0.070 C 
HETATM   28  C   UNL     1      30.398  42.939  54.835  1.00  0.00     0.019 C 
HETATM   29  C   UNL     1      31.018  44.005  57.018  1.00  0.00     0.019 C 
ENDBRANCH  24  27
ENDBRANCH  22  23
ENDBRANCH   1  22
TORSDOF 6
ENDMDL
MODEL 4
REMARK VINA RESULT:      -8.5      2.587      4.591
REMARK  6 active torsions:
REMARK  status: ('A' for Active; 'I' for Inactive)
REMARK    1  A    between atoms: C_2  and  C_3 
REMARK       I    between atoms: C_3  and  N_4 
REMARK    2  A    between atoms: N_4  and  C_5 
REMARK    3  A    between atoms: C_5  and  C_6 
REMARK    4  A    between atoms: N_8  and  C_10 
REMARK    5  A    between atoms: C_10  and  C_11 
REMARK    6  A    between atoms: C_12  and  C_13 
ROOT
HETATM    1  C   UNL     1      24.349  45.564  50.480  1.00  0.00     0.029 C 
HETATM    2  C   UNL     1      24.714  44.601  51.614  1.00  0.00     0.241 C 
HETATM    3  N   UNL     1      26.148  44.766  52.060  1.00  0.00    -0.067 N 
HETATM    4  H   UNL     1      26.736  44.477  51.251  1.00  0.00     0.280 HD
HETATM    5  C   UNL     1      26.474  46.175  52.468  1.00  0.00     0.235 C 
HETATM    6  C   UNL     1      26.051  47.190  51.414  1.00  0.00     0.028 C 
HETATM    7  C   UNL     1      24.609  47.001  50.952  1.00  0.00     0.009 C 
ENDROOT
BRANCH   3   8
HETATM    8  C   UNL     1      26.478  43.731  53.130  1.00  0.00     0.277 C 
BRANCH   8   9
HETATM    9  C   UNL     1      27.628  42.825  52.853  1.00  0.00     0.016 A 
HETATM   10  C   UNL     1      28.914  42.778  53.483  1.00  0.00     0.096 A 
HETATM   11  N   UNL     1      29.656  41.785  52.974  1.00  0.00    -0.174 NA
HETATM   12  N   UNL     1      28.933  41.280  51.976  1.00  0.00    -0.288 N 
HETATM   13  H   UNL     1      29.341  40.535  51.416  1.00  0.00     0.188 HD
HETATM   14  C   UNL     1      27.710  41.867  51.854  1.00  0.00     0.120 A 
BRANCH  10  15
HETATM   15  C   UNL     1      29.483  43.632  54.525  1.00  0.00    -0.003 A 
HETATM   16  C   UNL     1      30.520  43.171  55.345  1.00  0.00     0.037 A 
HETATM   17  C   UNL     1      31.008  43.980  56.372  1.00  0.00     0.035 A 
HETATM   18 CL   UNL     1      32.304  43.410  57.351  1.00  0.00    -0.084 Cl
HETATM   19  C   UNL     1      30.463  45.239  56.609  1.00  0.00     0.024 A 
HETATM   20  C   UNL     1      29.417  45.697  55.810  1.00  0.00     0.003 A 
HETATM   21  C   UNL     1      28.929  44.897  54.774  1.00  0.00     0.014 A 
ENDBRANCH  10  15
ENDBRANCH   8   9
ENDBRANCH   3   8
BRANCH   1  22
HETATM   22  C   UNL     1      25.053  45.314  49.132  1.00  0.00     0.128 C 
BRANCH  22  23
HETATM   23  N   UNL     1      25.146  43.924  48.752  1.00  0.00    -0.360 N 
HETATM   24  C   UNL     1      24.105  43.300  48.091  1.00  0.00     0.221 C 
HETATM   25  O   UNL     1      23.183  43.952  47.599  1.00  0.00    -0.273 OA
HETATM   26  H   UNL     1      25.793  43.334  49.271  1.00  0.00     0.162 HD
BRANCH  24  27
HETATM   27  C   UNL     1      24.236  41.782  48.010  1.00  0.00     0.070 C 
HETATM   28  C   UNL     1      22.859  41.121  48.010  1.00  0.00     0.019 C 
HETATM   29  C   UNL     1      25.085  41.246  49.157  1.00  0.00     0.019 C 
ENDBRANCH  24  27
ENDBRANCH  22  23
ENDBRANCH   1  22
TORSDOF 6
ENDMDL
MODEL 5
REMARK VINA RESULT:      -8.5      2.772      3.988
REMARK  6 active torsions:
REMARK  status: ('A' for Active; 'I' for Inactive)
REMARK    1  A    between atoms: C_2  and  C_3 
REMARK       I    between atoms: C_3  and  N_4 
REMARK    2  A    between atoms: N_4  and  C_5 
REMARK    3  A    between atoms: C_5  and  C_6 
REMARK    4  A    between atoms: N_8  and  C_10 
REMARK    5  A    between atoms: C_10  and  C_11 
REMARK    6  A    between atoms: C_12  and  C_13 
ROOT
HETATM    1  C   UNL     1      24.338  45.009  51.247  1.00  0.00     0.029 C 
HETATM    2  C   UNL     1      25.705  44.558  51.771  1.00  0.00     0.241 C 
HETATM    3  N   UNL     1      26.724  44.433  50.664  1.00  0.00    -0.067 N 
HETATM    4  H   UNL     1      26.392  43.658  50.053  1.00  0.00     0.280 HD
HETATM    5  C   UNL     1      26.880  45.697  49.868  1.00  0.00     0.235 C 
HETATM    6  C   UNL     1      25.541  46.246  49.393  1.00  0.00     0.028 C 
HETATM    7  C   UNL     1      24.509  46.346  50.513  1.00  0.00     0.009 C 
ENDROOT
BRANCH   3   8
HETATM    8  C   UNL     1      28.038  43.904  51.229  1.00  0.00     0.277 C 
BRANCH   8   9
HETATM    9  C   UNL     1      27.956  42.693  52.092  1.00  0.00     0.016 A 
HETATM   10  C   UNL     1      28.372  42.522  53.453  1.00  0.00     0.096 A 
HETATM   11  N   UNL     1      28.085  41.287  53.886  1.00  0.00    -0.174 NA
HETATM   12  N   UNL     1      27.609  40.641  52.822  1.00  0.00    -0.288 N 
HETATM   13  H   UNL     1      27.372  39.657  52.923  1.00  0.00     0.188 HD
HETATM   14  C   UNL     1      27.513  41.433  51.718  1.00  0.00     0.120 A 
BRANCH  10  15
HETATM   15  C   UNL     1      29.042  43.457  54.356  1.00  0.00    -0.003 A 
HETATM   16  C   UNL     1      30.136  43.050  55.129  1.00  0.00     0.037 A 
HETATM   17  C   UNL     1      30.724  43.941  56.028  1.00  0.00     0.035 A 
HETATM   18 CL   UNL     1      32.087  43.433  56.948  1.00  0.00    -0.084 Cl
HETATM   19  C   UNL     1      30.224  45.231  56.184  1.00  0.00     0.024 A 
HETATM   20  C   UNL     1      29.124  45.638  55.432  1.00  0.00     0.003 A 
HETATM   21  C   UNL     1      28.536  44.755  54.523  1.00  0.00     0.014 A 
ENDBRANCH  10  15
ENDBRANCH   8   9
ENDBRANCH   3   8
BRANCH   1  22
HETATM   22  C   UNL     1      23.596  44.002  50.346  1.00  0.00     0.128 C 
BRANCH  22  23
HETATM   23  N   UNL     1      22.249  44.389  49.997  1.00  0.00    -0.360 N 
HETATM   24  C   UNL     1      21.919  44.707  48.693  1.00  0.00     0.221 C 
HETATM   25  O   UNL     1      22.683  44.445  47.763  1.00  0.00    -0.273 OA
HETATM   26  H   UNL     1      21.659  44.766  50.736  1.00  0.00     0.162 HD
BRANCH  24  27
HETATM   27  C   UNL     1      20.548  45.357  48.537  1.00  0.00     0.070 C 
HETATM   28  C   UNL     1      19.809  44.772  47.334  1.00  0.00     0.019 C 
HETATM   29  C   UNL     1      20.673  46.870  48.402  1.00  0.00     0.019 C 
ENDBRANCH  24  27
ENDBRANCH  22  23
ENDBRANCH   1  22
TORSDOF 6
ENDMDL
MODEL 6
REMARK VINA RESULT:      -8.4     12.416     15.057
REMARK  6 active torsions:
REMARK  status: ('A' for Active; 'I' for Inactive)
REMARK    1  A    between atoms: C_2  and  C_3 
REMARK       I    between atoms: C_3  and  N_4 
REMARK    2  A    between atoms: N_4  and  C_5 
REMARK    3  A    between atoms: C_5  and  C_6 
REMARK    4  A    between atoms: N_8  and  C_10 
REMARK    5  A    between atoms: C_10  and  C_11 
REMARK    6  A    between atoms: C_12  and  C_13 
ROOT
HETATM    1  C   UNL     1      31.433  48.785  42.666  1.00  0.00     0.029 C 
HETATM    2  C   UNL     1      29.929  48.735  42.376  1.00  0.00     0.241 C 
HETATM    3  N   UNL     1      29.627  48.942  40.911  1.00  0.00    -0.067 N 
HETATM    4  H   UNL     1      29.919  49.917  40.692  1.00  0.00     0.280 HD
HETATM    5  C   UNL     1      30.347  47.967  40.023  1.00  0.00     0.235 C 
HETATM    6  C   UNL     1      31.838  47.906  40.326  1.00  0.00     0.028 C 
HETATM    7  C   UNL     1      32.135  47.721  41.811  1.00  0.00     0.009 C 
ENDROOT
BRANCH   3   8
HETATM    8  C   UNL     1      28.118  48.964  40.693  1.00  0.00     0.277 C 
BRANCH   8   9
HETATM    9  C   UNL     1      27.613  49.830  39.592  1.00  0.00     0.016 A 
HETATM   10  C   UNL     1      28.190  51.020  39.039  1.00  0.00     0.096 A 
HETATM   11  N   UNL     1      27.446  51.482  38.026  1.00  0.00    -0.174 NA
HETATM   12  N   UNL     1      26.369  50.698  37.991  1.00  0.00    -0.288 N 
HETATM   13  H   UNL     1      25.641  50.912  37.314  1.00  0.00     0.188 HD
HETATM   14  C   UNL     1      26.413  49.694  38.910  1.00  0.00     0.120 A 
BRANCH  10  15
HETATM   15  C   UNL     1      29.395  51.750  39.431  1.00  0.00    -0.003 A 
HETATM   16  C   UNL     1      30.651  51.382  38.933  1.00  0.00     0.037 A 
HETATM   17  C   UNL     1      31.796  52.054  39.366  1.00  0.00     0.035 A 
HETATM   18 CL   UNL     1      33.328  51.608  38.721  1.00  0.00    -0.084 Cl
HETATM   19  C   UNL     1      31.710  53.078  40.305  1.00  0.00     0.024 A 
HETATM   20  C   UNL     1      30.465  53.437  40.820  1.00  0.00     0.003 A 
HETATM   21  C   UNL     1      29.314  52.776  40.384  1.00  0.00     0.014 A 
ENDBRANCH  10  15
ENDBRANCH   8   9
ENDBRANCH   3   8
BRANCH   1  22
HETATM   22  C   UNL     1      32.111  50.154  42.469  1.00  0.00     0.128 C 
BRANCH  22  23
HETATM   23  N   UNL     1      33.534  50.090  42.231  1.00  0.00    -0.360 N 
HETATM   24  C   UNL     1      34.364  51.126  42.616  1.00  0.00     0.221 C 
HETATM   25  O   UNL     1      33.965  52.011  43.374  1.00  0.00    -0.273 OA
HETATM   26  H   UNL     1      33.861  49.478  41.486  1.00  0.00     0.162 HD
BRANCH  24  27
HETATM   27  C   UNL     1      35.779  51.036  42.051  1.00  0.00     0.070 C 
HETATM   28  C   UNL     1      36.306  52.425  41.697  1.00  0.00     0.019 C 
HETATM   29  C   UNL     1      35.822  50.122  40.832  1.00  0.00     0.019 C 
ENDBRANCH  24  27
ENDBRANCH  22  23
ENDBRANCH   1  22
TORSDOF 6
ENDMDL
MODEL 7
REMARK VINA RESULT:      -8.1      2.703      5.254
REMARK  6 active torsions:
REMARK  status: ('A' for Active; 'I' for Inactive)
REMARK    1  A    between atoms: C_2  and  C_3 
REMARK       I    between atoms: C_3  and  N_4 
REMARK    2  A    between atoms: N_4  and  C_5 
REMARK    3  A    between atoms: C_5  and  C_6 
REMARK    4  A    between atoms: N_8  and  C_10 
REMARK    5  A    between atoms: C_10  and  C_11 
REMARK    6  A    between atoms: C_12  and  C_13 
ROOT
HETATM    1  C   UNL     1      22.540  49.823  49.017  1.00  0.00     0.029 C 
HETATM    2  C   UNL     1      23.489  49.000  49.893  1.00  0.00     0.241 C 
HETATM    3  N   UNL     1      24.664  48.465  49.111  1.00  0.00    -0.067 N 
HETATM    4  H   UNL     1      24.269  47.791  48.422  1.00  0.00     0.280 HD
HETATM    5  C   UNL     1      25.435  49.544  48.404  1.00  0.00     0.235 C 
HETATM    6  C   UNL     1      24.530  50.453  47.583  1.00  0.00     0.028 C 
HETATM    7  C   UNL     1      23.332  50.970  48.375  1.00  0.00     0.009 C 
ENDROOT
BRANCH   3   8
HETATM    8  C   UNL     1      25.529  47.589  50.011  1.00  0.00     0.277 C 
BRANCH   8   9
HETATM    9  C   UNL     1      24.892  46.361  50.562  1.00  0.00     0.016 A 
HETATM   10  C   UNL     1      25.081  45.739  51.840  1.00  0.00     0.096 A 
HETATM   11  N   UNL     1      24.286  44.669  51.970  1.00  0.00    -0.174 NA
HETATM   12  N   UNL     1      23.687  44.528  50.788  1.00  0.00    -0.288 N 
HETATM   13  H   UNL     1      23.067  43.733  50.655  1.00  0.00     0.188 HD
HETATM   14  C   UNL     1      24.016  45.511  49.904  1.00  0.00     0.120 A 
BRANCH  10  15
HETATM   15  C   UNL     1      25.987  46.092  52.932  1.00  0.00    -0.003 A 
HETATM   16  C   UNL     1      26.990  45.207  53.347  1.00  0.00     0.037 A 
HETATM   17  C   UNL     1      27.805  45.538  54.431  1.00  0.00     0.035 A 
HETATM   18 CL   UNL     1      29.052  44.452  54.909  1.00  0.00    -0.084 Cl
HETATM   19  C   UNL     1      27.624  46.733  55.122  1.00  0.00     0.024 A 
HETATM   20  C   UNL     1      26.616  47.610  54.726  1.00  0.00     0.003 A 
HETATM   21  C   UNL     1      25.801  47.290  53.637  1.00  0.00     0.014 A 
ENDBRANCH  10  15
ENDBRANCH   8   9
ENDBRANCH   3   8
BRANCH   1  22
HETATM   22  C   UNL     1      21.774  49.039  47.934  1.00  0.00     0.128 C 
BRANCH  22  23
HETATM   23  N   UNL     1      20.538  48.442  48.386  1.00  0.00    -0.360 N 
HETATM   24  C   UNL     1      19.361  49.165  48.385  1.00  0.00     0.221 C 
HETATM   25  O   UNL     1      19.275  50.238  47.787  1.00  0.00    -0.273 OA
HETATM   26  H   UNL     1      20.602  47.649  49.021  1.00  0.00     0.162 HD
BRANCH  24  27
HETATM   27  C   UNL     1      18.218  48.498  49.144  1.00  0.00     0.070 C 
HETATM   28  C   UNL     1      18.550  48.388  50.631  1.00  0.00     0.019 C 
HETATM   29  C   UNL     1      17.907  47.123  48.564  1.00  0.00     0.019 C 
ENDBRANCH  24  27
ENDBRANCH  22  23
ENDBRANCH   1  22
TORSDOF 6
ENDMDL
MODEL 8
REMARK VINA RESULT:      -8.0      3.201      5.232
REMARK  6 active torsions:
REMARK  status: ('A' for Active; 'I' for Inactive)
REMARK    1  A    between atoms: C_2  and  C_3 
REMARK       I    between atoms: C_3  and  N_4 
REMARK    2  A    between atoms: N_4  and  C_5 
REMARK    3  A    between atoms: C_5  and  C_6 
REMARK    4  A    between atoms: N_8  and  C_10 
REMARK    5  A    between atoms: C_10  and  C_11 
REMARK    6  A    between atoms: C_12  and  C_13 
ROOT
HETATM    1  C   UNL     1      24.033  44.376  50.051  1.00  0.00     0.029 C 
HETATM    2  C   UNL     1      24.488  43.597  51.290  1.00  0.00     0.241 C 
HETATM    3  N   UNL     1      25.895  43.956  51.702  1.00  0.00    -0.067 N 
HETATM    4  H   UNL     1      26.513  43.632  50.928  1.00  0.00     0.280 HD
HETATM    5  C   UNL     1      26.077  45.429  51.935  1.00  0.00     0.235 C 
HETATM    6  C   UNL     1      25.560  46.264  50.771  1.00  0.00     0.028 C 
HETATM    7  C   UNL     1      24.146  45.878  50.345  1.00  0.00     0.009 C 
ENDROOT
BRANCH   3   8
HETATM    8  C   UNL     1      26.323  43.095  52.885  1.00  0.00     0.277 C 
BRANCH   8   9
HETATM    9  C   UNL     1      27.639  42.407  52.772  1.00  0.00     0.016 A 
HETATM   10  C   UNL     1      28.869  42.689  53.451  1.00  0.00     0.096 A 
HETATM   11  N   UNL     1      29.816  41.809  53.104  1.00  0.00    -0.174 NA
HETATM   12  N   UNL     1      29.267  41.055  52.152  1.00  0.00    -0.288 N 
HETATM   13  H   UNL     1      29.843  40.343  51.709  1.00  0.00     0.188 HD
HETATM   14  C   UNL     1      27.964  41.371  51.909  1.00  0.00     0.120 A 
BRANCH  10  15
HETATM   15  C   UNL     1      29.198  43.757  54.395  1.00  0.00    -0.003 A 
HETATM   16  C   UNL     1      28.494  44.966  54.385  1.00  0.00     0.037 A 
HETATM   17  C   UNL     1      28.863  45.995  55.254  1.00  0.00     0.035 A 
HETATM   18 CL   UNL     1      27.966  47.464  55.248  1.00  0.00    -0.084 Cl
HETATM   19  C   UNL     1      29.940  45.843  56.122  1.00  0.00     0.024 A 
HETATM   20  C   UNL     1      30.659  44.649  56.125  1.00  0.00     0.003 A 
HETATM   21  C   UNL     1      30.290  43.611  55.264  1.00  0.00     0.014 A 
ENDBRANCH  10  15
ENDBRANCH   8   9
ENDBRANCH   3   8
BRANCH   1  22
HETATM   22  C   UNL     1      24.764  44.037  48.738  1.00  0.00     0.128 C 
BRANCH  22  23
HETATM   23  N   UNL     1      25.178  42.658  48.619  1.00  0.00    -0.360 N 
HETATM   24  C   UNL     1      26.504  42.302  48.768  1.00  0.00     0.221 C 
HETATM   25  O   UNL     1      27.325  43.092  49.235  1.00  0.00    -0.273 OA
HETATM   26  H   UNL     1      24.579  42.030  48.086  1.00  0.00     0.162 HD
BRANCH  24  27
HETATM   27  C   UNL     1      26.818  40.871  48.342  1.00  0.00     0.070 C 
HETATM   28  C   UNL     1      27.797  40.860  47.169  1.00  0.00     0.019 C 
HETATM   29  C   UNL     1      25.543  40.118  47.978  1.00  0.00     0.019 C 
ENDBRANCH  24  27
ENDBRANCH  22  23
ENDBRANCH   1  22
TORSDOF 6
ENDMDL
MODEL 9
REMARK VINA RESULT:      -7.9      3.793      8.314
REMARK  6 active torsions:
REMARK  status: ('A' for Active; 'I' for Inactive)
REMARK    1  A    between atoms: C_2  and  C_3 
REMARK       I    between atoms: C_3  and  N_4 
REMARK    2  A    between atoms: N_4  and  C_5 
REMARK    3  A    between atoms: C_5  and  C_6 
REMARK    4  A    between atoms: N_8  and  C_10 
REMARK    5  A    between atoms: C_10  and  C_11 
REMARK    6  A    between atoms: C_12  and  C_13 
ROOT
HETATM    1  C   UNL     1      27.486  44.520  54.072  1.00  0.00     0.029 C 
HETATM    2  C   UNL     1      26.883  44.854  52.704  1.00  0.00     0.241 C 
HETATM    3  N   UNL     1      27.536  44.070  51.590  1.00  0.00    -0.067 N 
HETATM    4  H   UNL     1      28.522  44.399  51.546  1.00  0.00     0.280 HD
HETATM    5  C   UNL     1      27.489  42.585  51.815  1.00  0.00     0.235 C 
HETATM    6  C   UNL     1      27.994  42.198  53.198  1.00  0.00     0.028 C 
HETATM    7  C   UNL     1      27.348  43.011  54.317  1.00  0.00     0.009 C 
ENDROOT
BRANCH   3   8
HETATM    8  C   UNL     1      26.955  44.501  50.247  1.00  0.00     0.277 C 
BRANCH   8   9
HETATM    9  C   UNL     1      25.492  44.775  50.207  1.00  0.00     0.016 A 
HETATM   10  C   UNL     1      24.807  45.986  49.861  1.00  0.00     0.096 A 
HETATM   11  N   UNL     1      23.480  45.810  49.906  1.00  0.00    -0.174 NA
HETATM   12  N   UNL     1      23.302  44.575  50.372  1.00  0.00    -0.288 N 
HETATM   13  H   UNL     1      22.350  44.253  50.532  1.00  0.00     0.188 HD
HETATM   14  C   UNL     1      24.473  43.909  50.574  1.00  0.00     0.120 A 
BRANCH  10  15
HETATM   15  C   UNL     1      25.342  47.301  49.511  1.00  0.00    -0.003 A 
HETATM   16  C   UNL     1      24.511  48.297  48.985  1.00  0.00     0.037 A 
HETATM   17  C   UNL     1      25.053  49.525  48.601  1.00  0.00     0.035 A 
HETATM   18 CL   UNL     1      24.012  50.749  47.983  1.00  0.00    -0.084 Cl
HETATM   19  C   UNL     1      26.418  49.770  48.717  1.00  0.00     0.024 A 
HETATM   20  C   UNL     1      27.255  48.777  49.222  1.00  0.00     0.003 A 
HETATM   21  C   UNL     1      26.719  47.548  49.617  1.00  0.00     0.014 A 
ENDBRANCH  10  15
ENDBRANCH   8   9
ENDBRANCH   3   8
BRANCH   1  22
HETATM   22  C   UNL     1      28.947  44.959  54.289  1.00  0.00     0.128 C 
BRANCH  22  23
HETATM   23  N   UNL     1      29.499  44.594  55.573  1.00  0.00    -0.360 N 
HETATM   24  C   UNL     1      29.452  45.471  56.639  1.00  0.00     0.221 C 
HETATM   25  O   UNL     1      28.740  46.476  56.604  1.00  0.00    -0.273 OA
HETATM   26  H   UNL     1      30.217  43.871  55.591  1.00  0.00     0.162 HD
BRANCH  24  27
HETATM   27  C   UNL     1      30.313  45.056  57.829  1.00  0.00     0.070 C 
HETATM   28  C   UNL     1      30.989  46.275  58.455  1.00  0.00     0.019 C 
HETATM   29  C   UNL     1      31.355  44.024  57.413  1.00  0.00     0.019 C 
ENDBRANCH  24  27
ENDBRANCH  22  23
ENDBRANCH   1  22
TORSDOF 6
ENDMDL
MODEL 10
REMARK VINA RESULT:      -7.9     12.301     15.234
REMARK  6 active torsions:
REMARK  status: ('A' for Active; 'I' for Inactive)
REMARK    1  A    between atoms: C_2  and  C_3 
REMARK       I    between atoms: C_3  and  N_4 
REMARK    2  A    between atoms: N_4  and  C_5 
REMARK    3  A    between atoms: C_5  and  C_6 
REMARK    4  A    between atoms: N_8  and  C_10 
REMARK    5  A    between atoms: C_10  and  C_11 
REMARK    6  A    between atoms: C_12  and  C_13 
ROOT
HETATM    1  C   UNL     1      32.113  48.077  41.475  1.00  0.00     0.029 C 
HETATM    2  C   UNL     1      33.530  48.639  41.315  1.00  0.00     0.241 C 
HETATM    3  N   UNL     1      33.545  50.149  41.319  1.00  0.00    -0.067 N 
HETATM    4  H   UNL     1      33.031  50.444  40.463  1.00  0.00     0.280 HD
HETATM    5  C   UNL     1      32.903  50.736  42.544  1.00  0.00     0.235 C 
HETATM    6  C   UNL     1      31.523  50.148  42.807  1.00  0.00     0.028 C 
HETATM    7  C   UNL     1      31.511  48.622  42.777  1.00  0.00     0.009 C 
ENDROOT
BRANCH   3   8
HETATM    8  C   UNL     1      34.964  50.651  41.076  1.00  0.00     0.277 C 
BRANCH   8   9
HETATM    9  C   UNL     1      35.100  51.986  40.430  1.00  0.00     0.016 A 
HETATM   10  C   UNL     1      34.131  52.733  39.683  1.00  0.00     0.096 A 
HETATM   11  N   UNL     1      34.632  53.916  39.305  1.00  0.00    -0.174 NA
HETATM   12  N   UNL     1      35.909  53.898  39.686  1.00  0.00    -0.288 N 
HETATM   13  H   UNL     1      36.494  54.695  39.447  1.00  0.00     0.188 HD
HETATM   14  C   UNL     1      36.246  52.764  40.361  1.00  0.00     0.120 A 
BRANCH  10  15
HETATM   15  C   UNL     1      32.767  52.378  39.294  1.00  0.00    -0.003 A 
HETATM   16  C   UNL     1      31.666  52.881  39.997  1.00  0.00     0.037 A 
HETATM   17  C   UNL     1      30.375  52.483  39.647  1.00  0.00     0.035 A 
HETATM   18 CL   UNL     1      29.031  53.133  40.503  1.00  0.00    -0.084 Cl
HETATM   19  C   UNL     1      30.164  51.573  38.614  1.00  0.00     0.024 A 
HETATM   20  C   UNL     1      31.257  51.053  37.921  1.00  0.00     0.003 A 
HETATM   21  C   UNL     1      32.551  51.454  38.260  1.00  0.00     0.014 A 
ENDBRANCH  10  15
ENDBRANCH   8   9
ENDBRANCH   3   8
BRANCH   1  22
HETATM   22  C   UNL     1      31.151  48.333  40.299  1.00  0.00     0.128 C 
BRANCH  22  23
HETATM   23  N   UNL     1      29.784  48.593  40.688  1.00  0.00    -0.360 N 
HETATM   24  C   UNL     1      28.773  48.615  39.747  1.00  0.00     0.221 C 
HETATM   25  O   UNL     1      28.956  48.186  38.608  1.00  0.00    -0.273 OA
HETATM   26  H   UNL     1      29.629  49.100  41.557  1.00  0.00     0.162 HD
BRANCH  24  27
HETATM   27  C   UNL     1      27.450  49.172  40.265  1.00  0.00     0.070 C 
HETATM   28  C   UNL     1      26.779  50.041  39.203  1.00  0.00     0.019 C 
HETATM   29  C   UNL     1      27.658  49.966  41.550  1.00  0.00     0.019 C 
ENDBRANCH  24  27
ENDBRANCH  22  23
ENDBRANCH   1  22
TORSDOF 6
ENDMDL
