MODEL 1
REMARK VINA RESULT:      -9.2      0.000      0.000
REMARK  4 active torsions:
REMARK  status: ('A' for Active; 'I' for Inactive)
REMARK    1  A    between atoms: C_8  and  C_9 
REMARK       I    between atoms: C_9  and  N_10 
REMARK    2  A    between atoms: N_10  and  N_11 
REMARK       I    between atoms: N_11  and  C_12 
REMARK    3  A    between atoms: C_12  and  C_13 
REMARK    4  A    between atoms: C_13  and  C_14 
ROOT
HETATM    1  N   UNL     1      23.049  48.892  49.559  1.00  0.00    -0.267 N 
HETATM    2  C   UNL     1      22.431  48.902  48.322  1.00  0.00     0.236 C 
HETATM    3  O   UNL     1      22.351  47.900  47.619  1.00  0.00    -0.272 OA
HETATM    4  H   UNL     1      22.930  49.643  50.238  1.00  0.00     0.190 HD
ENDROOT
BRANCH   1   5
HETATM    5  N   UNL     1      23.474  47.661  50.065  1.00  0.00    -0.262 N 
HETATM    6  C   UNL     1      24.811  47.454  50.346  1.00  0.00     0.291 C 
HETATM    7  O   UNL     1      25.685  48.265  50.042  1.00  0.00    -0.264 OA
HETATM    8  H   UNL     1      22.774  47.033  50.468  1.00  0.00     0.190 HD
BRANCH   6   9
HETATM    9  C   UNL     1      25.068  46.184  51.038  1.00  0.00     0.158 A 
HETATM   10  C   UNL     1      25.713  45.996  52.296  1.00  0.00     0.028 A 
HETATM   11  C   UNL     1      26.294  46.826  53.274  1.00  0.00     0.016 A 
HETATM   12  C   UNL     1      25.715  44.620  52.500  1.00  0.00     0.063 A 
HETATM   13  C   UNL     1      26.854  46.241  54.417  1.00  0.00     0.001 A 
HETATM   14  C   UNL     1      26.841  44.858  54.590  1.00  0.00     0.002 A 
HETATM   15  C   UNL     1      26.268  44.014  53.633  1.00  0.00     0.032 A 
HETATM   16  N   UNL     1      25.092  44.093  51.404  1.00  0.00    -0.277 N 
HETATM   17  H   UNL     1      24.912  43.113  51.211  1.00  0.00     0.189 HD
HETATM   18  N   UNL     1      24.690  45.003  50.501  1.00  0.00    -0.168 NA
ENDBRANCH   6   9
ENDBRANCH   1   5
BRANCH   2  19
HETATM   19  C   UNL     1      21.902  50.279  47.949  1.00  0.00     0.114 C 
BRANCH  19  20
HETATM   20  C   UNL     1      20.387  50.526  48.121  1.00  0.00    -0.031 C 
HETATM   21  C   UNL     1      19.793  49.692  49.285  1.00  0.00     0.014 C 
HETATM   22  C   UNL     1      18.298  50.004  49.471  1.00  0.00    -0.013 C 
HETATM   23  C   UNL     1      17.547  49.683  48.168  1.00  0.00     0.009 C 
HETATM   24  C   UNL     1      18.126  51.494  49.802  1.00  0.00     0.009 C 
HETATM   25  C   UNL     1      18.097  50.539  47.015  1.00  0.00    -0.013 C 
HETATM   26  C   UNL     1      19.593  50.230  46.822  1.00  0.00     0.014 C 
HETATM   27  C   UNL     1      17.926  52.027  47.361  1.00  0.00     0.009 C 
HETATM   28  C   UNL     1      18.684  52.352  48.657  1.00  0.00    -0.013 C 
HETATM   29  C   UNL     1      20.176  52.031  48.465  1.00  0.00     0.014 C 
ENDBRANCH  19  20
ENDBRANCH   2  19
TORSDOF 4
ENDMDL
MODEL 2
REMARK VINA RESULT:      -9.0      1.576      2.430
REMARK  4 active torsions:
REMARK  status: ('A' for Active; 'I' for Inactive)
REMARK    1  A    between atoms: C_8  and  C_9 
REMARK       I    between atoms: C_9  and  N_10 
REMARK    2  A    between atoms: N_10  and  N_11 
REMARK       I    between atoms: N_11  and  C_12 
REMARK    3  A    between atoms: C_12  and  C_13 
REMARK    4  A    between atoms: C_13  and  C_14 
ROOT
HETATM    1  N   UNL     1      23.608  46.970  49.947  1.00  0.00    -0.267 N 
HETATM    2  C   UNL     1      23.751  48.180  49.295  1.00  0.00     0.236 C 
HETATM    3  O   UNL     1      24.624  48.989  49.594  1.00  0.00    -0.272 OA
HETATM    4  H   UNL     1      23.045  46.208  49.572  1.00  0.00     0.190 HD
ENDROOT
BRANCH   1   5
HETATM    5  N   UNL     1      24.581  46.617  50.886  1.00  0.00    -0.262 N 
HETATM    6  C   UNL     1      24.600  45.340  51.414  1.00  0.00     0.291 C 
HETATM    7  O   UNL     1      23.707  44.520  51.199  1.00  0.00    -0.264 OA
HETATM    8  H   UNL     1      25.413  47.206  50.970  1.00  0.00     0.190 HD
BRANCH   6   9
HETATM    9  C   UNL     1      25.784  45.072  52.242  1.00  0.00     0.158 A 
HETATM   10  C   UNL     1      26.309  45.880  53.293  1.00  0.00     0.028 A 
HETATM   11  C   UNL     1      25.966  47.102  53.904  1.00  0.00     0.016 A 
HETATM   12  C   UNL     1      27.431  45.198  53.748  1.00  0.00     0.063 A 
HETATM   13  C   UNL     1      26.765  47.590  54.945  1.00  0.00     0.001 A 
HETATM   14  C   UNL     1      27.885  46.881  55.377  1.00  0.00     0.002 A 
HETATM   15  C   UNL     1      28.244  45.665  54.786  1.00  0.00     0.032 A 
HETATM   16  N   UNL     1      27.504  44.070  52.980  1.00  0.00    -0.277 N 
HETATM   17  H   UNL     1      28.199  43.333  53.033  1.00  0.00     0.189 HD
HETATM   18  N   UNL     1      26.530  43.960  52.061  1.00  0.00    -0.168 NA
ENDBRANCH   6   9
ENDBRANCH   1   5
BRANCH   2  19
HETATM   19  C   UNL     1      22.704  48.382  48.210  1.00  0.00     0.114 C 
BRANCH  19  20
HETATM   20  C   UNL     1      21.439  49.186  48.586  1.00  0.00    -0.031 C 
HETATM   21  C   UNL     1      21.740  50.276  49.645  1.00  0.00     0.014 C 
HETATM   22  C   UNL     1      20.476  51.098  49.956  1.00  0.00    -0.013 C 
HETATM   23  C   UNL     1      19.376  50.159  50.478  1.00  0.00     0.009 C 
HETATM   24  C   UNL     1      19.989  51.786  48.672  1.00  0.00     0.009 C 
HETATM   25  C   UNL     1      19.037  49.099  49.416  1.00  0.00    -0.013 C 
HETATM   26  C   UNL     1      20.297  48.272  49.103  1.00  0.00     0.014 C 
HETATM   27  C   UNL     1      18.558  49.800  48.135  1.00  0.00     0.009 C 
HETATM   28  C   UNL     1      19.659  50.731  47.606  1.00  0.00    -0.013 C 
HETATM   29  C   UNL     1      20.920  49.904  47.305  1.00  0.00     0.014 C 
ENDBRANCH  19  20
ENDBRANCH   2  19
TORSDOF 4
ENDMDL
MODEL 3
REMARK VINA RESULT:      -8.9      2.244      2.804
REMARK  4 active torsions:
REMARK  status: ('A' for Active; 'I' for Inactive)
REMARK    1  A    between atoms: C_8  and  C_9 
REMARK       I    between atoms: C_9  and  N_10 
REMARK    2  A    between atoms: N_10  and  N_11 
REMARK       I    between atoms: N_11  and  C_12 
REMARK    3  A    between atoms: C_12  and  C_13 
REMARK    4  A    between atoms: C_13  and  C_14 
ROOT
HETATM    1  N   UNL     1      23.090  48.935  49.535  1.00  0.00    -0.267 N 
HETATM    2  C   UNL     1      23.006  49.898  48.546  1.00  0.00     0.236 C 
HETATM    3  O   UNL     1      23.612  49.804  47.483  1.00  0.00    -0.272 OA
HETATM    4  H   UNL     1      22.433  48.888  50.312  1.00  0.00     0.190 HD
ENDROOT
BRANCH   1   5
HETATM    5  N   UNL     1      23.788  47.760  49.242  1.00  0.00    -0.262 N 
HETATM    6  C   UNL     1      24.679  47.240  50.161  1.00  0.00     0.291 C 
HETATM    7  O   UNL     1      24.999  47.840  51.187  1.00  0.00    -0.264 OA
HETATM    8  H   UNL     1      23.442  47.164  48.486  1.00  0.00     0.190 HD
BRANCH   6   9
HETATM    9  C   UNL     1      25.191  45.915  49.786  1.00  0.00     0.158 A 
HETATM   10  C   UNL     1      24.453  44.700  49.671  1.00  0.00     0.028 A 
HETATM   11  C   UNL     1      23.112  44.305  49.840  1.00  0.00     0.016 A 
HETATM   12  C   UNL     1      25.390  43.741  49.301  1.00  0.00     0.063 A 
HETATM   13  C   UNL     1      22.766  42.965  49.633  1.00  0.00     0.001 A 
HETATM   14  C   UNL     1      23.730  42.028  49.263  1.00  0.00     0.002 A 
HETATM   15  C   UNL     1      25.068  42.397  49.088  1.00  0.00     0.032 A 
HETATM   16  N   UNL     1      26.578  44.412  49.215  1.00  0.00    -0.277 N 
HETATM   17  H   UNL     1      27.483  44.029  48.965  1.00  0.00     0.189 HD
HETATM   18  N   UNL     1      26.498  45.722  49.501  1.00  0.00    -0.168 NA
ENDBRANCH   6   9
ENDBRANCH   1   5
BRANCH   2  19
HETATM   19  C   UNL     1      22.112  51.063  48.944  1.00  0.00     0.114 C 
BRANCH  19  20
HETATM   20  C   UNL     1      20.584  50.840  48.875  1.00  0.00    -0.031 C 
HETATM   21  C   UNL     1      19.995  50.439  50.251  1.00  0.00     0.014 C 
HETATM   22  C   UNL     1      18.466  50.284  50.164  1.00  0.00    -0.013 C 
HETATM   23  C   UNL     1      18.125  49.206  49.121  1.00  0.00     0.009 C 
HETATM   24  C   UNL     1      17.842  51.620  49.737  1.00  0.00     0.009 C 
HETATM   25  C   UNL     1      18.666  49.616  47.741  1.00  0.00    -0.013 C 
HETATM   26  C   UNL     1      20.195  49.772  47.821  1.00  0.00     0.014 C 
HETATM   27  C   UNL     1      18.040  50.958  47.328  1.00  0.00     0.009 C 
HETATM   28  C   UNL     1      18.388  52.037  48.363  1.00  0.00    -0.013 C 
HETATM   29  C   UNL     1      19.917  52.181  48.449  1.00  0.00     0.014 C 
ENDBRANCH  19  20
ENDBRANCH   2  19
TORSDOF 4
ENDMDL
MODEL 4
REMARK VINA RESULT:      -8.8      1.470      2.286
REMARK  4 active torsions:
REMARK  status: ('A' for Active; 'I' for Inactive)
REMARK    1  A    between atoms: C_8  and  C_9 
REMARK       I    between atoms: C_9  and  N_10 
REMARK    2  A    between atoms: N_10  and  N_11 
REMARK       I    between atoms: N_11  and  C_12 
REMARK    3  A    between atoms: C_12  and  C_13 
REMARK    4  A    between atoms: C_13  and  C_14 
ROOT
HETATM    1  N   UNL     1      22.750  48.158  49.006  1.00  0.00    -0.267 N 
HETATM    2  C   UNL     1      22.470  49.498  49.205  1.00  0.00     0.236 C 
HETATM    3  O   UNL     1      22.740  50.076  50.253  1.00  0.00    -0.272 OA
HETATM    4  H   UNL     1      22.738  47.727  48.083  1.00  0.00     0.190 HD
ENDROOT
BRANCH   1   5
HETATM    5  N   UNL     1      23.482  47.492  49.992  1.00  0.00    -0.262 N 
HETATM    6  C   UNL     1      24.853  47.653  50.060  1.00  0.00     0.291 C 
HETATM    7  O   UNL     1      25.493  48.256  49.200  1.00  0.00    -0.264 OA
HETATM    8  H   UNL     1      22.981  47.116  50.801  1.00  0.00     0.190 HD
BRANCH   6   9
HETATM    9  C   UNL     1      25.450  47.038  51.254  1.00  0.00     0.158 A 
HETATM   10  C   UNL     1      26.236  45.851  51.318  1.00  0.00     0.028 A 
HETATM   11  C   UNL     1      26.713  44.897  50.398  1.00  0.00     0.016 A 
HETATM   12  C   UNL     1      26.548  45.694  52.664  1.00  0.00     0.063 A 
HETATM   13  C   UNL     1      27.482  43.824  50.866  1.00  0.00     0.001 A 
HETATM   14  C   UNL     1      27.776  43.696  52.223  1.00  0.00     0.002 A 
HETATM   15  C   UNL     1      27.314  44.632  53.155  1.00  0.00     0.032 A 
HETATM   16  N   UNL     1      25.960  46.754  53.295  1.00  0.00    -0.277 N 
HETATM   17  H   UNL     1      25.980  46.967  54.287  1.00  0.00     0.189 HD
HETATM   18  N   UNL     1      25.289  47.585  52.480  1.00  0.00    -0.168 NA
ENDBRANCH   6   9
ENDBRANCH   1   5
BRANCH   2  19
HETATM   19  C   UNL     1      21.786  50.133  48.004  1.00  0.00     0.114 C 
BRANCH  19  20
HETATM   20  C   UNL     1      20.297  50.515  48.157  1.00  0.00    -0.031 C 
HETATM   21  C   UNL     1      20.120  52.000  48.564  1.00  0.00     0.014 C 
HETATM   22  C   UNL     1      18.627  52.367  48.650  1.00  0.00    -0.013 C 
HETATM   23  C   UNL     1      17.941  51.461  49.686  1.00  0.00     0.009 C 
HETATM   24  C   UNL     1      17.972  52.156  47.277  1.00  0.00     0.009 C 
HETATM   25  C   UNL     1      18.071  49.986  49.268  1.00  0.00    -0.013 C 
HETATM   26  C   UNL     1      19.563  49.613  49.182  1.00  0.00     0.014 C 
HETATM   27  C   UNL     1      17.419  49.790  47.890  1.00  0.00     0.009 C 
HETATM   28  C   UNL     1      18.109  50.686  46.852  1.00  0.00    -0.013 C 
HETATM   29  C   UNL     1      19.601  50.318  46.778  1.00  0.00     0.014 C 
ENDBRANCH  19  20
ENDBRANCH   2  19
TORSDOF 4
ENDMDL
MODEL 5
REMARK VINA RESULT:      -8.7      1.510      2.256
REMARK  4 active torsions:
REMARK  status: ('A' for Active; 'I' for Inactive)
REMARK    1  A    between atoms: C_8  and  C_9 
REMARK       I    between atoms: C_9  and  N_10 
REMARK    2  A    between atoms: N_10  and  N_11 
REMARK       I    between atoms: N_11  and  C_12 
REMARK    3  A    between atoms: C_12  and  C_13 
REMARK    4  A    between atoms: C_13  and  C_14 
ROOT
HETATM    1  N   UNL     1      21.920  46.770  49.121  1.00  0.00    -0.267 N 
HETATM    2  C   UNL     1      21.561  47.101  47.827  1.00  0.00     0.236 C 
HETATM    3  O   UNL     1      22.338  46.999  46.883  1.00  0.00    -0.272 OA
HETATM    4  H   UNL     1      21.235  46.638  49.863  1.00  0.00     0.190 HD
ENDROOT
BRANCH   1   5
HETATM    5  N   UNL     1      23.170  46.177  49.318  1.00  0.00    -0.262 N 
HETATM    6  C   UNL     1      24.179  46.885  49.942  1.00  0.00     0.291 C 
HETATM    7  O   UNL     1      24.078  48.080  50.218  1.00  0.00    -0.264 OA
HETATM    8  H   UNL     1      23.243  45.159  49.246  1.00  0.00     0.190 HD
BRANCH   6   9
HETATM    9  C   UNL     1      25.364  46.067  50.238  1.00  0.00     0.158 A 
HETATM   10  C   UNL     1      25.648  45.354  51.439  1.00  0.00     0.028 A 
HETATM   11  C   UNL     1      25.009  45.153  52.678  1.00  0.00     0.016 A 
HETATM   12  C   UNL     1      26.883  44.753  51.220  1.00  0.00     0.063 A 
HETATM   13  C   UNL     1      25.635  44.359  53.646  1.00  0.00     0.001 A 
HETATM   14  C   UNL     1      26.875  43.772  53.395  1.00  0.00     0.002 A 
HETATM   15  C   UNL     1      27.527  43.957  52.172  1.00  0.00     0.032 A 
HETATM   16  N   UNL     1      27.243  45.122  49.954  1.00  0.00    -0.277 N 
HETATM   17  H   UNL     1      28.089  44.865  49.457  1.00  0.00     0.189 HD
HETATM   18  N   UNL     1      26.355  45.914  49.332  1.00  0.00    -0.168 NA
ENDBRANCH   6   9
ENDBRANCH   1   5
BRANCH   2  19
HETATM   19  C   UNL     1      20.132  47.615  47.734  1.00  0.00     0.114 C 
BRANCH  19  20
HETATM   20  C   UNL     1      19.843  49.015  48.320  1.00  0.00    -0.031 C 
HETATM   21  C   UNL     1      18.584  49.659  47.684  1.00  0.00     0.014 C 
HETATM   22  C   UNL     1      18.287  51.024  48.328  1.00  0.00    -0.013 C 
HETATM   23  C   UNL     1      19.498  51.952  48.133  1.00  0.00     0.009 C 
HETATM   24  C   UNL     1      18.030  50.833  49.830  1.00  0.00     0.009 C 
HETATM   25  C   UNL     1      20.743  51.344  48.801  1.00  0.00    -0.013 C 
HETATM   26  C   UNL     1      21.047  49.978  48.159  1.00  0.00     0.014 C 
HETATM   27  C   UNL     1      20.471  51.151  50.301  1.00  0.00     0.009 C 
HETATM   28  C   UNL     1      19.268  50.216  50.498  1.00  0.00    -0.013 C 
HETATM   29  C   UNL     1      19.571  48.857  49.845  1.00  0.00     0.014 C 
ENDBRANCH  19  20
ENDBRANCH   2  19
TORSDOF 4
ENDMDL
MODEL 6
REMARK VINA RESULT:      -8.5     20.738     22.640
REMARK  4 active torsions:
REMARK  status: ('A' for Active; 'I' for Inactive)
REMARK    1  A    between atoms: C_8  and  C_9 
REMARK       I    between atoms: C_9  and  N_10 
REMARK    2  A    between atoms: N_10  and  N_11 
REMARK       I    between atoms: N_11  and  C_12 
REMARK    3  A    between atoms: C_12  and  C_13 
REMARK    4  A    between atoms: C_13  and  C_14 
ROOT
HETATM    1  N   UNL     1      36.948  43.797  63.343  1.00  0.00    -0.267 N 
HETATM    2  C   UNL     1      36.745  44.319  64.607  1.00  0.00     0.236 C 
HETATM    3  O   UNL     1      36.937  43.664  65.627  1.00  0.00    -0.272 OA
HETATM    4  H   UNL     1      37.008  44.383  62.511  1.00  0.00     0.190 HD
ENDROOT
BRANCH   1   5
HETATM    5  N   UNL     1      37.517  42.525  63.247  1.00  0.00    -0.262 N 
HETATM    6  C   UNL     1      38.861  42.391  62.957  1.00  0.00     0.291 C 
HETATM    7  O   UNL     1      39.569  43.346  62.638  1.00  0.00    -0.264 OA
HETATM    8  H   UNL     1      37.010  41.733  63.650  1.00  0.00     0.190 HD
BRANCH   6   9
HETATM    9  C   UNL     1      39.344  41.007  63.071  1.00  0.00     0.158 A 
HETATM   10  C   UNL     1      39.902  40.376  64.221  1.00  0.00     0.028 A 
HETATM   11  C   UNL     1      40.187  40.749  65.549  1.00  0.00     0.016 A 
HETATM   12  C   UNL     1      40.204  39.081  63.812  1.00  0.00     0.063 A 
HETATM   13  C   UNL     1      40.764  39.810  66.411  1.00  0.00     0.001 A 
HETATM   14  C   UNL     1      41.056  38.520  65.969  1.00  0.00     0.002 A 
HETATM   15  C   UNL     1      40.781  38.126  64.656  1.00  0.00     0.032 A 
HETATM   16  N   UNL     1      39.819  39.018  62.502  1.00  0.00    -0.277 N 
HETATM   17  H   UNL     1      39.888  38.221  61.879  1.00  0.00     0.189 HD
HETATM   18  N   UNL     1      39.298  40.159  62.020  1.00  0.00    -0.168 NA
ENDBRANCH   6   9
ENDBRANCH   1   5
BRANCH   2  19
HETATM   19  C   UNL     1      36.244  45.755  64.570  1.00  0.00     0.114 C 
BRANCH  19  20
HETATM   20  C   UNL     1      37.172  46.844  65.153  1.00  0.00    -0.031 C 
HETATM   21  C   UNL     1      38.669  46.488  64.968  1.00  0.00     0.014 C 
HETATM   22  C   UNL     1      39.568  47.617  65.504  1.00  0.00    -0.013 C 
HETATM   23  C   UNL     1      39.269  47.839  66.996  1.00  0.00     0.009 C 
HETATM   24  C   UNL     1      39.275  48.911  64.730  1.00  0.00     0.009 C 
HETATM   25  C   UNL     1      37.796  48.238  67.187  1.00  0.00    -0.013 C 
HETATM   26  C   UNL     1      36.892  47.111  66.654  1.00  0.00     0.014 C 
HETATM   27  C   UNL     1      37.514  49.529  66.402  1.00  0.00     0.009 C 
HETATM   28  C   UNL     1      37.802  49.307  64.910  1.00  0.00    -0.013 C 
HETATM   29  C   UNL     1      36.906  48.173  64.384  1.00  0.00     0.014 C 
ENDBRANCH  19  20
ENDBRANCH   2  19
TORSDOF 4
ENDMDL
MODEL 7
REMARK VINA RESULT:      -8.4      7.707     10.026
REMARK  4 active torsions:
REMARK  status: ('A' for Active; 'I' for Inactive)
REMARK    1  A    between atoms: C_8  and  C_9 
REMARK       I    between atoms: C_9  and  N_10 
REMARK    2  A    between atoms: N_10  and  N_11 
REMARK       I    between atoms: N_11  and  C_12 
REMARK    3  A    between atoms: C_12  and  C_13 
REMARK    4  A    between atoms: C_13  and  C_14 
ROOT
HETATM    1  N   UNL     1      25.544  42.340  51.434  1.00  0.00    -0.267 N 
HETATM    2  C   UNL     1      25.683  42.707  50.108  1.00  0.00     0.236 C 
HETATM    3  O   UNL     1      26.171  43.781  49.770  1.00  0.00    -0.272 OA
HETATM    4  H   UNL     1      25.353  41.381  51.721  1.00  0.00     0.190 HD
ENDROOT
BRANCH   1   5
HETATM    5  N   UNL     1      26.105  43.176  52.403  1.00  0.00    -0.262 N 
HETATM    6  C   UNL     1      27.392  42.948  52.850  1.00  0.00     0.291 C 
HETATM    7  O   UNL     1      28.036  41.948  52.535  1.00  0.00    -0.264 OA
HETATM    8  H   UNL     1      25.670  44.087  52.570  1.00  0.00     0.190 HD
BRANCH   6   9
HETATM    9  C   UNL     1      27.899  44.014  53.726  1.00  0.00     0.158 A 
HETATM   10  C   UNL     1      29.016  43.953  54.609  1.00  0.00     0.028 A 
HETATM   11  C   UNL     1      29.977  42.988  54.968  1.00  0.00     0.016 A 
HETATM   12  C   UNL     1      29.071  45.206  55.210  1.00  0.00     0.063 A 
HETATM   13  C   UNL     1      30.953  43.319  55.916  1.00  0.00     0.001 A 
HETATM   14  C   UNL     1      30.979  44.584  56.501  1.00  0.00     0.002 A 
HETATM   15  C   UNL     1      30.036  45.559  56.159  1.00  0.00     0.032 A 
HETATM   16  N   UNL     1      28.033  45.911  54.669  1.00  0.00    -0.277 N 
HETATM   17  H   UNL     1      27.768  46.869  54.873  1.00  0.00     0.189 HD
HETATM   18  N   UNL     1      27.303  45.226  53.773  1.00  0.00    -0.168 NA
ENDBRANCH   6   9
ENDBRANCH   1   5
BRANCH   2  19
HETATM   19  C   UNL     1      25.147  41.649  49.154  1.00  0.00     0.114 C 
BRANCH  19  20
HETATM   20  C   UNL     1      26.116  40.526  48.724  1.00  0.00    -0.031 C 
HETATM   21  C   UNL     1      25.540  39.679  47.560  1.00  0.00     0.014 C 
HETATM   22  C   UNL     1      26.551  38.608  47.114  1.00  0.00    -0.013 C 
HETATM   23  C   UNL     1      26.880  37.693  48.306  1.00  0.00     0.009 C 
HETATM   24  C   UNL     1      27.837  39.293  46.629  1.00  0.00     0.009 C 
HETATM   25  C   UNL     1      27.495  38.516  49.451  1.00  0.00    -0.013 C 
HETATM   26  C   UNL     1      26.487  39.589  49.903  1.00  0.00     0.014 C 
HETATM   27  C   UNL     1      28.776  39.202  48.951  1.00  0.00     0.009 C 
HETATM   28  C   UNL     1      28.449  40.124  47.767  1.00  0.00    -0.013 C 
HETATM   29  C   UNL     1      27.433  41.186  48.219  1.00  0.00     0.014 C 
ENDBRANCH  19  20
ENDBRANCH   2  19
TORSDOF 4
ENDMDL
MODEL 8
REMARK VINA RESULT:      -8.3      1.842      8.948
REMARK  4 active torsions:
REMARK  status: ('A' for Active; 'I' for Inactive)
REMARK    1  A    between atoms: C_8  and  C_9 
REMARK       I    between atoms: C_9  and  N_10 
REMARK    2  A    between atoms: N_10  and  N_11 
REMARK       I    between atoms: N_11  and  C_12 
REMARK    3  A    between atoms: C_12  and  C_13 
REMARK    4  A    between atoms: C_13  and  C_14 
ROOT
HETATM    1  N   UNL     1      23.290  46.938  49.163  1.00  0.00    -0.267 N 
HETATM    2  C   UNL     1      24.440  47.305  49.835  1.00  0.00     0.236 C 
HETATM    3  O   UNL     1      24.489  48.291  50.565  1.00  0.00    -0.272 OA
HETATM    4  H   UNL     1      23.171  46.018  48.741  1.00  0.00     0.190 HD
ENDROOT
BRANCH   1   5
HETATM    5  N   UNL     1      22.118  47.648  49.440  1.00  0.00    -0.262 N 
HETATM    6  C   UNL     1      21.323  48.098  48.403  1.00  0.00     0.291 C 
HETATM    7  O   UNL     1      21.666  48.024  47.224  1.00  0.00    -0.264 OA
HETATM    8  H   UNL     1      21.728  47.595  50.384  1.00  0.00     0.190 HD
BRANCH   6   9
HETATM    9  C   UNL     1      20.044  48.662  48.857  1.00  0.00     0.158 A 
HETATM   10  C   UNL     1      19.629  50.025  48.802  1.00  0.00     0.028 A 
HETATM   11  C   UNL     1      20.182  51.239  48.353  1.00  0.00     0.016 A 
HETATM   12  C   UNL     1      18.354  50.037  49.358  1.00  0.00     0.063 A 
HETATM   13  C   UNL     1      19.435  52.417  48.481  1.00  0.00     0.001 A 
HETATM   14  C   UNL     1      18.160  52.394  49.044  1.00  0.00     0.002 A 
HETATM   15  C   UNL     1      17.589  51.200  49.496  1.00  0.00     0.032 A 
HETATM   16  N   UNL     1      18.093  48.737  49.691  1.00  0.00    -0.277 N 
HETATM   17  H   UNL     1      17.250  48.370  50.119  1.00  0.00     0.189 HD
HETATM   18  N   UNL     1      19.088  47.880  49.405  1.00  0.00    -0.168 NA
ENDBRANCH   6   9
ENDBRANCH   1   5
BRANCH   2  19
HETATM   19  C   UNL     1      25.607  46.373  49.543  1.00  0.00     0.114 C 
BRANCH  19  20
HETATM   20  C   UNL     1      25.974  45.336  50.628  1.00  0.00    -0.031 C 
HETATM   21  C   UNL     1      27.284  44.582  50.287  1.00  0.00     0.014 C 
HETATM   22  C   UNL     1      27.656  43.599  51.412  1.00  0.00    -0.013 C 
HETATM   23  C   UNL     1      26.512  42.590  51.602  1.00  0.00     0.009 C 
HETATM   24  C   UNL     1      27.868  44.379  52.718  1.00  0.00     0.009 C 
HETATM   25  C   UNL     1      25.216  43.324  51.986  1.00  0.00    -0.013 C 
HETATM   26  C   UNL     1      24.838  44.307  50.863  1.00  0.00     0.014 C 
HETATM   27  C   UNL     1      25.443  44.106  53.290  1.00  0.00     0.009 C 
HETATM   28  C   UNL     1      26.578  45.122  53.099  1.00  0.00    -0.013 C 
HETATM   29  C   UNL     1      26.202  46.094  51.969  1.00  0.00     0.014 C 
ENDBRANCH  19  20
ENDBRANCH   2  19
TORSDOF 4
ENDMDL
MODEL 9
REMARK VINA RESULT:      -8.1      2.381      3.362
REMARK  4 active torsions:
REMARK  status: ('A' for Active; 'I' for Inactive)
REMARK    1  A    between atoms: C_8  and  C_9 
REMARK       I    between atoms: C_9  and  N_10 
REMARK    2  A    between atoms: N_10  and  N_11 
REMARK       I    between atoms: N_11  and  C_12 
REMARK    3  A    between atoms: C_12  and  C_13 
REMARK    4  A    between atoms: C_13  and  C_14 
ROOT
HETATM    1  N   UNL     1      22.339  46.335  48.830  1.00  0.00    -0.267 N 
HETATM    2  C   UNL     1      22.460  47.704  48.677  1.00  0.00     0.236 C 
HETATM    3  O   UNL     1      23.241  48.374  49.347  1.00  0.00    -0.272 OA
HETATM    4  H   UNL     1      21.871  45.746  48.143  1.00  0.00     0.190 HD
ENDROOT
BRANCH   1   5
HETATM    5  N   UNL     1      23.237  45.694  49.687  1.00  0.00    -0.262 N 
HETATM    6  C   UNL     1      23.130  44.334  49.906  1.00  0.00     0.291 C 
HETATM    7  O   UNL     1      22.185  43.667  49.486  1.00  0.00    -0.264 OA
HETATM    8  H   UNL     1      24.109  46.172  49.925  1.00  0.00     0.190 HD
BRANCH   6   9
HETATM    9  C   UNL     1      24.250  43.781  50.680  1.00  0.00     0.158 A 
HETATM   10  C   UNL     1      25.324  42.976  50.199  1.00  0.00     0.028 A 
HETATM   11  C   UNL     1      25.717  42.444  48.956  1.00  0.00     0.016 A 
HETATM   12  C   UNL     1      26.106  42.709  51.317  1.00  0.00     0.063 A 
HETATM   13  C   UNL     1      26.878  41.665  48.886  1.00  0.00     0.001 A 
HETATM   14  C   UNL     1      27.640  41.415  50.027  1.00  0.00     0.002 A 
HETATM   15  C   UNL     1      27.270  41.935  51.271  1.00  0.00     0.032 A 
HETATM   16  N   UNL     1      25.484  43.349  52.352  1.00  0.00    -0.277 N 
HETATM   17  H   UNL     1      25.777  43.375  53.324  1.00  0.00     0.189 HD
HETATM   18  N   UNL     1      24.363  44.004  52.008  1.00  0.00    -0.168 NA
ENDBRANCH   6   9
ENDBRANCH   1   5
BRANCH   2  19
HETATM   19  C   UNL     1      21.514  48.257  47.622  1.00  0.00     0.114 C 
BRANCH  19  20
HETATM   20  C   UNL     1      20.507  49.340  48.070  1.00  0.00    -0.031 C 
HETATM   21  C   UNL     1      19.284  49.421  47.122  1.00  0.00     0.014 C 
HETATM   22  C   UNL     1      18.272  50.465  47.626  1.00  0.00    -0.013 C 
HETATM   23  C   UNL     1      18.957  51.839  47.704  1.00  0.00     0.009 C 
HETATM   24  C   UNL     1      17.780  50.063  49.024  1.00  0.00     0.009 C 
HETATM   25  C   UNL     1      20.146  51.783  48.679  1.00  0.00    -0.013 C 
HETATM   26  C   UNL     1      21.163  50.741  48.178  1.00  0.00     0.014 C 
HETATM   27  C   UNL     1      19.642  51.372  50.071  1.00  0.00     0.009 C 
HETATM   28  C   UNL     1      18.966  49.995  49.998  1.00  0.00    -0.013 C 
HETATM   29  C   UNL     1      19.982  48.960  49.486  1.00  0.00     0.014 C 
ENDBRANCH  19  20
ENDBRANCH   2  19
TORSDOF 4
ENDMDL
MODEL 10
REMARK VINA RESULT:      -8.1      2.305      9.384
REMARK  4 active torsions:
REMARK  status: ('A' for Active; 'I' for Inactive)
REMARK    1  A    between atoms: C_8  and  C_9 
REMARK       I    between atoms: C_9  and  N_10 
REMARK    2  A    between atoms: N_10  and  N_11 
REMARK       I    between atoms: N_11  and  C_12 
REMARK    3  A    between atoms: C_12  and  C_13 
REMARK    4  A    between atoms: C_13  and  C_14 
ROOT
HETATM    1  N   UNL     1      24.875  44.862  50.082  1.00  0.00    -0.267 N 
HETATM    2  C   UNL     1      26.235  45.051  49.920  1.00  0.00     0.236 C 
HETATM    3  O   UNL     1      26.702  46.074  49.428  1.00  0.00    -0.272 OA
HETATM    4  H   UNL     1      24.490  44.132  50.681  1.00  0.00     0.190 HD
ENDROOT
BRANCH   1   5
HETATM    5  N   UNL     1      24.029  45.935  49.791  1.00  0.00    -0.262 N 
HETATM    6  C   UNL     1      23.195  45.878  48.692  1.00  0.00     0.291 C 
HETATM    7  O   UNL     1      23.255  44.972  47.860  1.00  0.00    -0.264 OA
HETATM    8  H   UNL     1      23.841  46.620  50.528  1.00  0.00     0.190 HD
BRANCH   6   9
HETATM    9  C   UNL     1      22.243  46.995  48.627  1.00  0.00     0.158 A 
HETATM   10  C   UNL     1      22.542  48.384  48.510  1.00  0.00     0.028 A 
HETATM   11  C   UNL     1      23.708  49.169  48.418  1.00  0.00     0.016 A 
HETATM   12  C   UNL     1      21.306  49.021  48.499  1.00  0.00     0.063 A 
HETATM   13  C   UNL     1      23.586  50.560  48.319  1.00  0.00     0.001 A 
HETATM   14  C   UNL     1      22.331  51.168  48.312  1.00  0.00     0.002 A 
HETATM   15  C   UNL     1      21.159  50.409  48.401  1.00  0.00     0.032 A 
HETATM   16  N   UNL     1      20.383  48.018  48.599  1.00  0.00    -0.277 N 
HETATM   17  H   UNL     1      19.373  48.112  48.618  1.00  0.00     0.189 HD
HETATM   18  N   UNL     1      20.909  46.785  48.679  1.00  0.00    -0.168 NA
ENDBRANCH   6   9
ENDBRANCH   1   5
BRANCH   2  19
HETATM   19  C   UNL     1      27.049  43.856  50.395  1.00  0.00     0.114 C 
BRANCH  19  20
HETATM   20  C   UNL     1      27.425  43.804  51.892  1.00  0.00    -0.031 C 
HETATM   21  C   UNL     1      26.823  44.995  52.681  1.00  0.00     0.014 C 
HETATM   22  C   UNL     1      27.164  44.884  54.178  1.00  0.00    -0.013 C 
HETATM   23  C   UNL     1      28.692  44.869  54.350  1.00  0.00     0.009 C 
HETATM   24  C   UNL     1      26.577  43.580  54.739  1.00  0.00     0.009 C 
HETATM   25  C   UNL     1      29.297  43.665  53.608  1.00  0.00    -0.013 C 
HETATM   26  C   UNL     1      28.960  43.771  52.109  1.00  0.00     0.014 C 
HETATM   27  C   UNL     1      28.696  42.368  54.173  1.00  0.00     0.009 C 
HETATM   28  C   UNL     1      27.171  42.376  53.993  1.00  0.00    -0.013 C 
HETATM   29  C   UNL     1      26.839  42.494  52.496  1.00  0.00     0.014 C 
ENDBRANCH  19  20
ENDBRANCH   2  19
TORSDOF 4
ENDMDL
