MODEL 1
REMARK VINA RESULT:      -9.5      0.000      0.000
REMARK  13 active torsions:
REMARK  status: ('A' for Active; 'I' for Inactive)
REMARK    1  A    between atoms: O_2  and  C_3 
REMARK    2  A    between atoms: C_6  and  C_7 
REMARK    3  A    between atoms: C_7  and  C_8 
REMARK    4  A    between atoms: C_9  and  C_10 
REMARK    5  A    between atoms: N_17  and  C_18 
REMARK    6  A    between atoms: C_18  and  C_19 
REMARK    7  A    between atoms: C_19  and  O_20 
REMARK    8  A    between atoms: C_19  and  C_21 
REMARK    9  A    between atoms: C_21  and  N_22 
REMARK   10  A    between atoms: N_22  and  C_25 
REMARK   11  A    between atoms: C_25  and  C_26 
REMARK   12  A    between atoms: C_26  and  C_27 
REMARK   13  A    between atoms: C_32  and  O_33 
ROOT
HETATM    1  C   UNL     1      24.409  46.136  50.674  1.00  0.00     0.162 C 
ENDROOT
BRANCH   1   2
HETATM    2  N   UNL     1      24.146  47.287  49.825  1.00  0.00    -0.353 N 
HETATM    3  C   UNL     1      25.080  48.204  49.387  1.00  0.00     0.045 A 
HETATM    4  C   UNL     1      24.422  49.058  48.492  1.00  0.00     0.002 A 
HETATM    5  C   UNL     1      26.444  48.352  49.687  1.00  0.00     0.030 A 
HETATM    6  C   UNL     1      23.045  48.674  48.479  1.00  0.00    -0.008 A 
HETATM    7  C   UNL     1      25.183  50.050  47.833  1.00  0.00     0.014 A 
HETATM    8  C   UNL     1      22.915  47.569  49.292  1.00  0.00     0.103 A 
HETATM    9  C   UNL     1      26.545  50.192  48.116  1.00  0.00     0.001 A 
HETATM   10  C   UNL     1      27.162  49.361  49.040  1.00  0.00     0.002 A 
BRANCH   6  11
HETATM   11  C   UNL     1      21.939  49.261  47.791  1.00  0.00     0.018 C 
HETATM   12  C   UNL     1      20.674  49.271  48.242  1.00  0.00     0.056 C 
BRANCH  12  13
HETATM   13  C   UNL     1      19.599  49.926  47.452  1.00  0.00     0.182 C 
HETATM   14  O   UNL     1      19.573  49.827  46.227  1.00  0.00    -0.288 OA
BRANCH  13  15
HETATM   15  C   UNL     1      18.579  50.759  48.163  1.00  0.00     0.014 A 
HETATM   16  C   UNL     1      17.199  50.664  47.939  1.00  0.00     0.018 A 
HETATM   17  C   UNL     1      16.297  51.432  48.691  1.00  0.00     0.037 A 
HETATM   18  C   UNL     1      16.763  52.310  49.668  1.00  0.00     0.068 A 
HETATM   19  C   UNL     1      18.138  52.440  49.864  1.00  0.00     0.037 A 
HETATM   20  C   UNL     1      19.039  51.670  49.122  1.00  0.00     0.018 A 
BRANCH  18  21
HETATM   21  O   UNL     1      15.987  53.094  50.474  1.00  0.00    -0.356 OA
HETATM   22  C   UNL     1      14.586  52.840  50.457  1.00  0.00     0.210 C 
ENDBRANCH  18  21
ENDBRANCH  13  15
ENDBRANCH  12  13
ENDBRANCH   6  11
ENDBRANCH   1   2
BRANCH   1  23
HETATM   23  C   UNL     1      24.071  44.779  50.028  1.00  0.00     0.162 C 
BRANCH  23  24
HETATM   24  O   UNL     1      22.984  44.099  50.688  1.00  0.00    -0.392 OA
HETATM   25  H   UNL     1      23.023  43.152  50.445  1.00  0.00     0.210 HD
ENDBRANCH  23  24
BRANCH  23  26
HETATM   26  C   UNL     1      25.249  43.788  49.960  1.00  0.00     0.265 C 
BRANCH  26  27
HETATM   27  N   UNL     1      26.521  44.601  49.952  1.00  0.00    -0.072 N 
HETATM   28  H   UNL     1      26.864  44.570  48.975  1.00  0.00     0.277 HD
HETATM   29  H   UNL     1      26.289  45.589  50.105  1.00  0.00     0.277 HD
BRANCH  27  30
HETATM   30  C   UNL     1      27.583  44.196  50.919  1.00  0.00     0.237 C 
BRANCH  30  31
HETATM   31  C   UNL     1      27.011  43.784  52.277  1.00  0.00     0.068 C 
BRANCH  31  32
HETATM   32  C   UNL     1      27.269  44.838  53.303  1.00  0.00    -0.029 A 
HETATM   33  C   UNL     1      28.291  44.809  54.306  1.00  0.00     0.001 A 
HETATM   34  C   UNL     1      28.154  45.964  55.074  1.00  0.00     0.043 A 
HETATM   35  C   UNL     1      29.316  43.901  54.640  1.00  0.00     0.051 A 
HETATM   36  C   UNL     1      28.986  46.246  56.164  1.00  0.00     0.033 A 
HETATM   37  N   UNL     1      27.111  46.685  54.543  1.00  0.00    -0.365 N 
HETATM   38  C   UNL     1      29.989  45.321  56.479  1.00  0.00     0.039 A 
HETATM   39  C   UNL     1      30.161  44.161  55.727  1.00  0.00     0.069 A 
HETATM   40  H   UNL     1      26.799  47.582  54.892  1.00  0.00     0.165 HD
HETATM   41  C   UNL     1      26.565  46.011  53.481  1.00  0.00     0.096 A 
BRANCH  39  42
HETATM   42  O   UNL     1      31.102  43.191  55.945  1.00  0.00    -0.356 OA
HETATM   43  C   UNL     1      31.964  43.372  57.065  1.00  0.00     0.210 C 
ENDBRANCH  39  42
ENDBRANCH  31  32
ENDBRANCH  30  31
ENDBRANCH  27  30
ENDBRANCH  26  27
ENDBRANCH  23  26
ENDBRANCH   1  23
TORSDOF 13
ENDMDL
MODEL 2
REMARK VINA RESULT:      -9.4      2.983     10.676
REMARK  13 active torsions:
REMARK  status: ('A' for Active; 'I' for Inactive)
REMARK    1  A    between atoms: O_2  and  C_3 
REMARK    2  A    between atoms: C_6  and  C_7 
REMARK    3  A    between atoms: C_7  and  C_8 
REMARK    4  A    between atoms: C_9  and  C_10 
REMARK    5  A    between atoms: N_17  and  C_18 
REMARK    6  A    between atoms: C_18  and  C_19 
REMARK    7  A    between atoms: C_19  and  O_20 
REMARK    8  A    between atoms: C_19  and  C_21 
REMARK    9  A    between atoms: C_21  and  N_22 
REMARK   10  A    between atoms: N_22  and  C_25 
REMARK   11  A    between atoms: C_25  and  C_26 
REMARK   12  A    between atoms: C_26  and  C_27 
REMARK   13  A    between atoms: C_32  and  O_33 
ROOT
HETATM    1  C   UNL     1      23.936  43.584  47.800  1.00  0.00     0.162 C 
ENDROOT
BRANCH   1   2
HETATM    2  N   UNL     1      24.745  43.917  48.962  1.00  0.00    -0.353 N 
HETATM    3  C   UNL     1      24.770  45.134  49.611  1.00  0.00     0.045 A 
HETATM    4  C   UNL     1      25.576  44.973  50.746  1.00  0.00     0.002 A 
HETATM    5  C   UNL     1      24.148  46.358  49.312  1.00  0.00     0.030 A 
HETATM    6  C   UNL     1      26.102  43.645  50.702  1.00  0.00    -0.008 A 
HETATM    7  C   UNL     1      25.704  46.063  51.636  1.00  0.00     0.014 A 
HETATM    8  C   UNL     1      25.554  43.017  49.605  1.00  0.00     0.103 A 
HETATM    9  C   UNL     1      25.073  47.278  51.351  1.00  0.00     0.001 A 
HETATM   10  C   UNL     1      24.316  47.424  50.198  1.00  0.00     0.002 A 
BRANCH   6  11
HETATM   11  C   UNL     1      27.027  42.999  51.579  1.00  0.00     0.018 C 
HETATM   12  C   UNL     1      28.244  43.474  51.894  1.00  0.00     0.056 C 
BRANCH  12  13
HETATM   13  C   UNL     1      29.122  42.728  52.834  1.00  0.00     0.182 C 
HETATM   14  O   UNL     1      29.447  41.567  52.598  1.00  0.00    -0.288 OA
BRANCH  13  15
HETATM   15  C   UNL     1      29.560  43.392  54.101  1.00  0.00     0.014 A 
HETATM   16  C   UNL     1      30.714  43.035  54.812  1.00  0.00     0.018 A 
HETATM   17  C   UNL     1      31.096  43.746  55.959  1.00  0.00     0.037 A 
HETATM   18  C   UNL     1      30.327  44.816  56.415  1.00  0.00     0.068 A 
HETATM   19  C   UNL     1      29.155  45.147  55.735  1.00  0.00     0.037 A 
HETATM   20  C   UNL     1      28.774  44.445  54.587  1.00  0.00     0.018 A 
BRANCH  18  21
HETATM   21  O   UNL     1      30.605  45.594  57.504  1.00  0.00    -0.356 OA
HETATM   22  C   UNL     1      29.512  46.301  58.079  1.00  0.00     0.210 C 
ENDBRANCH  18  21
ENDBRANCH  13  15
ENDBRANCH  12  13
ENDBRANCH   6  11
ENDBRANCH   1   2
BRANCH   1  23
HETATM   23  C   UNL     1      22.455  43.301  48.117  1.00  0.00     0.162 C 
BRANCH  23  24
HETATM   24  O   UNL     1      22.093  41.919  47.918  1.00  0.00    -0.392 OA
HETATM   25  H   UNL     1      22.814  41.483  47.422  1.00  0.00     0.210 HD
ENDBRANCH  23  24
BRANCH  23  26
HETATM   26  C   UNL     1      21.452  44.151  47.313  1.00  0.00     0.265 C 
BRANCH  26  27
HETATM   27  N   UNL     1      21.308  45.473  48.026  1.00  0.00    -0.072 N 
HETATM   28  H   UNL     1      21.955  45.423  48.834  1.00  0.00     0.277 HD
HETATM   29  H   UNL     1      21.701  46.217  47.437  1.00  0.00     0.277 HD
BRANCH  27  30
HETATM   30  C   UNL     1      19.931  45.862  48.448  1.00  0.00     0.237 C 
BRANCH  30  31
HETATM   31  C   UNL     1      19.495  47.202  47.854  1.00  0.00     0.068 C 
BRANCH  31  32
HETATM   32  C   UNL     1      19.802  48.323  48.792  1.00  0.00    -0.029 A 
HETATM   33  C   UNL     1      20.958  49.166  48.755  1.00  0.00     0.001 A 
HETATM   34  C   UNL     1      20.867  50.049  49.829  1.00  0.00     0.043 A 
HETATM   35  C   UNL     1      22.084  49.254  47.911  1.00  0.00     0.051 A 
HETATM   36  C   UNL     1      21.851  51.006  50.103  1.00  0.00     0.033 A 
HETATM   37  N   UNL     1      19.686  49.778  50.479  1.00  0.00    -0.365 N 
HETATM   38  C   UNL     1      22.963  51.064  49.253  1.00  0.00     0.039 A 
HETATM   39  C   UNL     1      23.083  50.203  48.165  1.00  0.00     0.069 A 
HETATM   40  H   UNL     1      19.351  50.283  51.290  1.00  0.00     0.165 HD
HETATM   41  C   UNL     1      19.041  48.734  49.868  1.00  0.00     0.096 A 
BRANCH  39  42
HETATM   42  O   UNL     1      24.123  50.169  47.275  1.00  0.00    -0.356 OA
HETATM   43  C   UNL     1      25.434  50.064  47.822  1.00  0.00     0.210 C 
ENDBRANCH  39  42
ENDBRANCH  31  32
ENDBRANCH  30  31
ENDBRANCH  27  30
ENDBRANCH  26  27
ENDBRANCH  23  26
ENDBRANCH   1  23
TORSDOF 13
ENDMDL
MODEL 3
REMARK VINA RESULT:      -9.4      2.226      3.188
REMARK  13 active torsions:
REMARK  status: ('A' for Active; 'I' for Inactive)
REMARK    1  A    between atoms: O_2  and  C_3 
REMARK    2  A    between atoms: C_6  and  C_7 
REMARK    3  A    between atoms: C_7  and  C_8 
REMARK    4  A    between atoms: C_9  and  C_10 
REMARK    5  A    between atoms: N_17  and  C_18 
REMARK    6  A    between atoms: C_18  and  C_19 
REMARK    7  A    between atoms: C_19  and  O_20 
REMARK    8  A    between atoms: C_19  and  C_21 
REMARK    9  A    between atoms: C_21  and  N_22 
REMARK   10  A    between atoms: N_22  and  C_25 
REMARK   11  A    between atoms: C_25  and  C_26 
REMARK   12  A    between atoms: C_26  and  C_27 
REMARK   13  A    between atoms: C_32  and  O_33 
ROOT
HETATM    1  C   UNL     1      24.489  46.101  50.466  1.00  0.00     0.162 C 
ENDROOT
BRANCH   1   2
HETATM    2  N   UNL     1      24.326  47.369  49.773  1.00  0.00    -0.353 N 
HETATM    3  C   UNL     1      25.339  48.230  49.406  1.00  0.00     0.045 A 
HETATM    4  C   UNL     1      24.751  49.252  48.649  1.00  0.00     0.002 A 
HETATM    5  C   UNL     1      26.721  48.198  49.661  1.00  0.00     0.030 A 
HETATM    6  C   UNL     1      23.340  49.018  48.653  1.00  0.00    -0.008 A 
HETATM    7  C   UNL     1      25.594  50.233  48.080  1.00  0.00     0.014 A 
HETATM    8  C   UNL     1      23.116  47.841  49.333  1.00  0.00     0.103 A 
HETATM    9  C   UNL     1      26.971  50.196  48.316  1.00  0.00     0.001 A 
HETATM   10  C   UNL     1      27.523  49.198  49.106  1.00  0.00     0.002 A 
BRANCH   6  11
HETATM   11  C   UNL     1      22.284  49.797  48.089  1.00  0.00     0.018 C 
HETATM   12  C   UNL     1      21.164  50.155  48.740  1.00  0.00     0.056 C 
BRANCH  12  13
HETATM   13  C   UNL     1      20.133  50.984  48.063  1.00  0.00     0.182 C 
HETATM   14  O   UNL     1      20.002  52.173  48.344  1.00  0.00    -0.288 OA
BRANCH  13  15
HETATM   15  C   UNL     1      19.215  50.337  47.074  1.00  0.00     0.014 A 
HETATM   16  C   UNL     1      18.831  50.927  45.862  1.00  0.00     0.018 A 
HETATM   17  C   UNL     1      18.019  50.233  44.953  1.00  0.00     0.037 A 
HETATM   18  C   UNL     1      17.574  48.945  45.247  1.00  0.00     0.068 A 
HETATM   19  C   UNL     1      17.918  48.371  46.471  1.00  0.00     0.037 A 
HETATM   20  C   UNL     1      18.733  49.057  47.376  1.00  0.00     0.018 A 
BRANCH  18  21
HETATM   21  O   UNL     1      16.797  48.163  44.438  1.00  0.00    -0.356 OA
HETATM   22  C   UNL     1      16.679  46.791  44.797  1.00  0.00     0.210 C 
ENDBRANCH  18  21
ENDBRANCH  13  15
ENDBRANCH  12  13
ENDBRANCH   6  11
ENDBRANCH   1   2
BRANCH   1  23
HETATM   23  C   UNL     1      23.700  44.931  49.847  1.00  0.00     0.162 C 
BRANCH  23  24
HETATM   24  O   UNL     1      22.994  44.149  50.830  1.00  0.00    -0.392 OA
HETATM   25  H   UNL     1      22.301  43.633  50.371  1.00  0.00     0.210 HD
ENDBRANCH  23  24
BRANCH  23  26
HETATM   26  C   UNL     1      24.551  43.951  49.016  1.00  0.00     0.265 C 
BRANCH  26  27
HETATM   27  N   UNL     1      25.997  44.193  49.376  1.00  0.00    -0.072 N 
HETATM   28  H   UNL     1      26.483  44.357  48.476  1.00  0.00     0.277 HD
HETATM   29  H   UNL     1      26.075  45.090  49.870  1.00  0.00     0.277 HD
BRANCH  27  30
HETATM   30  C   UNL     1      26.674  43.134  50.181  1.00  0.00     0.237 C 
BRANCH  30  31
HETATM   31  C   UNL     1      26.623  43.420  51.683  1.00  0.00     0.068 C 
BRANCH  31  32
HETATM   32  C   UNL     1      27.912  43.049  52.338  1.00  0.00    -0.029 A 
HETATM   33  C   UNL     1      28.487  43.675  53.490  1.00  0.00     0.001 A 
HETATM   34  C   UNL     1      29.706  43.049  53.742  1.00  0.00     0.043 A 
HETATM   35  C   UNL     1      28.087  44.727  54.339  1.00  0.00     0.051 A 
HETATM   36  C   UNL     1      30.546  43.431  54.794  1.00  0.00     0.033 A 
HETATM   37  N   UNL     1      29.856  42.058  52.801  1.00  0.00    -0.365 N 
HETATM   38  C   UNL     1      30.129  44.486  55.616  1.00  0.00     0.039 A 
HETATM   39  C   UNL     1      28.912  45.129  55.400  1.00  0.00     0.069 A 
HETATM   40  H   UNL     1      30.646  41.427  52.756  1.00  0.00     0.165 HD
HETATM   41  C   UNL     1      28.785  42.055  51.944  1.00  0.00     0.096 A 
BRANCH  39  42
HETATM   42  O   UNL     1      28.407  46.169  56.134  1.00  0.00    -0.356 OA
HETATM   43  C   UNL     1      27.657  47.150  55.426  1.00  0.00     0.210 C 
ENDBRANCH  39  42
ENDBRANCH  31  32
ENDBRANCH  30  31
ENDBRANCH  27  30
ENDBRANCH  26  27
ENDBRANCH  23  26
ENDBRANCH   1  23
TORSDOF 13
ENDMDL
MODEL 4
REMARK VINA RESULT:      -9.3      2.556     12.664
REMARK  13 active torsions:
REMARK  status: ('A' for Active; 'I' for Inactive)
REMARK    1  A    between atoms: O_2  and  C_3 
REMARK    2  A    between atoms: C_6  and  C_7 
REMARK    3  A    between atoms: C_7  and  C_8 
REMARK    4  A    between atoms: C_9  and  C_10 
REMARK    5  A    between atoms: N_17  and  C_18 
REMARK    6  A    between atoms: C_18  and  C_19 
REMARK    7  A    between atoms: C_19  and  O_20 
REMARK    8  A    between atoms: C_19  and  C_21 
REMARK    9  A    between atoms: C_21  and  N_22 
REMARK   10  A    between atoms: N_22  and  C_25 
REMARK   11  A    between atoms: C_25  and  C_26 
REMARK   12  A    between atoms: C_26  and  C_27 
REMARK   13  A    between atoms: C_32  and  O_33 
ROOT
HETATM    1  C   UNL     1      22.578  48.380  49.189  1.00  0.00     0.162 C 
ENDROOT
BRANCH   1   2
HETATM    2  N   UNL     1      23.947  47.971  49.460  1.00  0.00    -0.353 N 
HETATM    3  C   UNL     1      25.086  48.666  49.112  1.00  0.00     0.045 A 
HETATM    4  C   UNL     1      26.169  47.985  49.682  1.00  0.00     0.002 A 
HETATM    5  C   UNL     1      25.263  49.838  48.357  1.00  0.00     0.030 A 
HETATM    6  C   UNL     1      25.644  46.811  50.307  1.00  0.00    -0.008 A 
HETATM    7  C   UNL     1      27.460  48.541  49.539  1.00  0.00     0.014 A 
HETATM    8  C   UNL     1      24.274  46.845  50.172  1.00  0.00     0.103 A 
HETATM    9  C   UNL     1      27.639  49.716  48.803  1.00  0.00     0.001 A 
HETATM   10  C   UNL     1      26.555  50.348  48.211  1.00  0.00     0.002 A 
BRANCH   6  11
HETATM   11  C   UNL     1      26.328  45.746  50.971  1.00  0.00     0.018 C 
HETATM   12  C   UNL     1      26.041  45.303  52.206  1.00  0.00     0.056 C 
BRANCH  12  13
HETATM   13  C   UNL     1      26.805  44.173  52.797  1.00  0.00     0.182 C 
HETATM   14  O   UNL     1      26.572  43.015  52.459  1.00  0.00    -0.288 OA
BRANCH  13  15
HETATM   15  C   UNL     1      27.825  44.460  53.854  1.00  0.00     0.014 A 
HETATM   16  C   UNL     1      28.876  43.592  54.181  1.00  0.00     0.018 A 
HETATM   17  C   UNL     1      29.833  43.958  55.139  1.00  0.00     0.037 A 
HETATM   18  C   UNL     1      29.748  45.188  55.788  1.00  0.00     0.068 A 
HETATM   19  C   UNL     1      28.678  46.036  55.498  1.00  0.00     0.037 A 
HETATM   20  C   UNL     1      27.727  45.678  54.538  1.00  0.00     0.018 A 
BRANCH  18  21
HETATM   21  O   UNL     1      30.625  45.662  56.722  1.00  0.00    -0.356 OA
HETATM   22  C   UNL     1      30.130  45.811  58.048  1.00  0.00     0.210 C 
ENDBRANCH  18  21
ENDBRANCH  13  15
ENDBRANCH  12  13
ENDBRANCH   6  11
ENDBRANCH   1   2
BRANCH   1  23
HETATM   23  C   UNL     1      22.352  49.903  49.216  1.00  0.00     0.162 C 
BRANCH  23  24
HETATM   24  O   UNL     1      22.246  50.430  50.555  1.00  0.00    -0.392 OA
HETATM   25  H   UNL     1      23.139  50.431  50.955  1.00  0.00     0.210 HD
ENDBRANCH  23  24
BRANCH  23  26
HETATM   26  C   UNL     1      21.109  50.383  48.442  1.00  0.00     0.265 C 
BRANCH  26  27
HETATM   27  N   UNL     1      20.038  50.694  49.459  1.00  0.00    -0.072 N 
HETATM   28  H   UNL     1      20.353  50.247  50.339  1.00  0.00     0.277 HD
HETATM   29  H   UNL     1      20.055  51.699  49.668  1.00  0.00     0.277 HD
BRANCH  27  30
HETATM   30  C   UNL     1      18.643  50.294  49.110  1.00  0.00     0.237 C 
BRANCH  30  31
HETATM   31  C   UNL     1      17.595  51.122  49.855  1.00  0.00     0.068 C 
BRANCH  31  32
HETATM   32  C   UNL     1      16.751  51.896  48.896  1.00  0.00    -0.029 A 
HETATM   33  C   UNL     1      15.661  52.761  49.236  1.00  0.00     0.001 A 
HETATM   34  C   UNL     1      15.127  53.248  48.045  1.00  0.00     0.043 A 
HETATM   35  C   UNL     1      15.070  53.167  50.449  1.00  0.00     0.051 A 
HETATM   36  C   UNL     1      14.028  54.112  48.010  1.00  0.00     0.033 A 
HETATM   37  N   UNL     1      15.881  52.727  47.018  1.00  0.00    -0.365 N 
HETATM   38  C   UNL     1      13.454  54.492  49.230  1.00  0.00     0.039 A 
HETATM   39  C   UNL     1      13.967  54.032  50.441  1.00  0.00     0.069 A 
HETATM   40  H   UNL     1      15.729  52.929  46.038  1.00  0.00     0.165 HD
HETATM   41  C   UNL     1      16.856  51.904  47.520  1.00  0.00     0.096 A 
BRANCH  39  42
HETATM   42  O   UNL     1      13.487  54.334  51.687  1.00  0.00    -0.356 OA
HETATM   43  C   UNL     1      14.265  55.229  52.475  1.00  0.00     0.210 C 
ENDBRANCH  39  42
ENDBRANCH  31  32
ENDBRANCH  30  31
ENDBRANCH  27  30
ENDBRANCH  26  27
ENDBRANCH  23  26
ENDBRANCH   1  23
TORSDOF 13
ENDMDL
MODEL 5
REMARK VINA RESULT:      -9.3      1.920      3.195
REMARK  13 active torsions:
REMARK  status: ('A' for Active; 'I' for Inactive)
REMARK    1  A    between atoms: O_2  and  C_3 
REMARK    2  A    between atoms: C_6  and  C_7 
REMARK    3  A    between atoms: C_7  and  C_8 
REMARK    4  A    between atoms: C_9  and  C_10 
REMARK    5  A    between atoms: N_17  and  C_18 
REMARK    6  A    between atoms: C_18  and  C_19 
REMARK    7  A    between atoms: C_19  and  O_20 
REMARK    8  A    between atoms: C_19  and  C_21 
REMARK    9  A    between atoms: C_21  and  N_22 
REMARK   10  A    between atoms: N_22  and  C_25 
REMARK   11  A    between atoms: C_25  and  C_26 
REMARK   12  A    between atoms: C_26  and  C_27 
REMARK   13  A    between atoms: C_32  and  O_33 
ROOT
HETATM    1  C   UNL     1      26.164  43.940  49.956  1.00  0.00     0.162 C 
ENDROOT
BRANCH   1   2
HETATM    2  N   UNL     1      25.126  44.866  49.528  1.00  0.00    -0.353 N 
HETATM    3  C   UNL     1      24.006  44.545  48.790  1.00  0.00     0.045 A 
HETATM    4  C   UNL     1      23.218  45.702  48.722  1.00  0.00     0.002 A 
HETATM    5  C   UNL     1      23.607  43.340  48.186  1.00  0.00     0.030 A 
HETATM    6  C   UNL     1      23.950  46.746  49.368  1.00  0.00    -0.008 A 
HETATM    7  C   UNL     1      21.962  45.618  48.080  1.00  0.00     0.014 A 
HETATM    8  C   UNL     1      25.107  46.193  49.871  1.00  0.00     0.103 A 
HETATM    9  C   UNL     1      21.553  44.418  47.492  1.00  0.00     0.001 A 
HETATM   10  C   UNL     1      22.372  43.298  47.535  1.00  0.00     0.002 A 
BRANCH   6  11
HETATM   11  C   UNL     1      23.628  48.130  49.515  1.00  0.00     0.018 C 
HETATM   12  C   UNL     1      22.436  48.675  49.222  1.00  0.00     0.056 C 
BRANCH  12  13
HETATM   13  C   UNL     1      22.202  50.129  49.430  1.00  0.00     0.182 C 
HETATM   14  O   UNL     1      23.145  50.895  49.610  1.00  0.00    -0.288 OA
BRANCH  13  15
HETATM   15  C   UNL     1      20.796  50.639  49.475  1.00  0.00     0.014 A 
HETATM   16  C   UNL     1      20.350  51.764  48.767  1.00  0.00     0.018 A 
HETATM   17  C   UNL     1      19.001  52.145  48.807  1.00  0.00     0.037 A 
HETATM   18  C   UNL     1      18.083  51.414  49.559  1.00  0.00     0.068 A 
HETATM   19  C   UNL     1      18.531  50.321  50.300  1.00  0.00     0.037 A 
HETATM   20  C   UNL     1      19.874  49.933  50.257  1.00  0.00     0.018 A 
BRANCH  18  21
HETATM   21  O   UNL     1      16.745  51.675  49.661  1.00  0.00    -0.356 OA
HETATM   22  C   UNL     1      16.370  53.035  49.844  1.00  0.00     0.210 C 
ENDBRANCH  18  21
ENDBRANCH  13  15
ENDBRANCH  12  13
ENDBRANCH   6  11
ENDBRANCH   1   2
BRANCH   1  23
HETATM   23  C   UNL     1      25.639  42.699  50.701  1.00  0.00     0.162 C 
BRANCH  23  24
HETATM   24  O   UNL     1      24.929  43.030  51.912  1.00  0.00    -0.392 OA
HETATM   25  H   UNL     1      24.001  43.234  51.676  1.00  0.00     0.210 HD
ENDBRANCH  23  24
BRANCH  23  26
HETATM   26  C   UNL     1      26.723  41.672  51.081  1.00  0.00     0.265 C 
BRANCH  26  27
HETATM   27  N   UNL     1      26.913  41.749  52.576  1.00  0.00    -0.072 N 
HETATM   28  H   UNL     1      26.269  42.493  52.899  1.00  0.00     0.277 HD
HETATM   29  H   UNL     1      26.542  40.893  53.006  1.00  0.00     0.277 HD
BRANCH  27  30
HETATM   30  C   UNL     1      28.304  41.976  53.066  1.00  0.00     0.237 C 
BRANCH  30  31
HETATM   31  C   UNL     1      28.851  43.344  52.655  1.00  0.00     0.068 C 
BRANCH  31  32
HETATM   32  C   UNL     1      28.341  44.414  53.562  1.00  0.00    -0.029 A 
HETATM   33  C   UNL     1      28.911  44.803  54.816  1.00  0.00     0.001 A 
HETATM   34  C   UNL     1      28.104  45.805  55.350  1.00  0.00     0.043 A 
HETATM   35  C   UNL     1      30.038  44.388  55.555  1.00  0.00     0.051 A 
HETATM   36  C   UNL     1      28.364  46.403  56.589  1.00  0.00     0.033 A 
HETATM   37  N   UNL     1      27.097  46.043  54.444  1.00  0.00    -0.365 N 
HETATM   38  C   UNL     1      29.484  45.963  57.306  1.00  0.00     0.039 A 
HETATM   39  C   UNL     1      30.319  44.970  56.800  1.00  0.00     0.069 A 
HETATM   40  H   UNL     1      26.372  46.739  54.563  1.00  0.00     0.165 HD
HETATM   41  C   UNL     1      27.226  45.203  53.367  1.00  0.00     0.096 A 
BRANCH  39  42
HETATM   42  O   UNL     1      31.433  44.463  57.412  1.00  0.00    -0.356 OA
HETATM   43  C   UNL     1      31.802  43.129  57.074  1.00  0.00     0.210 C 
ENDBRANCH  39  42
ENDBRANCH  31  32
ENDBRANCH  30  31
ENDBRANCH  27  30
ENDBRANCH  26  27
ENDBRANCH  23  26
ENDBRANCH   1  23
TORSDOF 13
ENDMDL
MODEL 6
REMARK VINA RESULT:      -9.2      2.515     11.639
REMARK  13 active torsions:
REMARK  status: ('A' for Active; 'I' for Inactive)
REMARK    1  A    between atoms: O_2  and  C_3 
REMARK    2  A    between atoms: C_6  and  C_7 
REMARK    3  A    between atoms: C_7  and  C_8 
REMARK    4  A    between atoms: C_9  and  C_10 
REMARK    5  A    between atoms: N_17  and  C_18 
REMARK    6  A    between atoms: C_18  and  C_19 
REMARK    7  A    between atoms: C_19  and  O_20 
REMARK    8  A    between atoms: C_19  and  C_21 
REMARK    9  A    between atoms: C_21  and  N_22 
REMARK   10  A    between atoms: N_22  and  C_25 
REMARK   11  A    between atoms: C_25  and  C_26 
REMARK   12  A    between atoms: C_26  and  C_27 
REMARK   13  A    between atoms: C_32  and  O_33 
ROOT
HETATM    1  C   UNL     1      22.706  48.137  49.259  1.00  0.00     0.162 C 
ENDROOT
BRANCH   1   2
HETATM    2  N   UNL     1      24.080  47.718  49.491  1.00  0.00    -0.353 N 
HETATM    3  C   UNL     1      25.212  48.441  49.181  1.00  0.00     0.045 A 
HETATM    4  C   UNL     1      26.304  47.728  49.695  1.00  0.00     0.002 A 
HETATM    5  C   UNL     1      25.377  49.663  48.506  1.00  0.00     0.030 A 
HETATM    6  C   UNL     1      25.790  46.512  50.243  1.00  0.00    -0.008 A 
HETATM    7  C   UNL     1      27.591  48.300  49.580  1.00  0.00     0.014 A 
HETATM    8  C   UNL     1      24.418  46.548  50.121  1.00  0.00     0.103 A 
HETATM    9  C   UNL     1      27.758  49.523  48.924  1.00  0.00     0.001 A 
HETATM   10  C   UNL     1      26.666  50.188  48.385  1.00  0.00     0.002 A 
BRANCH   6  11
HETATM   11  C   UNL     1      26.483  45.408  50.827  1.00  0.00     0.018 C 
HETATM   12  C   UNL     1      26.663  45.227  52.146  1.00  0.00     0.056 C 
BRANCH  12  13
HETATM   13  C   UNL     1      27.388  44.030  52.649  1.00  0.00     0.182 C 
HETATM   14  O   UNL     1      27.127  42.911  52.213  1.00  0.00    -0.288 OA
BRANCH  13  15
HETATM   15  C   UNL     1      28.401  44.198  53.737  1.00  0.00     0.014 A 
HETATM   16  C   UNL     1      28.374  45.240  54.675  1.00  0.00     0.018 A 
HETATM   17  C   UNL     1      29.322  45.297  55.708  1.00  0.00     0.037 A 
HETATM   18  C   UNL     1      30.311  44.321  55.813  1.00  0.00     0.068 A 
HETATM   19  C   UNL     1      30.368  43.307  54.856  1.00  0.00     0.037 A 
HETATM   20  C   UNL     1      29.420  43.243  53.829  1.00  0.00     0.018 A 
BRANCH  18  21
HETATM   21  O   UNL     1      31.273  44.258  56.781  1.00  0.00    -0.356 OA
HETATM   22  C   UNL     1      30.970  44.877  58.026  1.00  0.00     0.210 C 
ENDBRANCH  18  21
ENDBRANCH  13  15
ENDBRANCH  12  13
ENDBRANCH   6  11
ENDBRANCH   1   2
BRANCH   1  23
HETATM   23  C   UNL     1      21.838  47.093  48.531  1.00  0.00     0.162 C 
BRANCH  23  24
HETATM   24  O   UNL     1      22.383  46.702  47.255  1.00  0.00    -0.392 OA
HETATM   25  H   UNL     1      22.172  47.402  46.604  1.00  0.00     0.210 HD
ENDBRANCH  23  24
BRANCH  23  26
HETATM   26  C   UNL     1      20.380  47.530  48.285  1.00  0.00     0.265 C 
BRANCH  26  27
HETATM   27  N   UNL     1      19.486  46.459  48.860  1.00  0.00    -0.072 N 
HETATM   28  H   UNL     1      20.000  45.569  48.729  1.00  0.00     0.277 HD
HETATM   29  H   UNL     1      19.439  46.573  49.880  1.00  0.00     0.277 HD
BRANCH  27  30
HETATM   30  C   UNL     1      18.099  46.377  48.315  1.00  0.00     0.237 C 
BRANCH  30  31
HETATM   31  C   UNL     1      17.901  47.269  47.088  1.00  0.00     0.068 C 
BRANCH  31  32
HETATM   32  C   UNL     1      16.864  48.311  47.352  1.00  0.00    -0.029 A 
HETATM   33  C   UNL     1      17.045  49.512  48.111  1.00  0.00     0.001 A 
HETATM   34  C   UNL     1      15.821  50.175  48.142  1.00  0.00     0.043 A 
HETATM   35  C   UNL     1      18.138  50.093  48.785  1.00  0.00     0.051 A 
HETATM   36  C   UNL     1      15.636  51.384  48.822  1.00  0.00     0.033 A 
HETATM   37  N   UNL     1      14.933  49.427  47.405  1.00  0.00    -0.365 N 
HETATM   38  C   UNL     1      16.737  51.934  49.492  1.00  0.00     0.039 A 
HETATM   39  C   UNL     1      17.978  51.303  49.474  1.00  0.00     0.069 A 
HETATM   40  H   UNL     1      13.967  49.682  47.241  1.00  0.00     0.165 HD
HETATM   41  C   UNL     1      15.549  48.296  46.933  1.00  0.00     0.096 A 
BRANCH  39  42
HETATM   42  O   UNL     1      19.116  51.746  50.093  1.00  0.00    -0.356 OA
HETATM   43  C   UNL     1      20.183  50.811  50.221  1.00  0.00     0.210 C 
ENDBRANCH  39  42
ENDBRANCH  31  32
ENDBRANCH  30  31
ENDBRANCH  27  30
ENDBRANCH  26  27
ENDBRANCH  23  26
ENDBRANCH   1  23
TORSDOF 13
ENDMDL
MODEL 7
REMARK VINA RESULT:      -9.1      2.088     12.148
REMARK  13 active torsions:
REMARK  status: ('A' for Active; 'I' for Inactive)
REMARK    1  A    between atoms: O_2  and  C_3 
REMARK    2  A    between atoms: C_6  and  C_7 
REMARK    3  A    between atoms: C_7  and  C_8 
REMARK    4  A    between atoms: C_9  and  C_10 
REMARK    5  A    between atoms: N_17  and  C_18 
REMARK    6  A    between atoms: C_18  and  C_19 
REMARK    7  A    between atoms: C_19  and  O_20 
REMARK    8  A    between atoms: C_19  and  C_21 
REMARK    9  A    between atoms: C_21  and  N_22 
REMARK   10  A    between atoms: N_22  and  C_25 
REMARK   11  A    between atoms: C_25  and  C_26 
REMARK   12  A    between atoms: C_26  and  C_27 
REMARK   13  A    between atoms: C_32  and  O_33 
ROOT
HETATM    1  C   UNL     1      22.535  48.502  48.546  1.00  0.00     0.162 C 
ENDROOT
BRANCH   1   2
HETATM    2  N   UNL     1      23.790  47.986  49.071  1.00  0.00    -0.353 N 
HETATM    3  C   UNL     1      25.028  48.581  48.944  1.00  0.00     0.045 A 
HETATM    4  C   UNL     1      25.924  47.821  49.708  1.00  0.00     0.002 A 
HETATM    5  C   UNL     1      25.440  49.723  48.236  1.00  0.00     0.030 A 
HETATM    6  C   UNL     1      25.195  46.704  50.222  1.00  0.00    -0.008 A 
HETATM    7  C   UNL     1      27.261  48.268  49.811  1.00  0.00     0.014 A 
HETATM    8  C   UNL     1      23.882  46.849  49.831  1.00  0.00     0.103 A 
HETATM    9  C   UNL     1      27.672  49.413  49.123  1.00  0.00     0.001 A 
HETATM   10  C   UNL     1      26.775  50.122  48.337  1.00  0.00     0.002 A 
BRANCH   6  11
HETATM   11  C   UNL     1      25.650  45.597  51.002  1.00  0.00     0.018 C 
HETATM   12  C   UNL     1      26.809  44.946  50.805  1.00  0.00     0.056 C 
BRANCH  12  13
HETATM   13  C   UNL     1      27.196  43.814  51.689  1.00  0.00     0.182 C 
HETATM   14  O   UNL     1      26.806  42.674  51.451  1.00  0.00    -0.288 OA
BRANCH  13  15
HETATM   15  C   UNL     1      28.020  44.092  52.906  1.00  0.00     0.014 A 
HETATM   16  C   UNL     1      27.752  45.128  53.812  1.00  0.00     0.018 A 
HETATM   17  C   UNL     1      28.531  45.288  54.967  1.00  0.00     0.037 A 
HETATM   18  C   UNL     1      29.591  44.422  55.228  1.00  0.00     0.068 A 
HETATM   19  C   UNL     1      29.889  43.417  54.307  1.00  0.00     0.037 A 
HETATM   20  C   UNL     1      29.110  43.250  53.158  1.00  0.00     0.018 A 
BRANCH  18  21
HETATM   21  O   UNL     1      30.407  44.464  56.324  1.00  0.00    -0.356 OA
HETATM   22  C   UNL     1      31.278  43.355  56.515  1.00  0.00     0.210 C 
ENDBRANCH  18  21
ENDBRANCH  13  15
ENDBRANCH  12  13
ENDBRANCH   6  11
ENDBRANCH   1   2
BRANCH   1  23
HETATM   23  C   UNL     1      21.362  47.506  48.611  1.00  0.00     0.162 C 
BRANCH  23  24
HETATM   24  O   UNL     1      21.169  46.784  47.378  1.00  0.00    -0.392 OA
HETATM   25  H   UNL     1      20.611  46.003  47.564  1.00  0.00     0.210 HD
ENDBRANCH  23  24
BRANCH  23  26
HETATM   26  C   UNL     1      20.005  48.135  48.982  1.00  0.00     0.265 C 
BRANCH  26  27
HETATM   27  N   UNL     1      20.236  49.035  50.171  1.00  0.00    -0.072 N 
HETATM   28  H   UNL     1      20.416  48.400  50.969  1.00  0.00     0.277 HD
HETATM   29  H   UNL     1      21.123  49.537  50.045  1.00  0.00     0.277 HD
BRANCH  27  30
HETATM   30  C   UNL     1      19.161  50.021  50.487  1.00  0.00     0.237 C 
BRANCH  30  31
HETATM   31  C   UNL     1      19.432  51.397  49.877  1.00  0.00     0.068 C 
BRANCH  31  32
HETATM   32  C   UNL     1      18.677  51.570  48.601  1.00  0.00    -0.029 A 
HETATM   33  C   UNL     1      17.353  52.098  48.466  1.00  0.00     0.001 A 
HETATM   34  C   UNL     1      17.017  52.047  47.115  1.00  0.00     0.043 A 
HETATM   35  C   UNL     1      16.401  52.608  49.373  1.00  0.00     0.051 A 
HETATM   36  C   UNL     1      15.774  52.470  46.631  1.00  0.00     0.033 A 
HETATM   37  N   UNL     1      18.104  51.536  46.445  1.00  0.00    -0.365 N 
HETATM   38  C   UNL     1      14.844  52.962  47.555  1.00  0.00     0.039 A 
HETATM   39  C   UNL     1      15.148  53.038  48.912  1.00  0.00     0.069 A 
HETATM   40  H   UNL     1      18.148  51.405  45.442  1.00  0.00     0.165 HD
HETATM   41  C   UNL     1      19.106  51.237  47.332  1.00  0.00     0.096 A 
BRANCH  39  42
HETATM   42  O   UNL     1      14.319  53.496  49.901  1.00  0.00    -0.356 OA
HETATM   43  C   UNL     1      14.942  54.007  51.076  1.00  0.00     0.210 C 
ENDBRANCH  39  42
ENDBRANCH  31  32
ENDBRANCH  30  31
ENDBRANCH  27  30
ENDBRANCH  26  27
ENDBRANCH  23  26
ENDBRANCH   1  23
TORSDOF 13
ENDMDL
MODEL 8
REMARK VINA RESULT:      -9.1      3.183     11.147
REMARK  13 active torsions:
REMARK  status: ('A' for Active; 'I' for Inactive)
REMARK    1  A    between atoms: O_2  and  C_3 
REMARK    2  A    between atoms: C_6  and  C_7 
REMARK    3  A    between atoms: C_7  and  C_8 
REMARK    4  A    between atoms: C_9  and  C_10 
REMARK    5  A    between atoms: N_17  and  C_18 
REMARK    6  A    between atoms: C_18  and  C_19 
REMARK    7  A    between atoms: C_19  and  O_20 
REMARK    8  A    between atoms: C_19  and  C_21 
REMARK    9  A    between atoms: C_21  and  N_22 
REMARK   10  A    between atoms: N_22  and  C_25 
REMARK   11  A    between atoms: C_25  and  C_26 
REMARK   12  A    between atoms: C_26  and  C_27 
REMARK   13  A    between atoms: C_32  and  O_33 
ROOT
HETATM    1  C   UNL     1      20.191  45.959  47.127  1.00  0.00     0.162 C 
ENDROOT
BRANCH   1   2
HETATM    2  N   UNL     1      21.084  46.934  47.734  1.00  0.00    -0.353 N 
HETATM    3  C   UNL     1      20.951  48.305  47.671  1.00  0.00     0.045 A 
HETATM    4  C   UNL     1      21.943  48.848  48.499  1.00  0.00     0.002 A 
HETATM    5  C   UNL     1      20.044  49.118  46.971  1.00  0.00     0.030 A 
HETATM    6  C   UNL     1      22.726  47.756  48.987  1.00  0.00    -0.008 A 
HETATM    7  C   UNL     1      21.975  50.250  48.675  1.00  0.00     0.014 A 
HETATM    8  C   UNL     1      22.157  46.593  48.515  1.00  0.00     0.103 A 
HETATM    9  C   UNL     1      21.063  51.062  47.994  1.00  0.00     0.001 A 
HETATM   10  C   UNL     1      20.119  50.502  47.145  1.00  0.00     0.002 A 
BRANCH   6  11
HETATM   11  C   UNL     1      23.894  47.765  49.809  1.00  0.00     0.018 C 
HETATM   12  C   UNL     1      24.559  46.667  50.208  1.00  0.00     0.056 C 
BRANCH  12  13
HETATM   13  C   UNL     1      25.778  46.791  51.052  1.00  0.00     0.182 C 
HETATM   14  O   UNL     1      26.366  47.865  51.147  1.00  0.00    -0.288 OA
BRANCH  13  15
HETATM   15  C   UNL     1      26.312  45.574  51.738  1.00  0.00     0.014 A 
HETATM   16  C   UNL     1      26.921  44.503  51.069  1.00  0.00     0.018 A 
HETATM   17  C   UNL     1      27.457  43.424  51.786  1.00  0.00     0.037 A 
HETATM   18  C   UNL     1      27.385  43.395  53.177  1.00  0.00     0.068 A 
HETATM   19  C   UNL     1      26.741  44.437  53.845  1.00  0.00     0.037 A 
HETATM   20  C   UNL     1      26.211  45.519  53.134  1.00  0.00     0.018 A 
BRANCH  18  21
HETATM   21  O   UNL     1      27.885  42.412  53.984  1.00  0.00    -0.356 OA
HETATM   22  C   UNL     1      28.127  41.148  53.377  1.00  0.00     0.210 C 
ENDBRANCH  18  21
ENDBRANCH  13  15
ENDBRANCH  12  13
ENDBRANCH   6  11
ENDBRANCH   1   2
BRANCH   1  23
HETATM   23  C   UNL     1      18.805  45.866  47.793  1.00  0.00     0.162 C 
BRANCH  23  24
HETATM   24  O   UNL     1      18.691  44.746  48.695  1.00  0.00    -0.392 OA
HETATM   25  H   UNL     1      19.154  44.975  49.526  1.00  0.00     0.210 HD
ENDBRANCH  23  24
BRANCH  23  26
HETATM   26  C   UNL     1      17.623  45.774  46.808  1.00  0.00     0.265 C 
BRANCH  26  27
HETATM   27  N   UNL     1      16.579  46.762  47.265  1.00  0.00    -0.072 N 
HETATM   28  H   UNL     1      15.704  46.216  47.362  1.00  0.00     0.277 HD
HETATM   29  H   UNL     1      16.795  47.061  48.223  1.00  0.00     0.277 HD
BRANCH  27  30
HETATM   30  C   UNL     1      16.379  47.971  46.412  1.00  0.00     0.237 C 
BRANCH  30  31
HETATM   31  C   UNL     1      15.246  48.863  46.921  1.00  0.00     0.068 C 
BRANCH  31  32
HETATM   32  C   UNL     1      15.741  50.246  47.190  1.00  0.00    -0.029 A 
HETATM   33  C   UNL     1      16.653  50.633  48.224  1.00  0.00     0.001 A 
HETATM   34  C   UNL     1      16.814  52.015  48.144  1.00  0.00     0.043 A 
HETATM   35  C   UNL     1      17.352  49.935  49.230  1.00  0.00     0.051 A 
HETATM   36  C   UNL     1      17.630  52.730  49.028  1.00  0.00     0.033 A 
HETATM   37  N   UNL     1      16.055  52.452  47.084  1.00  0.00    -0.365 N 
HETATM   38  C   UNL     1      18.304  52.013  50.024  1.00  0.00     0.039 A 
HETATM   39  C   UNL     1      18.175  50.630  50.128  1.00  0.00     0.069 A 
HETATM   40  H   UNL     1      15.997  53.416  46.781  1.00  0.00     0.165 HD
HETATM   41  C   UNL     1      15.397  51.396  46.508  1.00  0.00     0.096 A 
BRANCH  39  42
HETATM   42  O   UNL     1      18.781  49.830  51.059  1.00  0.00    -0.356 OA
HETATM   43  C   UNL     1      18.697  48.424  50.851  1.00  0.00     0.210 C 
ENDBRANCH  39  42
ENDBRANCH  31  32
ENDBRANCH  30  31
ENDBRANCH  27  30
ENDBRANCH  26  27
ENDBRANCH  23  26
ENDBRANCH   1  23
TORSDOF 13
ENDMDL
MODEL 9
REMARK VINA RESULT:      -9.0      3.717     11.978
REMARK  13 active torsions:
REMARK  status: ('A' for Active; 'I' for Inactive)
REMARK    1  A    between atoms: O_2  and  C_3 
REMARK    2  A    between atoms: C_6  and  C_7 
REMARK    3  A    between atoms: C_7  and  C_8 
REMARK    4  A    between atoms: C_9  and  C_10 
REMARK    5  A    between atoms: N_17  and  C_18 
REMARK    6  A    between atoms: C_18  and  C_19 
REMARK    7  A    between atoms: C_19  and  O_20 
REMARK    8  A    between atoms: C_19  and  C_21 
REMARK    9  A    between atoms: C_21  and  N_22 
REMARK   10  A    between atoms: N_22  and  C_25 
REMARK   11  A    between atoms: C_25  and  C_26 
REMARK   12  A    between atoms: C_26  and  C_27 
REMARK   13  A    between atoms: C_32  and  O_33 
ROOT
HETATM    1  C   UNL     1      26.187  45.429  53.882  1.00  0.00     0.162 C 
ENDROOT
BRANCH   1   2
HETATM    2  N   UNL     1      27.309  44.505  53.808  1.00  0.00    -0.353 N 
HETATM    3  C   UNL     1      28.468  44.576  54.552  1.00  0.00     0.045 A 
HETATM    4  C   UNL     1      29.209  43.422  54.261  1.00  0.00     0.002 A 
HETATM    5  C   UNL     1      28.929  45.542  55.463  1.00  0.00     0.030 A 
HETATM    6  C   UNL     1      28.492  42.707  53.251  1.00  0.00    -0.008 A 
HETATM    7  C   UNL     1      30.418  43.210  54.960  1.00  0.00     0.014 A 
HETATM    8  C   UNL     1      27.319  43.389  53.013  1.00  0.00     0.103 A 
HETATM    9  C   UNL     1      30.872  44.159  55.880  1.00  0.00     0.001 A 
HETATM   10  C   UNL     1      30.141  45.315  56.117  1.00  0.00     0.002 A 
BRANCH   6  11
HETATM   11  C   UNL     1      28.842  41.507  52.559  1.00  0.00     0.018 C 
HETATM   12  C   UNL     1      28.281  41.095  51.410  1.00  0.00     0.056 C 
BRANCH  12  13
HETATM   13  C   UNL     1      28.734  39.835  50.762  1.00  0.00     0.182 C 
HETATM   14  O   UNL     1      29.385  39.006  51.393  1.00  0.00    -0.288 OA
BRANCH  13  15
HETATM   15  C   UNL     1      28.434  39.616  49.312  1.00  0.00     0.014 A 
HETATM   16  C   UNL     1      28.173  40.650  48.403  1.00  0.00     0.018 A 
HETATM   17  C   UNL     1      27.964  40.373  47.045  1.00  0.00     0.037 A 
HETATM   18  C   UNL     1      28.005  39.060  46.578  1.00  0.00     0.068 A 
HETATM   19  C   UNL     1      28.222  38.024  47.487  1.00  0.00     0.037 A 
HETATM   20  C   UNL     1      28.437  38.297  48.841  1.00  0.00     0.018 A 
BRANCH  18  21
HETATM   21  O   UNL     1      27.837  38.667  45.280  1.00  0.00    -0.356 OA
HETATM   22  C   UNL     1      28.855  37.842  44.725  1.00  0.00     0.210 C 
ENDBRANCH  18  21
ENDBRANCH  13  15
ENDBRANCH  12  13
ENDBRANCH   6  11
ENDBRANCH   1   2
BRANCH   1  23
HETATM   23  C   UNL     1      26.320  46.665  52.972  1.00  0.00     0.162 C 
BRANCH  23  24
HETATM   24  O   UNL     1      25.403  47.721  53.323  1.00  0.00    -0.392 OA
HETATM   25  H   UNL     1      25.295  47.722  54.296  1.00  0.00     0.210 HD
ENDBRANCH  23  24
BRANCH  23  26
HETATM   26  C   UNL     1      26.128  46.380  51.470  1.00  0.00     0.265 C 
BRANCH  26  27
HETATM   27  N   UNL     1      24.784  46.941  51.074  1.00  0.00    -0.072 N 
HETATM   28  H   UNL     1      24.119  46.150  51.156  1.00  0.00     0.277 HD
HETATM   29  H   UNL     1      24.472  47.605  51.792  1.00  0.00     0.277 HD
BRANCH  27  30
HETATM   30  C   UNL     1      24.696  47.595  49.736  1.00  0.00     0.237 C 
BRANCH  30  31
HETATM   31  C   UNL     1      23.263  47.650  49.206  1.00  0.00     0.068 C 
BRANCH  31  32
HETATM   32  C   UNL     1      22.846  49.060  48.946  1.00  0.00    -0.029 A 
HETATM   33  C   UNL     1      21.512  49.575  49.017  1.00  0.00     0.001 A 
HETATM   34  C   UNL     1      21.565  50.922  48.664  1.00  0.00     0.043 A 
HETATM   35  C   UNL     1      20.259  49.016  49.339  1.00  0.00     0.051 A 
HETATM   36  C   UNL     1      20.425  51.731  48.609  1.00  0.00     0.033 A 
HETATM   37  N   UNL     1      22.883  51.227  48.418  1.00  0.00    -0.365 N 
HETATM   38  C   UNL     1      19.191  51.147  48.924  1.00  0.00     0.039 A 
HETATM   39  C   UNL     1      19.101  49.806  49.290  1.00  0.00     0.069 A 
HETATM   40  H   UNL     1      23.219  52.146  48.159  1.00  0.00     0.165 HD
HETATM   41  C   UNL     1      23.662  50.110  48.576  1.00  0.00     0.096 A 
BRANCH  39  42
HETATM   42  O   UNL     1      17.954  49.134  49.615  1.00  0.00    -0.356 OA
HETATM   43  C   UNL     1      17.324  48.398  48.571  1.00  0.00     0.210 C 
ENDBRANCH  39  42
ENDBRANCH  31  32
ENDBRANCH  30  31
ENDBRANCH  27  30
ENDBRANCH  26  27
ENDBRANCH  23  26
ENDBRANCH   1  23
TORSDOF 13
ENDMDL
MODEL 10
REMARK VINA RESULT:      -8.9      3.131     10.920
REMARK  13 active torsions:
REMARK  status: ('A' for Active; 'I' for Inactive)
REMARK    1  A    between atoms: O_2  and  C_3 
REMARK    2  A    between atoms: C_6  and  C_7 
REMARK    3  A    between atoms: C_7  and  C_8 
REMARK    4  A    between atoms: C_9  and  C_10 
REMARK    5  A    between atoms: N_17  and  C_18 
REMARK    6  A    between atoms: C_18  and  C_19 
REMARK    7  A    between atoms: C_19  and  O_20 
REMARK    8  A    between atoms: C_19  and  C_21 
REMARK    9  A    between atoms: C_21  and  N_22 
REMARK   10  A    between atoms: N_22  and  C_25 
REMARK   11  A    between atoms: C_25  and  C_26 
REMARK   12  A    between atoms: C_26  and  C_27 
REMARK   13  A    between atoms: C_32  and  O_33 
ROOT
HETATM    1  C   UNL     1      24.009  43.641  50.419  1.00  0.00     0.162 C 
ENDROOT
BRANCH   1   2
HETATM    2  N   UNL     1      25.148  43.611  51.323  1.00  0.00    -0.353 N 
HETATM    3  C   UNL     1      26.124  42.637  51.366  1.00  0.00     0.045 A 
HETATM    4  C   UNL     1      27.091  43.071  52.283  1.00  0.00     0.002 A 
HETATM    5  C   UNL     1      26.251  41.421  50.674  1.00  0.00     0.030 A 
HETATM    6  C   UNL     1      26.613  44.293  52.850  1.00  0.00    -0.008 A 
HETATM    7  C   UNL     1      28.250  42.282  52.455  1.00  0.00     0.014 A 
HETATM    8  C   UNL     1      25.428  44.607  52.222  1.00  0.00     0.103 A 
HETATM    9  C   UNL     1      28.390  41.079  51.757  1.00  0.00     0.001 A 
HETATM   10  C   UNL     1      27.396  40.650  50.888  1.00  0.00     0.002 A 
BRANCH   6  11
HETATM   11  C   UNL     1      27.181  45.107  53.877  1.00  0.00     0.018 C 
HETATM   12  C   UNL     1      26.689  46.292  54.276  1.00  0.00     0.056 C 
BRANCH  12  13
HETATM   13  C   UNL     1      27.351  47.052  55.369  1.00  0.00     0.182 C 
HETATM   14  O   UNL     1      27.035  48.216  55.603  1.00  0.00    -0.288 OA
BRANCH  13  15
HETATM   15  C   UNL     1      28.450  46.398  56.146  1.00  0.00     0.014 A 
HETATM   16  C   UNL     1      28.548  46.437  57.544  1.00  0.00     0.018 A 
HETATM   17  C   UNL     1      29.571  45.744  58.208  1.00  0.00     0.037 A 
HETATM   18  C   UNL     1      30.513  45.012  57.486  1.00  0.00     0.068 A 
HETATM   19  C   UNL     1      30.444  45.007  56.093  1.00  0.00     0.037 A 
HETATM   20  C   UNL     1      29.421  45.690  55.427  1.00  0.00     0.018 A 
BRANCH  18  21
HETATM   21  O   UNL     1      31.540  44.285  58.018  1.00  0.00    -0.356 OA
HETATM   22  C   UNL     1      32.048  43.220  57.222  1.00  0.00     0.210 C 
ENDBRANCH  18  21
ENDBRANCH  13  15
ENDBRANCH  12  13
ENDBRANCH   6  11
ENDBRANCH   1   2
BRANCH   1  23
HETATM   23  C   UNL     1      24.271  44.376  49.090  1.00  0.00     0.162 C 
BRANCH  23  24
HETATM   24  O   UNL     1      24.952  45.634  49.270  1.00  0.00    -0.392 OA
HETATM   25  H   UNL     1      25.150  46.004  48.386  1.00  0.00     0.210 HD
ENDBRANCH  23  24
BRANCH  23  26
HETATM   26  C   UNL     1      23.009  44.661  48.253  1.00  0.00     0.265 C 
BRANCH  26  27
HETATM   27  N   UNL     1      21.849  44.773  49.212  1.00  0.00    -0.072 N 
HETATM   28  H   UNL     1      21.624  43.800  49.490  1.00  0.00     0.277 HD
HETATM   29  H   UNL     1      22.173  45.213  50.081  1.00  0.00     0.277 HD
BRANCH  27  30
HETATM   30  C   UNL     1      20.640  45.497  48.722  1.00  0.00     0.237 C 
BRANCH  30  31
HETATM   31  C   UNL     1      20.871  46.170  47.368  1.00  0.00     0.068 C 
BRANCH  31  32
HETATM   32  C   UNL     1      20.712  47.650  47.477  1.00  0.00    -0.029 A 
HETATM   33  C   UNL     1      21.705  48.577  47.931  1.00  0.00     0.001 A 
HETATM   34  C   UNL     1      21.132  49.846  47.914  1.00  0.00     0.043 A 
HETATM   35  C   UNL     1      23.040  48.451  48.367  1.00  0.00     0.051 A 
HETATM   36  C   UNL     1      21.825  50.992  48.321  1.00  0.00     0.033 A 
HETATM   37  N   UNL     1      19.849  49.707  47.438  1.00  0.00    -0.365 N 
HETATM   38  C   UNL     1      23.147  50.836  48.759  1.00  0.00     0.039 A 
HETATM   39  C   UNL     1      23.756  49.584  48.780  1.00  0.00     0.069 A 
HETATM   40  H   UNL     1      19.203  50.474  47.302  1.00  0.00     0.165 HD
HETATM   41  C   UNL     1      19.583  48.387  47.181  1.00  0.00     0.096 A 
BRANCH  39  42
HETATM   42  O   UNL     1      25.035  49.316  49.189  1.00  0.00    -0.356 OA
HETATM   43  C   UNL     1      26.088  49.783  48.352  1.00  0.00     0.210 C 
ENDBRANCH  39  42
ENDBRANCH  31  32
ENDBRANCH  30  31
ENDBRANCH  27  30
ENDBRANCH  26  27
ENDBRANCH  23  26
ENDBRANCH   1  23
TORSDOF 13
ENDMDL
