MODEL 1
REMARK VINA RESULT:      -9.3      0.000      0.000
REMARK  5 active torsions:
REMARK  status: ('A' for Active; 'I' for Inactive)
REMARK    1  A    between atoms: C_4  and  N_5 
REMARK       I    between atoms: N_5  and  C_6 
REMARK       I    between atoms: C_6  and  N_7 
REMARK    2  A    between atoms: N_7  and  C_8 
REMARK    3  A    between atoms: C_8  and  C_9 
REMARK       I    between atoms: C_9  and  N_10 
REMARK    4  A    between atoms: N_10  and  C_11 
REMARK    5  A    between atoms: C_13  and  C_14 
ROOT
HETATM    1  C   UNL     1      25.097  46.904  50.281  1.00  0.00     0.239 C 
HETATM    2  N   UNL     1      24.621  47.438  49.097  1.00  0.00    -0.326 N 
HETATM    3  O   UNL     1      25.110  47.452  51.380  1.00  0.00    -0.271 OA
HETATM    4  H   UNL     1      24.859  46.907  48.255  1.00  0.00     0.169 HD
ENDROOT
BRANCH   1   5
HETATM    5  C   UNL     1      25.568  45.448  50.123  1.00  0.00     0.227 C 
BRANCH   5   6
HETATM    6  N   UNL     1      26.133  44.831  51.311  1.00  0.00    -0.334 N 
HETATM    7  C   UNL     1      25.346  44.150  52.184  1.00  0.00     0.321 C 
HETATM    8  N   UNL     1      25.886  43.769  53.373  1.00  0.00    -0.309 N 
HETATM    9  O   UNL     1      24.159  43.920  51.953  1.00  0.00    -0.247 OA
HETATM   10  H   UNL     1      25.168  43.415  53.994  1.00  0.00     0.170 HD
HETATM   11  H   UNL     1      26.819  45.402  51.782  1.00  0.00     0.164 HD
BRANCH   8  12
HETATM   12  C   UNL     1      27.191  43.809  53.903  1.00  0.00     0.036 A 
HETATM   13  C   UNL     1      27.740  44.891  54.598  1.00  0.00     0.036 A 
HETATM   14  C   UNL     1      29.030  44.812  55.153  1.00  0.00    -0.060 A 
HETATM   15  C   UNL     1      29.608  45.975  55.905  1.00  0.00     0.048 C 
HETATM   16  C   UNL     1      29.795  43.660  54.949  1.00  0.00     0.007 A 
HETATM   17  C   UNL     1      29.279  42.599  54.213  1.00  0.00     0.003 A 
HETATM   18  C   UNL     1      27.986  42.676  53.691  1.00  0.00     0.029 A 
ENDBRANCH   8  12
ENDBRANCH   5   6
ENDBRANCH   1   5
BRANCH   2  19
HETATM   19  C   UNL     1      23.876  48.617  48.908  1.00  0.00     0.035 A 
HETATM   20  C   UNL     1      22.520  48.577  49.271  1.00  0.00     0.042 A 
HETATM   21  C   UNL     1      21.711  49.723  49.199  1.00  0.00    -0.021 A 
HETATM   22  C   UNL     1      22.275  50.910  48.716  1.00  0.00     0.012 A 
HETATM   23  C   UNL     1      23.617  50.952  48.334  1.00  0.00     0.003 A 
HETATM   24  C   UNL     1      24.416  49.811  48.438  1.00  0.00     0.029 A 
BRANCH  21  25
HETATM   25  C   UNL     1      20.322  49.697  49.633  1.00  0.00     0.010 A 
HETATM   26  C   UNL     1      19.498  50.716  50.169  1.00  0.00     0.152 A 
HETATM   27  N   UNL     1      18.274  50.285  50.485  1.00  0.00    -0.187 NA
HETATM   28  N   UNL     1      18.307  48.985  50.156  1.00  0.00    -0.289 N 
HETATM   29  H   UNL     1      17.476  48.427  50.315  1.00  0.00     0.188 HD
HETATM   30  C   UNL     1      19.508  48.584  49.646  1.00  0.00     0.123 A 
ENDBRANCH  21  25
ENDBRANCH   2  19
TORSDOF 5
ENDMDL
MODEL 2
REMARK VINA RESULT:      -9.1      2.480      9.896
REMARK  5 active torsions:
REMARK  status: ('A' for Active; 'I' for Inactive)
REMARK    1  A    between atoms: C_4  and  N_5 
REMARK       I    between atoms: N_5  and  C_6 
REMARK       I    between atoms: C_6  and  N_7 
REMARK    2  A    between atoms: N_7  and  C_8 
REMARK    3  A    between atoms: C_8  and  C_9 
REMARK       I    between atoms: C_9  and  N_10 
REMARK    4  A    between atoms: N_10  and  C_11 
REMARK    5  A    between atoms: C_13  and  C_14 
ROOT
HETATM    1  C   UNL     1      26.252  45.139  51.896  1.00  0.00     0.239 C 
HETATM    2  N   UNL     1      26.719  44.574  53.069  1.00  0.00    -0.326 N 
HETATM    3  O   UNL     1      26.927  45.493  50.933  1.00  0.00    -0.271 OA
HETATM    4  H   UNL     1      26.033  44.514  53.826  1.00  0.00     0.169 HD
ENDROOT
BRANCH   1   5
HETATM    5  C   UNL     1      24.717  45.226  51.856  1.00  0.00     0.227 C 
BRANCH   5   6
HETATM    6  N   UNL     1      24.159  46.178  50.908  1.00  0.00    -0.334 N 
HETATM    7  C   UNL     1      23.767  45.781  49.670  1.00  0.00     0.321 C 
HETATM    8  N   UNL     1      23.444  46.739  48.761  1.00  0.00    -0.309 N 
HETATM    9  O   UNL     1      23.749  44.595  49.338  1.00  0.00    -0.247 OA
HETATM   10  H   UNL     1      23.324  46.331  47.841  1.00  0.00     0.170 HD
HETATM   11  H   UNL     1      24.639  47.065  50.890  1.00  0.00     0.164 HD
BRANCH   8  12
HETATM   12  C   UNL     1      23.294  48.138  48.837  1.00  0.00     0.036 A 
HETATM   13  C   UNL     1      22.116  48.799  49.197  1.00  0.00     0.036 A 
HETATM   14  C   UNL     1      22.081  50.199  49.315  1.00  0.00    -0.060 A 
HETATM   15  C   UNL     1      20.814  50.900  49.711  1.00  0.00     0.048 C 
HETATM   16  C   UNL     1      23.223  50.942  49.002  1.00  0.00     0.007 A 
HETATM   17  C   UNL     1      24.385  50.298  48.590  1.00  0.00     0.003 A 
HETATM   18  C   UNL     1      24.418  48.905  48.505  1.00  0.00     0.029 A 
ENDBRANCH   8  12
ENDBRANCH   5   6
ENDBRANCH   1   5
BRANCH   2  19
HETATM   19  C   UNL     1      28.011  44.094  53.352  1.00  0.00     0.035 A 
HETATM   20  C   UNL     1      28.592  44.507  54.562  1.00  0.00     0.042 A 
HETATM   21  C   UNL     1      29.843  44.021  54.976  1.00  0.00    -0.021 A 
HETATM   22  C   UNL     1      30.528  43.137  54.133  1.00  0.00     0.012 A 
HETATM   23  C   UNL     1      29.967  42.737  52.919  1.00  0.00     0.003 A 
HETATM   24  C   UNL     1      28.710  43.209  52.535  1.00  0.00     0.029 A 
BRANCH  21  25
HETATM   25  C   UNL     1      30.417  44.401  56.258  1.00  0.00     0.010 A 
HETATM   26  C   UNL     1      31.369  43.750  57.079  1.00  0.00     0.152 A 
HETATM   27  N   UNL     1      31.615  44.407  58.216  1.00  0.00    -0.187 NA
HETATM   28  N   UNL     1      30.817  45.483  58.131  1.00  0.00    -0.289 N 
HETATM   29  H   UNL     1      30.820  46.145  58.900  1.00  0.00     0.188 HD
HETATM   30  C   UNL     1      30.080  45.525  56.984  1.00  0.00     0.123 A 
ENDBRANCH  21  25
ENDBRANCH   2  19
TORSDOF 5
ENDMDL
MODEL 3
REMARK VINA RESULT:      -8.9      1.619      2.356
REMARK  5 active torsions:
REMARK  status: ('A' for Active; 'I' for Inactive)
REMARK    1  A    between atoms: C_4  and  N_5 
REMARK       I    between atoms: N_5  and  C_6 
REMARK       I    between atoms: C_6  and  N_7 
REMARK    2  A    between atoms: N_7  and  C_8 
REMARK    3  A    between atoms: C_8  and  C_9 
REMARK       I    between atoms: C_9  and  N_10 
REMARK    4  A    between atoms: N_10  and  C_11 
REMARK    5  A    between atoms: C_13  and  C_14 
ROOT
HETATM    1  C   UNL     1      25.178  47.163  50.930  1.00  0.00     0.239 C 
HETATM    2  N   UNL     1      24.022  47.467  50.232  1.00  0.00    -0.326 N 
HETATM    3  O   UNL     1      26.250  47.759  50.867  1.00  0.00    -0.271 OA
HETATM    4  H   UNL     1      23.289  46.755  50.275  1.00  0.00     0.169 HD
ENDROOT
BRANCH   1   5
HETATM    5  C   UNL     1      24.983  45.995  51.910  1.00  0.00     0.227 C 
BRANCH   5   6
HETATM    6  N   UNL     1      26.008  45.844  52.930  1.00  0.00    -0.334 N 
HETATM    7  C   UNL     1      26.191  46.796  53.881  1.00  0.00     0.321 C 
HETATM    8  N   UNL     1      27.286  46.702  54.681  1.00  0.00    -0.309 N 
HETATM    9  O   UNL     1      25.431  47.757  53.999  1.00  0.00    -0.247 OA
HETATM   10  H   UNL     1      27.397  47.544  55.235  1.00  0.00     0.170 HD
HETATM   11  H   UNL     1      26.882  45.481  52.580  1.00  0.00     0.164 HD
BRANCH   8  12
HETATM   12  C   UNL     1      28.283  45.721  54.851  1.00  0.00     0.036 A 
HETATM   13  C   UNL     1      28.410  44.565  54.075  1.00  0.00     0.036 A 
HETATM   14  C   UNL     1      29.481  43.677  54.273  1.00  0.00    -0.060 A 
HETATM   15  C   UNL     1      29.615  42.443  53.429  1.00  0.00     0.048 C 
HETATM   16  C   UNL     1      30.393  43.921  55.305  1.00  0.00     0.007 A 
HETATM   17  C   UNL     1      30.244  45.039  56.119  1.00  0.00     0.003 A 
HETATM   18  C   UNL     1      29.194  45.931  55.894  1.00  0.00     0.029 A 
ENDBRANCH   8  12
ENDBRANCH   5   6
ENDBRANCH   1   5
BRANCH   2  19
HETATM   19  C   UNL     1      23.742  48.613  49.465  1.00  0.00     0.035 A 
HETATM   20  C   UNL     1      22.472  49.191  49.626  1.00  0.00     0.042 A 
HETATM   21  C   UNL     1      22.122  50.382  48.968  1.00  0.00    -0.021 A 
HETATM   22  C   UNL     1      23.058  50.969  48.108  1.00  0.00     0.012 A 
HETATM   23  C   UNL     1      24.315  50.390  47.927  1.00  0.00     0.003 A 
HETATM   24  C   UNL     1      24.658  49.220  48.610  1.00  0.00     0.029 A 
BRANCH  21  25
HETATM   25  C   UNL     1      20.829  51.013  49.182  1.00  0.00     0.010 A 
HETATM   26  C   UNL     1      19.895  50.881  50.238  1.00  0.00     0.152 A 
HETATM   27  N   UNL     1      18.791  51.610  50.052  1.00  0.00    -0.187 NA
HETATM   28  N   UNL     1      19.010  52.211  48.873  1.00  0.00    -0.289 N 
HETATM   29  H   UNL     1      18.291  52.824  48.505  1.00  0.00     0.188 HD
HETATM   30  C   UNL     1      20.211  51.886  48.312  1.00  0.00     0.123 A 
ENDBRANCH  21  25
ENDBRANCH   2  19
TORSDOF 5
ENDMDL
MODEL 4
REMARK VINA RESULT:      -8.9      2.163      3.088
REMARK  5 active torsions:
REMARK  status: ('A' for Active; 'I' for Inactive)
REMARK    1  A    between atoms: C_4  and  N_5 
REMARK       I    between atoms: N_5  and  C_6 
REMARK       I    between atoms: C_6  and  N_7 
REMARK    2  A    between atoms: N_7  and  C_8 
REMARK    3  A    between atoms: C_8  and  C_9 
REMARK       I    between atoms: C_9  and  N_10 
REMARK    4  A    between atoms: N_10  and  C_11 
REMARK    5  A    between atoms: C_13  and  C_14 
ROOT
HETATM    1  C   UNL     1      26.263  44.940  50.416  1.00  0.00     0.239 C 
HETATM    2  N   UNL     1      25.551  46.111  50.607  1.00  0.00    -0.326 N 
HETATM    3  O   UNL     1      26.971  44.662  49.452  1.00  0.00    -0.271 OA
HETATM    4  H   UNL     1      24.877  46.089  51.377  1.00  0.00     0.169 HD
ENDROOT
BRANCH   1   5
HETATM    5  C   UNL     1      26.155  43.984  51.615  1.00  0.00     0.227 C 
BRANCH   5   6
HETATM    6  N   UNL     1      27.338  43.882  52.454  1.00  0.00    -0.334 N 
HETATM    7  C   UNL     1      28.240  42.884  52.268  1.00  0.00     0.321 C 
HETATM    8  N   UNL     1      29.215  42.718  53.202  1.00  0.00    -0.309 N 
HETATM    9  O   UNL     1      28.167  42.103  51.319  1.00  0.00    -0.247 OA
HETATM   10  H   UNL     1      29.722  41.856  53.039  1.00  0.00     0.170 HD
HETATM   11  H   UNL     1      27.163  44.061  53.431  1.00  0.00     0.164 HD
BRANCH   8  12
HETATM   12  C   UNL     1      29.613  43.459  54.333  1.00  0.00     0.036 A 
HETATM   13  C   UNL     1      30.581  43.056  55.256  1.00  0.00     0.036 A 
HETATM   14  C   UNL     1      30.963  43.897  56.316  1.00  0.00    -0.060 A 
HETATM   15  C   UNL     1      32.011  43.459  57.297  1.00  0.00     0.048 C 
HETATM   16  C   UNL     1      30.315  45.124  56.485  1.00  0.00     0.007 A 
HETATM   17  C   UNL     1      29.311  45.512  55.604  1.00  0.00     0.003 A 
HETATM   18  C   UNL     1      28.961  44.682  54.537  1.00  0.00     0.029 A 
ENDBRANCH   8  12
ENDBRANCH   5   6
ENDBRANCH   1   5
BRANCH   2  19
HETATM   19  C   UNL     1      25.623  47.307  49.869  1.00  0.00     0.035 A 
HETATM   20  C   UNL     1      24.406  47.918  49.526  1.00  0.00     0.042 A 
HETATM   21  C   UNL     1      24.370  49.154  48.862  1.00  0.00    -0.021 A 
HETATM   22  C   UNL     1      25.583  49.758  48.508  1.00  0.00     0.012 A 
HETATM   23  C   UNL     1      26.797  49.148  48.828  1.00  0.00     0.003 A 
HETATM   24  C   UNL     1      26.816  47.931  49.513  1.00  0.00     0.029 A 
BRANCH  21  25
HETATM   25  C   UNL     1      23.110  49.816  48.561  1.00  0.00     0.010 A 
HETATM   26  C   UNL     1      22.590  51.063  48.988  1.00  0.00     0.152 A 
HETATM   27  N   UNL     1      21.364  51.305  48.518  1.00  0.00    -0.187 NA
HETATM   28  N   UNL     1      21.088  50.213  47.790  1.00  0.00    -0.289 N 
HETATM   29  H   UNL     1      20.186  50.157  47.329  1.00  0.00     0.188 HD
HETATM   30  C   UNL     1      22.096  49.293  47.786  1.00  0.00     0.123 A 
ENDBRANCH  21  25
ENDBRANCH   2  19
TORSDOF 5
ENDMDL
MODEL 5
REMARK VINA RESULT:      -8.8      4.069      7.730
REMARK  5 active torsions:
REMARK  status: ('A' for Active; 'I' for Inactive)
REMARK    1  A    between atoms: C_4  and  N_5 
REMARK       I    between atoms: N_5  and  C_6 
REMARK       I    between atoms: C_6  and  N_7 
REMARK    2  A    between atoms: N_7  and  C_8 
REMARK    3  A    between atoms: C_8  and  C_9 
REMARK       I    between atoms: C_9  and  N_10 
REMARK    4  A    between atoms: N_10  and  C_11 
REMARK    5  A    between atoms: C_13  and  C_14 
ROOT
HETATM    1  C   UNL     1      25.228  46.637  51.242  1.00  0.00     0.239 C 
HETATM    2  N   UNL     1      25.404  45.985  52.449  1.00  0.00    -0.326 N 
HETATM    3  O   UNL     1      25.582  47.781  50.968  1.00  0.00    -0.271 OA
HETATM    4  H   UNL     1      24.885  45.109  52.549  1.00  0.00     0.169 HD
ENDROOT
BRANCH   1   5
HETATM    5  C   UNL     1      24.583  45.736  50.175  1.00  0.00     0.227 C 
BRANCH   5   6
HETATM    6  N   UNL     1      24.970  44.336  50.209  1.00  0.00    -0.334 N 
HETATM    7  C   UNL     1      24.059  43.367  50.485  1.00  0.00     0.321 C 
HETATM    8  N   UNL     1      24.512  42.103  50.701  1.00  0.00    -0.309 N 
HETATM    9  O   UNL     1      22.858  43.611  50.596  1.00  0.00    -0.247 OA
HETATM   10  H   UNL     1      23.766  41.512  51.050  1.00  0.00     0.170 HD
HETATM   11  H   UNL     1      25.855  44.167  50.662  1.00  0.00     0.164 HD
BRANCH   8  12
HETATM   12  C   UNL     1      25.775  41.491  50.582  1.00  0.00     0.036 A 
HETATM   13  C   UNL     1      26.776  41.521  51.557  1.00  0.00     0.036 A 
HETATM   14  C   UNL     1      27.981  40.820  51.377  1.00  0.00    -0.060 A 
HETATM   15  C   UNL     1      29.046  40.850  52.434  1.00  0.00     0.048 C 
HETATM   16  C   UNL     1      28.205  40.139  50.177  1.00  0.00     0.007 A 
HETATM   17  C   UNL     1      27.239  40.147  49.177  1.00  0.00     0.003 A 
HETATM   18  C   UNL     1      26.033  40.822  49.378  1.00  0.00     0.029 A 
ENDBRANCH   8  12
ENDBRANCH   5   6
ENDBRANCH   1   5
BRANCH   2  19
HETATM   19  C   UNL     1      26.183  46.384  53.551  1.00  0.00     0.035 A 
HETATM   20  C   UNL     1      27.240  45.537  53.922  1.00  0.00     0.042 A 
HETATM   21  C   UNL     1      28.126  45.883  54.955  1.00  0.00    -0.021 A 
HETATM   22  C   UNL     1      27.913  47.084  55.643  1.00  0.00     0.012 A 
HETATM   23  C   UNL     1      26.853  47.922  55.294  1.00  0.00     0.003 A 
HETATM   24  C   UNL     1      25.997  47.576  54.246  1.00  0.00     0.029 A 
BRANCH  21  25
HETATM   25  C   UNL     1      29.257  45.035  55.299  1.00  0.00     0.010 A 
HETATM   26  C   UNL     1      29.650  43.766  54.807  1.00  0.00     0.152 A 
HETATM   27  N   UNL     1      30.742  43.288  55.408  1.00  0.00    -0.187 NA
HETATM   28  N   UNL     1      31.055  44.247  56.293  1.00  0.00    -0.289 N 
HETATM   29  H   UNL     1      31.863  44.106  56.890  1.00  0.00     0.188 HD
HETATM   30  C   UNL     1      30.199  45.309  56.269  1.00  0.00     0.123 A 
ENDBRANCH  21  25
ENDBRANCH   2  19
TORSDOF 5
ENDMDL
MODEL 6
REMARK VINA RESULT:      -8.6      4.763      7.727
REMARK  5 active torsions:
REMARK  status: ('A' for Active; 'I' for Inactive)
REMARK    1  A    between atoms: C_4  and  N_5 
REMARK       I    between atoms: N_5  and  C_6 
REMARK       I    between atoms: C_6  and  N_7 
REMARK    2  A    between atoms: N_7  and  C_8 
REMARK    3  A    between atoms: C_8  and  C_9 
REMARK       I    between atoms: C_9  and  N_10 
REMARK    4  A    between atoms: N_10  and  C_11 
REMARK    5  A    between atoms: C_13  and  C_14 
ROOT
HETATM    1  C   UNL     1      25.226  45.335  52.055  1.00  0.00     0.239 C 
HETATM    2  N   UNL     1      25.982  45.013  50.941  1.00  0.00    -0.326 N 
HETATM    3  O   UNL     1      24.265  44.708  52.495  1.00  0.00    -0.271 OA
HETATM    4  H   UNL     1      26.623  45.745  50.626  1.00  0.00     0.169 HD
ENDROOT
BRANCH   1   5
HETATM    5  C   UNL     1      25.763  46.572  52.793  1.00  0.00     0.227 C 
BRANCH   5   6
HETATM    6  N   UNL     1      26.687  46.309  53.885  1.00  0.00    -0.334 N 
HETATM    7  C   UNL     1      26.750  47.137  54.959  1.00  0.00     0.321 C 
HETATM    8  N   UNL     1      27.764  46.959  55.848  1.00  0.00    -0.309 N 
HETATM    9  O   UNL     1      25.956  48.064  55.119  1.00  0.00    -0.247 OA
HETATM   10  H   UNL     1      27.796  47.726  56.510  1.00  0.00     0.170 HD
HETATM   11  H   UNL     1      27.601  46.006  53.583  1.00  0.00     0.164 HD
BRANCH   8  12
HETATM   12  C   UNL     1      28.765  45.979  55.995  1.00  0.00     0.036 A 
HETATM   13  C   UNL     1      29.047  44.976  55.063  1.00  0.00     0.036 A 
HETATM   14  C   UNL     1      30.115  44.083  55.264  1.00  0.00    -0.060 A 
HETATM   15  C   UNL     1      30.416  43.015  54.254  1.00  0.00     0.048 C 
HETATM   16  C   UNL     1      30.861  44.161  56.444  1.00  0.00     0.007 A 
HETATM   17  C   UNL     1      30.554  45.121  57.403  1.00  0.00     0.003 A 
HETATM   18  C   UNL     1      29.511  46.021  57.180  1.00  0.00     0.029 A 
ENDBRANCH   8  12
ENDBRANCH   5   6
ENDBRANCH   1   5
BRANCH   2  19
HETATM   19  C   UNL     1      25.963  43.825  50.187  1.00  0.00     0.035 A 
HETATM   20  C   UNL     1      26.916  42.848  50.517  1.00  0.00     0.042 A 
HETATM   21  C   UNL     1      26.930  41.596  49.880  1.00  0.00    -0.021 A 
HETATM   22  C   UNL     1      25.990  41.350  48.872  1.00  0.00     0.012 A 
HETATM   23  C   UNL     1      25.052  42.323  48.524  1.00  0.00     0.003 A 
HETATM   24  C   UNL     1      25.035  43.553  49.186  1.00  0.00     0.029 A 
BRANCH  21  25
HETATM   25  C   UNL     1      27.878  40.561  50.264  1.00  0.00     0.010 A 
HETATM   26  C   UNL     1      28.326  39.409  49.573  1.00  0.00     0.152 A 
HETATM   27  N   UNL     1      29.185  38.675  50.285  1.00  0.00    -0.187 NA
HETATM   28  N   UNL     1      29.290  39.351  51.439  1.00  0.00    -0.289 N 
HETATM   29  H   UNL     1      29.894  38.976  52.163  1.00  0.00     0.188 HD
HETATM   30  C   UNL     1      28.528  40.482  51.478  1.00  0.00     0.123 A 
ENDBRANCH  21  25
ENDBRANCH   2  19
TORSDOF 5
ENDMDL
MODEL 7
REMARK VINA RESULT:      -8.6      2.365      9.203
REMARK  5 active torsions:
REMARK  status: ('A' for Active; 'I' for Inactive)
REMARK    1  A    between atoms: C_4  and  N_5 
REMARK       I    between atoms: N_5  and  C_6 
REMARK       I    between atoms: C_6  and  N_7 
REMARK    2  A    between atoms: N_7  and  C_8 
REMARK    3  A    between atoms: C_8  and  C_9 
REMARK       I    between atoms: C_9  and  N_10 
REMARK    4  A    between atoms: N_10  and  C_11 
REMARK    5  A    between atoms: C_13  and  C_14 
ROOT
HETATM    1  C   UNL     1      24.806  44.905  51.372  1.00  0.00     0.239 C 
HETATM    2  N   UNL     1      25.853  45.767  51.643  1.00  0.00    -0.326 N 
HETATM    3  O   UNL     1      24.203  44.206  52.182  1.00  0.00    -0.271 OA
HETATM    4  H   UNL     1      26.345  46.125  50.821  1.00  0.00     0.169 HD
ENDROOT
BRANCH   1   5
HETATM    5  C   UNL     1      24.373  44.951  49.897  1.00  0.00     0.227 C 
BRANCH   5   6
HETATM    6  N   UNL     1      23.506  46.055  49.523  1.00  0.00    -0.334 N 
HETATM    7  C   UNL     1      22.428  45.855  48.721  1.00  0.00     0.321 C 
HETATM    8  N   UNL     1      21.773  46.946  48.242  1.00  0.00    -0.309 N 
HETATM    9  O   UNL     1      22.068  44.729  48.378  1.00  0.00    -0.247 OA
HETATM   10  H   UNL     1      21.096  46.675  47.538  1.00  0.00     0.170 HD
HETATM   11  H   UNL     1      24.001  46.904  49.293  1.00  0.00     0.164 HD
BRANCH   8  12
HETATM   12  C   UNL     1      21.879  48.329  48.491  1.00  0.00     0.036 A 
HETATM   13  C   UNL     1      20.899  49.108  49.113  1.00  0.00     0.036 A 
HETATM   14  C   UNL     1      21.124  50.470  49.383  1.00  0.00    -0.060 A 
HETATM   15  C   UNL     1      20.069  51.297  50.059  1.00  0.00     0.048 C 
HETATM   16  C   UNL     1      22.318  51.064  48.965  1.00  0.00     0.007 A 
HETATM   17  C   UNL     1      23.277  50.310  48.297  1.00  0.00     0.003 A 
HETATM   18  C   UNL     1      23.057  48.952  48.059  1.00  0.00     0.029 A 
ENDBRANCH   8  12
ENDBRANCH   5   6
ENDBRANCH   1   5
BRANCH   2  19
HETATM   19  C   UNL     1      26.332  46.191  52.897  1.00  0.00     0.035 A 
HETATM   20  C   UNL     1      27.380  45.446  53.463  1.00  0.00     0.042 A 
HETATM   21  C   UNL     1      27.983  45.833  54.670  1.00  0.00    -0.021 A 
HETATM   22  C   UNL     1      27.491  46.967  55.329  1.00  0.00     0.012 A 
HETATM   23  C   UNL     1      26.437  47.702  54.783  1.00  0.00     0.003 A 
HETATM   24  C   UNL     1      25.866  47.319  53.568  1.00  0.00     0.029 A 
BRANCH  21  25
HETATM   25  C   UNL     1      29.108  45.097  55.225  1.00  0.00     0.010 A 
HETATM   26  C   UNL     1      30.033  45.440  56.241  1.00  0.00     0.152 A 
HETATM   27  N   UNL     1      30.959  44.499  56.444  1.00  0.00    -0.187 NA
HETATM   28  N   UNL     1      30.636  43.548  55.554  1.00  0.00    -0.289 N 
HETATM   29  H   UNL     1      31.213  42.715  55.509  1.00  0.00     0.188 HD
HETATM   30  C   UNL     1      29.540  43.857  54.801  1.00  0.00     0.123 A 
ENDBRANCH  21  25
ENDBRANCH   2  19
TORSDOF 5
ENDMDL
MODEL 8
REMARK VINA RESULT:      -8.5      2.776      9.032
REMARK  5 active torsions:
REMARK  status: ('A' for Active; 'I' for Inactive)
REMARK    1  A    between atoms: C_4  and  N_5 
REMARK       I    between atoms: N_5  and  C_6 
REMARK       I    between atoms: C_6  and  N_7 
REMARK    2  A    between atoms: N_7  and  C_8 
REMARK    3  A    between atoms: C_8  and  C_9 
REMARK       I    between atoms: C_9  and  N_10 
REMARK    4  A    between atoms: N_10  and  C_11 
REMARK    5  A    between atoms: C_13  and  C_14 
ROOT
HETATM    1  C   UNL     1      25.860  42.539  50.269  1.00  0.00     0.239 C 
HETATM    2  N   UNL     1      26.754  43.298  51.002  1.00  0.00    -0.326 N 
HETATM    3  O   UNL     1      25.861  41.317  50.149  1.00  0.00    -0.271 OA
HETATM    4  H   UNL     1      26.705  44.306  50.838  1.00  0.00     0.169 HD
ENDROOT
BRANCH   1   5
HETATM    5  C   UNL     1      24.745  43.390  49.638  1.00  0.00     0.227 C 
BRANCH   5   6
HETATM    6  N   UNL     1      24.883  44.830  49.788  1.00  0.00    -0.334 N 
HETATM    7  C   UNL     1      24.534  45.446  50.947  1.00  0.00     0.321 C 
HETATM    8  N   UNL     1      24.493  46.806  50.963  1.00  0.00    -0.309 N 
HETATM    9  O   UNL     1      24.207  44.815  51.951  1.00  0.00    -0.247 OA
HETATM   10  H   UNL     1      24.072  47.139  51.822  1.00  0.00     0.170 HD
HETATM   11  H   UNL     1      24.597  45.355  48.975  1.00  0.00     0.164 HD
BRANCH   8  12
HETATM   12  C   UNL     1      24.867  47.799  50.037  1.00  0.00     0.036 A 
HETATM   13  C   UNL     1      23.975  48.579  49.294  1.00  0.00     0.036 A 
HETATM   14  C   UNL     1      24.441  49.597  48.444  1.00  0.00    -0.060 A 
HETATM   15  C   UNL     1      23.476  50.435  47.658  1.00  0.00     0.048 C 
HETATM   16  C   UNL     1      25.818  49.786  48.291  1.00  0.00     0.007 A 
HETATM   17  C   UNL     1      26.715  48.980  48.984  1.00  0.00     0.003 A 
HETATM   18  C   UNL     1      26.241  47.991  49.848  1.00  0.00     0.029 A 
ENDBRANCH   8  12
ENDBRANCH   5   6
ENDBRANCH   1   5
BRANCH   2  19
HETATM   19  C   UNL     1      27.725  42.857  51.921  1.00  0.00     0.035 A 
HETATM   20  C   UNL     1      28.135  43.774  52.902  1.00  0.00     0.042 A 
HETATM   21  C   UNL     1      29.038  43.407  53.914  1.00  0.00    -0.021 A 
HETATM   22  C   UNL     1      29.558  42.107  53.906  1.00  0.00     0.012 A 
HETATM   23  C   UNL     1      29.171  41.196  52.922  1.00  0.00     0.003 A 
HETATM   24  C   UNL     1      28.251  41.568  51.939  1.00  0.00     0.029 A 
BRANCH  21  25
HETATM   25  C   UNL     1      29.415  44.339  54.966  1.00  0.00     0.010 A 
HETATM   26  C   UNL     1      28.849  45.577  55.357  1.00  0.00     0.152 A 
HETATM   27  N   UNL     1      29.513  46.161  56.358  1.00  0.00    -0.187 NA
HETATM   28  N   UNL     1      30.512  45.302  56.612  1.00  0.00    -0.289 N 
HETATM   29  H   UNL     1      31.173  45.536  57.345  1.00  0.00     0.188 HD
HETATM   30  C   UNL     1      30.499  44.200  55.807  1.00  0.00     0.123 A 
ENDBRANCH  21  25
ENDBRANCH   2  19
TORSDOF 5
ENDMDL
MODEL 9
REMARK VINA RESULT:      -8.5      1.823      2.715
REMARK  5 active torsions:
REMARK  status: ('A' for Active; 'I' for Inactive)
REMARK    1  A    between atoms: C_4  and  N_5 
REMARK       I    between atoms: N_5  and  C_6 
REMARK       I    between atoms: C_6  and  N_7 
REMARK    2  A    between atoms: N_7  and  C_8 
REMARK    3  A    between atoms: C_8  and  C_9 
REMARK       I    between atoms: C_9  and  N_10 
REMARK    4  A    between atoms: N_10  and  C_11 
REMARK    5  A    between atoms: C_13  and  C_14 
ROOT
HETATM    1  C   UNL     1      25.376  44.433  50.378  1.00  0.00     0.239 C 
HETATM    2  N   UNL     1      25.085  45.713  50.814  1.00  0.00    -0.326 N 
HETATM    3  O   UNL     1      25.633  44.091  49.227  1.00  0.00    -0.271 OA
HETATM    4  H   UNL     1      24.721  45.774  51.769  1.00  0.00     0.169 HD
ENDROOT
BRANCH   1   5
HETATM    5  C   UNL     1      25.433  43.417  51.531  1.00  0.00     0.227 C 
BRANCH   5   6
HETATM    6  N   UNL     1      26.652  43.424  52.324  1.00  0.00    -0.334 N 
HETATM    7  C   UNL     1      27.466  42.338  52.359  1.00  0.00     0.321 C 
HETATM    8  N   UNL     1      28.479  42.324  53.267  1.00  0.00    -0.309 N 
HETATM    9  O   UNL     1      27.281  41.357  51.639  1.00  0.00    -0.247 OA
HETATM   10  H   UNL     1      28.911  41.408  53.306  1.00  0.00     0.170 HD
HETATM   11  H   UNL     1      26.548  43.852  53.231  1.00  0.00     0.164 HD
BRANCH   8  12
HETATM   12  C   UNL     1      28.995  43.284  54.160  1.00  0.00     0.036 A 
HETATM   13  C   UNL     1      28.375  44.495  54.481  1.00  0.00     0.036 A 
HETATM   14  C   UNL     1      28.932  45.360  55.439  1.00  0.00    -0.060 A 
HETATM   15  C   UNL     1      28.254  46.654  55.784  1.00  0.00     0.048 C 
HETATM   16  C   UNL     1      30.156  45.032  56.029  1.00  0.00     0.007 A 
HETATM   17  C   UNL     1      30.809  43.855  55.677  1.00  0.00     0.003 A 
HETATM   18  C   UNL     1      30.233  42.989  54.746  1.00  0.00     0.029 A 
ENDBRANCH   8  12
ENDBRANCH   5   6
ENDBRANCH   1   5
BRANCH   2  19
HETATM   19  C   UNL     1      25.208  46.925  50.109  1.00  0.00     0.035 A 
HETATM   20  C   UNL     1      24.020  47.615  49.819  1.00  0.00     0.042 A 
HETATM   21  C   UNL     1      24.040  48.871  49.191  1.00  0.00    -0.021 A 
HETATM   22  C   UNL     1      25.276  49.414  48.820  1.00  0.00     0.012 A 
HETATM   23  C   UNL     1      26.461  48.725  49.088  1.00  0.00     0.003 A 
HETATM   24  C   UNL     1      26.426  47.488  49.737  1.00  0.00     0.029 A 
BRANCH  21  25
HETATM   25  C   UNL     1      22.813  49.614  48.946  1.00  0.00     0.010 A 
HETATM   26  C   UNL     1      22.602  50.974  48.610  1.00  0.00     0.152 A 
HETATM   27  N   UNL     1      21.309  51.290  48.502  1.00  0.00    -0.187 NA
HETATM   28  N   UNL     1      20.682  50.135  48.773  1.00  0.00    -0.289 N 
HETATM   29  H   UNL     1      19.668  50.124  48.763  1.00  0.00     0.188 HD
HETATM   30  C   UNL     1      21.535  49.105  49.047  1.00  0.00     0.123 A 
ENDBRANCH  21  25
ENDBRANCH   2  19
TORSDOF 5
ENDMDL
MODEL 10
REMARK VINA RESULT:      -8.4      2.583      9.888
REMARK  5 active torsions:
REMARK  status: ('A' for Active; 'I' for Inactive)
REMARK    1  A    between atoms: C_4  and  N_5 
REMARK       I    between atoms: N_5  and  C_6 
REMARK       I    between atoms: C_6  and  N_7 
REMARK    2  A    between atoms: N_7  and  C_8 
REMARK    3  A    between atoms: C_8  and  C_9 
REMARK       I    between atoms: C_9  and  N_10 
REMARK    4  A    between atoms: N_10  and  C_11 
REMARK    5  A    between atoms: C_13  and  C_14 
ROOT
HETATM    1  C   UNL     1      25.943  47.244  50.767  1.00  0.00     0.239 C 
HETATM    2  N   UNL     1      26.529  45.999  50.623  1.00  0.00    -0.326 N 
HETATM    3  O   UNL     1      25.363  47.671  51.762  1.00  0.00    -0.271 OA
HETATM    4  H   UNL     1      26.802  45.755  49.668  1.00  0.00     0.169 HD
ENDROOT
BRANCH   1   5
HETATM    5  C   UNL     1      26.155  48.139  49.534  1.00  0.00     0.227 C 
BRANCH   5   6
HETATM    6  N   UNL     1      24.978  48.844  49.052  1.00  0.00    -0.334 N 
HETATM    7  C   UNL     1      25.091  49.852  48.149  1.00  0.00     0.321 C 
HETATM    8  N   UNL     1      23.990  50.605  47.886  1.00  0.00    -0.309 N 
HETATM    9  O   UNL     1      26.162  50.131  47.610  1.00  0.00    -0.247 OA
HETATM   10  H   UNL     1      24.235  51.413  47.326  1.00  0.00     0.170 HD
HETATM   11  H   UNL     1      24.302  49.050  49.771  1.00  0.00     0.164 HD
BRANCH   8  12
HETATM   12  C   UNL     1      22.636  50.509  48.264  1.00  0.00     0.036 A 
HETATM   13  C   UNL     1      21.624  49.940  47.484  1.00  0.00     0.036 A 
HETATM   14  C   UNL     1      20.312  49.825  47.976  1.00  0.00    -0.060 A 
HETATM   15  C   UNL     1      19.235  49.205  47.135  1.00  0.00     0.048 C 
HETATM   16  C   UNL     1      20.004  50.347  49.236  1.00  0.00     0.007 A 
HETATM   17  C   UNL     1      20.991  50.963  49.998  1.00  0.00     0.003 A 
HETATM   18  C   UNL     1      22.297  51.046  49.513  1.00  0.00     0.029 A 
ENDBRANCH   8  12
ENDBRANCH   5   6
ENDBRANCH   1   5
BRANCH   2  19
HETATM   19  C   UNL     1      26.773  45.030  51.614  1.00  0.00     0.035 A 
HETATM   20  C   UNL     1      27.234  43.777  51.179  1.00  0.00     0.042 A 
HETATM   21  C   UNL     1      27.585  42.769  52.092  1.00  0.00    -0.021 A 
HETATM   22  C   UNL     1      27.428  43.023  53.460  1.00  0.00     0.012 A 
HETATM   23  C   UNL     1      26.951  44.259  53.900  1.00  0.00     0.003 A 
HETATM   24  C   UNL     1      26.633  45.261  52.980  1.00  0.00     0.029 A 
BRANCH  21  25
HETATM   25  C   UNL     1      28.121  41.493  51.643  1.00  0.00     0.010 A 
HETATM   26  C   UNL     1      27.946  40.789  50.426  1.00  0.00     0.152 A 
HETATM   27  N   UNL     1      28.582  39.615  50.407  1.00  0.00    -0.187 NA
HETATM   28  N   UNL     1      29.165  39.557  51.614  1.00  0.00    -0.289 N 
HETATM   29  H   UNL     1      29.710  38.734  51.846  1.00  0.00     0.188 HD
HETATM   30  C   UNL     1      28.918  40.652  52.390  1.00  0.00     0.123 A 
ENDBRANCH  21  25
ENDBRANCH   2  19
TORSDOF 5
ENDMDL
