MODEL 1
REMARK VINA RESULT:     -10.0      0.000      0.000
REMARK  8 active torsions:
REMARK  status: ('A' for Active; 'I' for Inactive)
REMARK    1  A    between atoms: C_8  and  C_9 
REMARK    2  A    between atoms: C_9  and  C_10 
REMARK       I    between atoms: C_10  and  N_11 
REMARK    3  A    between atoms: N_11  and  C_27 
REMARK    4  A    between atoms: N_11  and  C_12 
REMARK    5  A    between atoms: C_12  and  C_13 
REMARK    6  A    between atoms: C_12  and  C_22 
REMARK       I    between atoms: C_13  and  N_14 
REMARK    7  A    between atoms: N_14  and  C_15 
REMARK    8  A    between atoms: C_27  and  C_28 
ROOT
HETATM    1  C   UNL     1      26.095  46.721  51.258  1.00  0.00     0.225 C 
HETATM    2  N   UNL     1      25.993  45.375  51.618  1.00  0.00    -0.330 N 
HETATM    3  O   UNL     1      25.883  47.625  52.071  1.00  0.00    -0.273 OA
ENDROOT
BRANCH   2   4
HETATM    4  C   UNL     1      25.711  45.077  53.034  1.00  0.00     0.165 C 
BRANCH   4   5
HETATM    5  C   UNL     1      26.877  45.362  53.954  1.00  0.00    -0.037 A 
HETATM    6  C   UNL     1      27.943  44.450  54.050  1.00  0.00     0.048 A 
HETATM    7  C   UNL     1      28.964  44.728  54.934  1.00  0.00     0.105 A 
HETATM    8  C   UNL     1      28.973  45.872  55.696  1.00  0.00     0.105 A 
HETATM    9  O   UNL     1      30.044  43.938  55.178  1.00  0.00    -0.323 OA
HETATM   10  O   UNL     1      30.059  45.951  56.509  1.00  0.00    -0.323 OA
HETATM   11  C   UNL     1      27.967  46.807  55.608  1.00  0.00     0.040 A 
HETATM   12  C   UNL     1      30.735  44.721  56.175  1.00  0.00     0.352 A 
HETATM   13  C   UNL     1      26.915  46.547  54.724  1.00  0.00     0.012 A 
ENDBRANCH   4   5
ENDBRANCH   2   4
BRANCH   2  14
HETATM   14  C   UNL     1      25.831  44.294  50.608  1.00  0.00     0.219 C 
BRANCH  14  15
HETATM   15  C   UNL     1      24.341  44.041  50.208  1.00  0.00     0.246 C 
HETATM   16  N   UNL     1      24.022  44.008  48.870  1.00  0.00    -0.354 N 
HETATM   17  H   UNL     1      24.757  44.272  48.223  1.00  0.00     0.162 HD
HETATM   18  O   UNL     1      23.508  43.793  51.081  1.00  0.00    -0.271 OA
BRANCH  16  19
HETATM   19  C   UNL     1      22.680  43.922  48.291  1.00  0.00     0.084 C 
HETATM   20  C   UNL     1      21.888  45.241  48.257  1.00  0.00     0.025 C 
HETATM   21  C   UNL     1      21.968  46.042  46.961  1.00  0.00     0.002 C 
HETATM   22  C   UNL     1      21.813  45.171  45.722  1.00  0.00     0.000 C 
HETATM   23  C   UNL     1      22.799  44.011  45.721  1.00  0.00     0.002 C 
HETATM   24  C   UNL     1      22.649  43.146  46.968  1.00  0.00     0.025 C 
ENDBRANCH  16  19
ENDBRANCH  14  15
BRANCH  14  25
HETATM   25  C   UNL     1      26.637  43.048  50.945  1.00  0.00     0.014 A 
HETATM   26  S   UNL     1      25.939  41.490  50.665  1.00  0.00    -0.104 SA
HETATM   27  C   UNL     1      27.340  40.678  51.202  1.00  0.00     0.050 A 
HETATM   28  C   UNL     1      28.346  41.552  51.531  1.00  0.00     0.008 A 
HETATM   29  C   UNL     1      27.951  42.909  51.359  1.00  0.00     0.017 A 
ENDBRANCH  14  25
ENDBRANCH   2  14
BRANCH   1  30
HETATM   30  C   UNL     1      26.593  47.084  49.868  1.00  0.00     0.144 C 
BRANCH  30  31
HETATM   31  C   UNL     1      26.073  48.337  49.228  1.00  0.00    -0.021 A 
HETATM   32  C   UNL     1      24.732  48.827  49.054  1.00  0.00    -0.001 A 
HETATM   33  C   UNL     1      23.446  48.373  49.415  1.00  0.00     0.014 A 
HETATM   34  C   UNL     1      24.815  50.016  48.322  1.00  0.00     0.042 A 
HETATM   35  C   UNL     1      22.311  49.088  49.009  1.00  0.00     0.001 A 
HETATM   36  C   UNL     1      22.435  50.259  48.269  1.00  0.00     0.002 A 
HETATM   37  C   UNL     1      23.693  50.750  47.919  1.00  0.00     0.030 A 
HETATM   38  N   UNL     1      26.146  50.272  48.106  1.00  0.00    -0.365 N 
HETATM   39  H   UNL     1      26.501  51.078  47.611  1.00  0.00     0.165 HD
HETATM   40  C   UNL     1      26.908  49.270  48.635  1.00  0.00     0.097 A 
ENDBRANCH  30  31
ENDBRANCH   1  30
TORSDOF 8
ENDMDL
MODEL 2
REMARK VINA RESULT:      -9.8      2.891      7.030
REMARK  8 active torsions:
REMARK  status: ('A' for Active; 'I' for Inactive)
REMARK    1  A    between atoms: C_8  and  C_9 
REMARK    2  A    between atoms: C_9  and  C_10 
REMARK       I    between atoms: C_10  and  N_11 
REMARK    3  A    between atoms: N_11  and  C_27 
REMARK    4  A    between atoms: N_11  and  C_12 
REMARK    5  A    between atoms: C_12  and  C_13 
REMARK    6  A    between atoms: C_12  and  C_22 
REMARK       I    between atoms: C_13  and  N_14 
REMARK    7  A    between atoms: N_14  and  C_15 
REMARK    8  A    between atoms: C_27  and  C_28 
ROOT
HETATM    1  C   UNL     1      24.738  45.360  51.983  1.00  0.00     0.225 C 
HETATM    2  N   UNL     1      24.276  45.680  50.705  1.00  0.00    -0.330 N 
HETATM    3  O   UNL     1      24.384  44.327  52.559  1.00  0.00    -0.273 OA
ENDROOT
BRANCH   2   4
HETATM    4  C   UNL     1      23.415  44.689  50.034  1.00  0.00     0.165 C 
BRANCH   4   5
HETATM    5  C   UNL     1      24.172  43.483  49.520  1.00  0.00    -0.037 A 
HETATM    6  C   UNL     1      25.574  43.516  49.422  1.00  0.00     0.048 A 
HETATM    7  C   UNL     1      26.220  42.412  48.907  1.00  0.00     0.105 A 
HETATM    8  C   UNL     1      25.533  41.288  48.515  1.00  0.00     0.105 A 
HETATM    9  O   UNL     1      27.561  42.293  48.709  1.00  0.00    -0.323 OA
HETATM   10  O   UNL     1      26.353  40.319  48.026  1.00  0.00    -0.323 OA
HETATM   11  C   UNL     1      24.165  41.201  48.625  1.00  0.00     0.040 A 
HETATM   12  C   UNL     1      27.637  40.963  48.153  1.00  0.00     0.352 A 
HETATM   13  C   UNL     1      23.484  42.309  49.137  1.00  0.00     0.012 A 
ENDBRANCH   4   5
ENDBRANCH   2   4
BRANCH   2  14
HETATM   14  C   UNL     1      24.339  47.064  50.162  1.00  0.00     0.219 C 
BRANCH  14  15
HETATM   15  C   UNL     1      23.154  47.405  49.200  1.00  0.00     0.246 C 
HETATM   16  N   UNL     1      22.278  48.398  49.572  1.00  0.00    -0.354 N 
HETATM   17  H   UNL     1      22.385  48.768  50.510  1.00  0.00     0.162 HD
HETATM   18  O   UNL     1      23.078  46.848  48.104  1.00  0.00    -0.271 OA
BRANCH  16  19
HETATM   19  C   UNL     1      21.039  48.775  48.889  1.00  0.00     0.084 C 
HETATM   20  C   UNL     1      19.810  48.952  49.797  1.00  0.00     0.025 C 
HETATM   21  C   UNL     1      19.519  50.375  50.267  1.00  0.00     0.002 C 
HETATM   22  C   UNL     1      19.640  51.399  49.148  1.00  0.00     0.000 C 
HETATM   23  C   UNL     1      20.988  51.310  48.445  1.00  0.00     0.002 C 
HETATM   24  C   UNL     1      21.235  49.916  47.882  1.00  0.00     0.025 C 
ENDBRANCH  16  19
ENDBRANCH  14  15
BRANCH  14  25
HETATM   25  C   UNL     1      25.723  47.433  49.649  1.00  0.00     0.014 A 
HETATM   26  S   UNL     1      26.038  49.064  49.167  1.00  0.00    -0.104 SA
HETATM   27  C   UNL     1      27.666  48.722  48.789  1.00  0.00     0.050 A 
HETATM   28  C   UNL     1      27.997  47.421  49.074  1.00  0.00     0.008 A 
HETATM   29  C   UNL     1      26.890  46.690  49.591  1.00  0.00     0.017 A 
ENDBRANCH  14  25
ENDBRANCH   2  14
BRANCH   1  30
HETATM   30  C   UNL     1      25.794  46.238  52.634  1.00  0.00     0.144 C 
BRANCH  30  31
HETATM   31  C   UNL     1      26.844  45.584  53.482  1.00  0.00    -0.021 A 
HETATM   32  C   UNL     1      27.777  44.528  53.191  1.00  0.00    -0.001 A 
HETATM   33  C   UNL     1      28.083  43.748  52.057  1.00  0.00     0.014 A 
HETATM   34  C   UNL     1      28.479  44.257  54.370  1.00  0.00     0.042 A 
HETATM   35  C   UNL     1      29.033  42.722  52.147  1.00  0.00     0.001 A 
HETATM   36  C   UNL     1      29.700  42.473  53.342  1.00  0.00     0.002 A 
HETATM   37  C   UNL     1      29.441  43.245  54.475  1.00  0.00     0.030 A 
HETATM   38  N   UNL     1      28.038  45.141  55.322  1.00  0.00    -0.365 N 
HETATM   39  H   UNL     1      28.385  45.182  56.271  1.00  0.00     0.165 HD
HETATM   40  C   UNL     1      27.055  45.934  54.806  1.00  0.00     0.097 A 
ENDBRANCH  30  31
ENDBRANCH   1  30
TORSDOF 8
ENDMDL
MODEL 3
REMARK VINA RESULT:      -9.4      1.867      4.134
REMARK  8 active torsions:
REMARK  status: ('A' for Active; 'I' for Inactive)
REMARK    1  A    between atoms: C_8  and  C_9 
REMARK    2  A    between atoms: C_9  and  C_10 
REMARK       I    between atoms: C_10  and  N_11 
REMARK    3  A    between atoms: N_11  and  C_27 
REMARK    4  A    between atoms: N_11  and  C_12 
REMARK    5  A    between atoms: C_12  and  C_13 
REMARK    6  A    between atoms: C_12  and  C_22 
REMARK       I    between atoms: C_13  and  N_14 
REMARK    7  A    between atoms: N_14  and  C_15 
REMARK    8  A    between atoms: C_27  and  C_28 
ROOT
HETATM    1  C   UNL     1      25.669  45.863  51.348  1.00  0.00     0.225 C 
HETATM    2  N   UNL     1      25.666  44.518  51.726  1.00  0.00    -0.330 N 
HETATM    3  O   UNL     1      25.571  46.769  52.180  1.00  0.00    -0.273 OA
ENDROOT
BRANCH   2   4
HETATM    4  C   UNL     1      25.631  44.227  53.171  1.00  0.00     0.165 C 
BRANCH   4   5
HETATM    5  C   UNL     1      26.995  43.939  53.761  1.00  0.00    -0.037 A 
HETATM    6  C   UNL     1      27.642  44.904  54.553  1.00  0.00     0.048 A 
HETATM    7  C   UNL     1      28.903  44.617  55.033  1.00  0.00     0.105 A 
HETATM    8  C   UNL     1      29.521  43.416  54.776  1.00  0.00     0.105 A 
HETATM    9  O   UNL     1      29.680  45.449  55.777  1.00  0.00    -0.323 OA
HETATM   10  O   UNL     1      30.761  43.338  55.329  1.00  0.00    -0.323 OA
HETATM   11  C   UNL     1      28.909  42.433  54.034  1.00  0.00     0.040 A 
HETATM   12  C   UNL     1      30.855  44.630  55.963  1.00  0.00     0.352 A 
HETATM   13  C   UNL     1      27.634  42.700  53.529  1.00  0.00     0.012 A 
ENDBRANCH   4   5
ENDBRANCH   2   4
BRANCH   2  14
HETATM   14  C   UNL     1      25.368  43.424  50.764  1.00  0.00     0.219 C 
BRANCH  14  15
HETATM   15  C   UNL     1      26.633  42.905  50.006  1.00  0.00     0.246 C 
HETATM   16  N   UNL     1      26.875  41.551  49.993  1.00  0.00    -0.354 N 
HETATM   17  H   UNL     1      26.280  40.979  50.582  1.00  0.00     0.162 HD
HETATM   18  O   UNL     1      27.332  43.696  49.371  1.00  0.00    -0.271 OA
BRANCH  16  19
HETATM   19  C   UNL     1      28.063  40.878  49.464  1.00  0.00     0.084 C 
HETATM   20  C   UNL     1      28.461  39.576  50.180  1.00  0.00     0.025 C 
HETATM   21  C   UNL     1      27.937  38.281  49.564  1.00  0.00     0.002 C 
HETATM   22  C   UNL     1      28.087  38.249  48.050  1.00  0.00     0.000 C 
HETATM   23  C   UNL     1      27.457  39.471  47.395  1.00  0.00     0.002 C 
HETATM   24  C   UNL     1      28.055  40.766  47.934  1.00  0.00     0.025 C 
ENDBRANCH  16  19
ENDBRANCH  14  15
BRANCH  14  25
HETATM   25  C   UNL     1      24.160  43.724  49.888  1.00  0.00     0.014 A 
HETATM   26  S   UNL     1      24.199  43.282  48.216  1.00  0.00    -0.104 SA
HETATM   27  C   UNL     1      22.615  43.854  47.945  1.00  0.00     0.050 A 
HETATM   28  C   UNL     1      22.032  44.316  49.099  1.00  0.00     0.008 A 
HETATM   29  C   UNL     1      22.909  44.217  50.216  1.00  0.00     0.017 A 
ENDBRANCH  14  25
ENDBRANCH   2  14
BRANCH   1  30
HETATM   30  C   UNL     1      25.918  46.225  49.893  1.00  0.00     0.144 C 
BRANCH  30  31
HETATM   31  C   UNL     1      25.634  47.629  49.448  1.00  0.00    -0.021 A 
HETATM   32  C   UNL     1      24.395  48.303  49.168  1.00  0.00    -0.001 A 
HETATM   33  C   UNL     1      23.030  47.950  49.220  1.00  0.00     0.014 A 
HETATM   34  C   UNL     1      24.713  49.588  48.716  1.00  0.00     0.042 A 
HETATM   35  C   UNL     1      22.054  48.861  48.795  1.00  0.00     0.001 A 
HETATM   36  C   UNL     1      22.411  50.125  48.338  1.00  0.00     0.002 A 
HETATM   37  C   UNL     1      23.749  50.516  48.300  1.00  0.00     0.030 A 
HETATM   38  N   UNL     1      26.078  49.716  48.770  1.00  0.00    -0.365 N 
HETATM   39  H   UNL     1      26.585  50.551  48.513  1.00  0.00     0.165 HD
HETATM   40  C   UNL     1      26.641  48.548  49.198  1.00  0.00     0.097 A 
ENDBRANCH  30  31
ENDBRANCH   1  30
TORSDOF 8
ENDMDL
MODEL 4
REMARK VINA RESULT:      -9.1      2.483      7.584
REMARK  8 active torsions:
REMARK  status: ('A' for Active; 'I' for Inactive)
REMARK    1  A    between atoms: C_8  and  C_9 
REMARK    2  A    between atoms: C_9  and  C_10 
REMARK       I    between atoms: C_10  and  N_11 
REMARK    3  A    between atoms: N_11  and  C_27 
REMARK    4  A    between atoms: N_11  and  C_12 
REMARK    5  A    between atoms: C_12  and  C_13 
REMARK    6  A    between atoms: C_12  and  C_22 
REMARK       I    between atoms: C_13  and  N_14 
REMARK    7  A    between atoms: N_14  and  C_15 
REMARK    8  A    between atoms: C_27  and  C_28 
ROOT
HETATM    1  C   UNL     1      25.624  46.759  51.299  1.00  0.00     0.225 C 
HETATM    2  N   UNL     1      25.117  46.324  50.073  1.00  0.00    -0.330 N 
HETATM    3  O   UNL     1      26.156  47.867  51.422  1.00  0.00    -0.273 OA
ENDROOT
BRANCH   2   4
HETATM    4  C   UNL     1      25.164  47.277  48.949  1.00  0.00     0.165 C 
BRANCH   4   5
HETATM    5  C   UNL     1      24.093  48.344  49.020  1.00  0.00    -0.037 A 
HETATM    6  C   UNL     1      22.753  47.988  49.256  1.00  0.00     0.048 A 
HETATM    7  C   UNL     1      21.803  48.988  49.268  1.00  0.00     0.105 A 
HETATM    8  C   UNL     1      22.137  50.308  49.080  1.00  0.00     0.105 A 
HETATM    9  O   UNL     1      20.465  48.814  49.442  1.00  0.00    -0.323 OA
HETATM   10  O   UNL     1      21.056  51.131  49.117  1.00  0.00    -0.323 OA
HETATM   11  C   UNL     1      23.440  50.703  48.881  1.00  0.00     0.040 A 
HETATM   12  C   UNL     1      19.999  50.177  49.348  1.00  0.00     0.352 A 
HETATM   13  C   UNL     1      24.422  49.709  48.856  1.00  0.00     0.012 A 
ENDBRANCH   4   5
ENDBRANCH   2   4
BRANCH   2  14
HETATM   14  C   UNL     1      24.858  44.887  49.787  1.00  0.00     0.219 C 
BRANCH  14  15
HETATM   15  C   UNL     1      26.152  44.084  49.432  1.00  0.00     0.246 C 
HETATM   16  N   UNL     1      26.012  42.799  48.961  1.00  0.00    -0.354 N 
HETATM   17  H   UNL     1      25.078  42.406  48.988  1.00  0.00     0.162 HD
HETATM   18  O   UNL     1      27.251  44.636  49.497  1.00  0.00    -0.271 OA
BRANCH  16  19
HETATM   19  C   UNL     1      27.087  41.838  48.703  1.00  0.00     0.084 C 
HETATM   20  C   UNL     1      27.598  41.069  49.934  1.00  0.00     0.025 C 
HETATM   21  C   UNL     1      26.969  39.701  50.181  1.00  0.00     0.002 C 
HETATM   22  C   UNL     1      26.852  38.870  48.912  1.00  0.00     0.000 C 
HETATM   23  C   UNL     1      26.123  39.625  47.808  1.00  0.00     0.002 C 
HETATM   24  C   UNL     1      26.811  40.946  47.485  1.00  0.00     0.025 C 
ENDBRANCH  16  19
ENDBRANCH  14  15
BRANCH  14  25
HETATM   25  C   UNL     1      23.680  44.676  48.846  1.00  0.00     0.014 A 
HETATM   26  S   UNL     1      22.117  44.352  49.511  1.00  0.00    -0.104 SA
HETATM   27  C   UNL     1      21.388  44.285  47.969  1.00  0.00     0.050 A 
HETATM   28  C   UNL     1      22.283  44.561  46.966  1.00  0.00     0.008 A 
HETATM   29  C   UNL     1      23.591  44.810  47.471  1.00  0.00     0.017 A 
ENDBRANCH  14  25
ENDBRANCH   2  14
BRANCH   1  30
HETATM   30  C   UNL     1      25.411  45.905  52.538  1.00  0.00     0.144 C 
BRANCH  30  31
HETATM   31  C   UNL     1      26.559  45.720  53.485  1.00  0.00    -0.021 A 
HETATM   32  C   UNL     1      27.646  44.778  53.485  1.00  0.00    -0.001 A 
HETATM   33  C   UNL     1      28.064  43.732  52.636  1.00  0.00     0.014 A 
HETATM   34  C   UNL     1      28.393  45.005  54.646  1.00  0.00     0.042 A 
HETATM   35  C   UNL     1      29.167  42.943  52.987  1.00  0.00     0.001 A 
HETATM   36  C   UNL     1      29.876  43.190  54.158  1.00  0.00     0.002 A 
HETATM   37  C   UNL     1      29.507  44.235  55.006  1.00  0.00     0.030 A 
HETATM   38  N   UNL     1      27.825  46.071  55.297  1.00  0.00    -0.365 N 
HETATM   39  H   UNL     1      28.169  46.463  56.162  1.00  0.00     0.165 HD
HETATM   40  C   UNL     1      26.722  46.502  54.618  1.00  0.00     0.097 A 
ENDBRANCH  30  31
ENDBRANCH   1  30
TORSDOF 8
ENDMDL
MODEL 5
REMARK VINA RESULT:      -9.0      2.430      5.350
REMARK  8 active torsions:
REMARK  status: ('A' for Active; 'I' for Inactive)
REMARK    1  A    between atoms: C_8  and  C_9 
REMARK    2  A    between atoms: C_9  and  C_10 
REMARK       I    between atoms: C_10  and  N_11 
REMARK    3  A    between atoms: N_11  and  C_27 
REMARK    4  A    between atoms: N_11  and  C_12 
REMARK    5  A    between atoms: C_12  and  C_13 
REMARK    6  A    between atoms: C_12  and  C_22 
REMARK       I    between atoms: C_13  and  N_14 
REMARK    7  A    between atoms: N_14  and  C_15 
REMARK    8  A    between atoms: C_27  and  C_28 
ROOT
HETATM    1  C   UNL     1      23.688  44.866  48.703  1.00  0.00     0.225 C 
HETATM    2  N   UNL     1      24.651  45.402  49.561  1.00  0.00    -0.330 N 
HETATM    3  O   UNL     1      24.004  44.199  47.713  1.00  0.00    -0.273 OA
ENDROOT
BRANCH   2   4
HETATM    4  C   UNL     1      26.060  45.062  49.286  1.00  0.00     0.165 C 
BRANCH   4   5
HETATM    5  C   UNL     1      26.584  43.929  50.141  1.00  0.00    -0.037 A 
HETATM    6  C   UNL     1      27.713  44.123  50.958  1.00  0.00     0.048 A 
HETATM    7  C   UNL     1      28.183  43.050  51.687  1.00  0.00     0.105 A 
HETATM    8  C   UNL     1      27.568  41.822  51.649  1.00  0.00     0.105 A 
HETATM    9  O   UNL     1      29.280  43.054  52.492  1.00  0.00    -0.323 OA
HETATM   10  O   UNL     1      28.194  40.900  52.428  1.00  0.00    -0.323 OA
HETATM   11  C   UNL     1      26.443  41.600  50.890  1.00  0.00     0.040 A 
HETATM   12  C   UNL     1      29.278  41.689  52.960  1.00  0.00     0.352 A 
HETATM   13  C   UNL     1      25.948  42.667  50.135  1.00  0.00     0.012 A 
ENDBRANCH   4   5
ENDBRANCH   2   4
BRANCH   2  14
HETATM   14  C   UNL     1      24.349  46.522  50.491  1.00  0.00     0.219 C 
BRANCH  14  15
HETATM   15  C   UNL     1      24.422  47.928  49.810  1.00  0.00     0.246 C 
HETATM   16  N   UNL     1      23.305  48.730  49.851  1.00  0.00    -0.354 N 
HETATM   17  H   UNL     1      22.458  48.309  50.218  1.00  0.00     0.162 HD
HETATM   18  O   UNL     1      25.487  48.321  49.332  1.00  0.00    -0.271 OA
BRANCH  16  19
HETATM   19  C   UNL     1      23.119  50.010  49.165  1.00  0.00     0.084 C 
HETATM   20  C   UNL     1      22.693  49.915  47.690  1.00  0.00     0.025 C 
HETATM   21  C   UNL     1      21.194  50.001  47.415  1.00  0.00     0.002 C 
HETATM   22  C   UNL     1      20.514  51.108  48.208  1.00  0.00     0.000 C 
HETATM   23  C   UNL     1      20.800  50.993  49.699  1.00  0.00     0.002 C 
HETATM   24  C   UNL     1      22.298  51.014  49.985  1.00  0.00     0.025 C 
ENDBRANCH  16  19
ENDBRANCH  14  15
BRANCH  14  25
HETATM   25  C   UNL     1      25.086  46.401  51.818  1.00  0.00     0.014 A 
HETATM   26  S   UNL     1      24.783  45.031  52.829  1.00  0.00    -0.104 SA
HETATM   27  C   UNL     1      25.909  45.548  54.002  1.00  0.00     0.050 A 
HETATM   28  C   UNL     1      26.554  46.699  53.623  1.00  0.00     0.008 A 
HETATM   29  C   UNL     1      26.099  47.173  52.360  1.00  0.00     0.017 A 
ENDBRANCH  14  25
ENDBRANCH   2  14
BRANCH   1  30
HETATM   30  C   UNL     1      22.217  45.003  49.058  1.00  0.00     0.144 C 
BRANCH  30  31
HETATM   31  C   UNL     1      21.296  45.634  48.056  1.00  0.00    -0.021 A 
HETATM   32  C   UNL     1      20.211  46.565  48.219  1.00  0.00    -0.001 A 
HETATM   33  C   UNL     1      19.627  47.239  49.312  1.00  0.00     0.014 A 
HETATM   34  C   UNL     1      19.643  46.766  46.957  1.00  0.00     0.042 A 
HETATM   35  C   UNL     1      18.498  48.045  49.115  1.00  0.00     0.001 A 
HETATM   36  C   UNL     1      17.952  48.209  47.846  1.00  0.00     0.002 A 
HETATM   37  C   UNL     1      18.522  47.578  46.740  1.00  0.00     0.030 A 
HETATM   38  N   UNL     1      20.379  46.039  46.055  1.00  0.00    -0.365 N 
HETATM   39  H   UNL     1      20.199  46.010  45.061  1.00  0.00     0.165 HD
HETATM   40  C   UNL     1      21.365  45.351  46.701  1.00  0.00     0.097 A 
ENDBRANCH  30  31
ENDBRANCH   1  30
TORSDOF 8
ENDMDL
MODEL 6
REMARK VINA RESULT:      -8.9      2.550      8.940
REMARK  8 active torsions:
REMARK  status: ('A' for Active; 'I' for Inactive)
REMARK    1  A    between atoms: C_8  and  C_9 
REMARK    2  A    between atoms: C_9  and  C_10 
REMARK       I    between atoms: C_10  and  N_11 
REMARK    3  A    between atoms: N_11  and  C_27 
REMARK    4  A    between atoms: N_11  and  C_12 
REMARK    5  A    between atoms: C_12  and  C_13 
REMARK    6  A    between atoms: C_12  and  C_22 
REMARK       I    between atoms: C_13  and  N_14 
REMARK    7  A    between atoms: N_14  and  C_15 
REMARK    8  A    between atoms: C_27  and  C_28 
ROOT
HETATM    1  C   UNL     1      24.342  43.180  49.393  1.00  0.00     0.225 C 
HETATM    2  N   UNL     1      24.027  44.506  49.694  1.00  0.00    -0.330 N 
HETATM    3  O   UNL     1      23.464  42.346  49.148  1.00  0.00    -0.273 OA
ENDROOT
BRANCH   2   4
HETATM    4  C   UNL     1      22.606  44.893  49.621  1.00  0.00     0.165 C 
BRANCH   4   5
HETATM    5  C   UNL     1      22.131  45.181  48.213  1.00  0.00    -0.037 A 
HETATM    6  C   UNL     1      22.878  44.733  47.109  1.00  0.00     0.048 A 
HETATM    7  C   UNL     1      22.432  45.056  45.845  1.00  0.00     0.105 A 
HETATM    8  C   UNL     1      21.279  45.777  45.644  1.00  0.00     0.105 A 
HETATM    9  O   UNL     1      23.052  44.738  44.676  1.00  0.00    -0.323 OA
HETATM   10  O   UNL     1      21.023  45.997  44.327  1.00  0.00    -0.323 OA
HETATM   11  C   UNL     1      20.502  46.204  46.695  1.00  0.00     0.040 A 
HETATM   12  C   UNL     1      22.151  45.335  43.719  1.00  0.00     0.352 A 
HETATM   13  C   UNL     1      20.934  45.897  47.988  1.00  0.00     0.012 A 
ENDBRANCH   4   5
ENDBRANCH   2   4
BRANCH   2  14
HETATM   14  C   UNL     1      24.985  45.412  50.383  1.00  0.00     0.219 C 
BRANCH  14  15
HETATM   15  C   UNL     1      24.954  45.276  51.940  1.00  0.00     0.246 C 
HETATM   16  N   UNL     1      25.616  46.221  52.690  1.00  0.00    -0.354 N 
HETATM   17  H   UNL     1      26.189  46.883  52.180  1.00  0.00     0.162 HD
HETATM   18  O   UNL     1      24.276  44.390  52.463  1.00  0.00    -0.271 OA
BRANCH  16  19
HETATM   19  C   UNL     1      25.824  46.201  54.140  1.00  0.00     0.084 C 
HETATM   20  C   UNL     1      26.669  45.031  54.672  1.00  0.00     0.025 C 
HETATM   21  C   UNL     1      28.158  45.307  54.859  1.00  0.00     0.002 C 
HETATM   22  C   UNL     1      28.428  46.646  55.528  1.00  0.00     0.000 C 
HETATM   23  C   UNL     1      27.738  47.791  54.798  1.00  0.00     0.002 C 
HETATM   24  C   UNL     1      26.233  47.568  54.703  1.00  0.00     0.025 C 
ENDBRANCH  16  19
ENDBRANCH  14  15
BRANCH  14  25
HETATM   25  C   UNL     1      24.934  46.838  49.851  1.00  0.00     0.014 A 
HETATM   26  S   UNL     1      26.413  47.654  49.483  1.00  0.00    -0.104 SA
HETATM   27  C   UNL     1      25.600  49.056  48.951  1.00  0.00     0.050 A 
HETATM   28  C   UNL     1      24.236  48.903  48.986  1.00  0.00     0.008 A 
HETATM   29  C   UNL     1      23.856  47.622  49.478  1.00  0.00     0.017 A 
ENDBRANCH  14  25
ENDBRANCH   2  14
BRANCH   1  30
HETATM   30  C   UNL     1      25.800  42.777  49.243  1.00  0.00     0.144 C 
BRANCH  30  31
HETATM   31  C   UNL     1      26.439  41.984  50.344  1.00  0.00    -0.021 A 
HETATM   32  C   UNL     1      27.488  42.320  51.269  1.00  0.00    -0.001 A 
HETATM   33  C   UNL     1      28.273  43.465  51.519  1.00  0.00     0.014 A 
HETATM   34  C   UNL     1      27.745  41.180  52.038  1.00  0.00     0.042 A 
HETATM   35  C   UNL     1      29.289  43.421  52.483  1.00  0.00     0.001 A 
HETATM   36  C   UNL     1      29.524  42.264  53.217  1.00  0.00     0.002 A 
HETATM   37  C   UNL     1      28.748  41.122  53.014  1.00  0.00     0.030 A 
HETATM   38  N   UNL     1      26.859  40.210  51.642  1.00  0.00    -0.365 N 
HETATM   39  H   UNL     1      26.809  39.283  52.040  1.00  0.00     0.165 HD
HETATM   40  C   UNL     1      26.078  40.676  50.624  1.00  0.00     0.097 A 
ENDBRANCH  30  31
ENDBRANCH   1  30
TORSDOF 8
ENDMDL
MODEL 7
REMARK VINA RESULT:      -8.8      2.634      9.285
REMARK  8 active torsions:
REMARK  status: ('A' for Active; 'I' for Inactive)
REMARK    1  A    between atoms: C_8  and  C_9 
REMARK    2  A    between atoms: C_9  and  C_10 
REMARK       I    between atoms: C_10  and  N_11 
REMARK    3  A    between atoms: N_11  and  C_27 
REMARK    4  A    between atoms: N_11  and  C_12 
REMARK    5  A    between atoms: C_12  and  C_13 
REMARK    6  A    between atoms: C_12  and  C_22 
REMARK       I    between atoms: C_13  and  N_14 
REMARK    7  A    between atoms: N_14  and  C_15 
REMARK    8  A    between atoms: C_27  and  C_28 
ROOT
HETATM    1  C   UNL     1      25.320  42.359  49.556  1.00  0.00     0.225 C 
HETATM    2  N   UNL     1      24.845  43.585  50.027  1.00  0.00    -0.330 N 
HETATM    3  O   UNL     1      24.555  41.423  49.303  1.00  0.00    -0.273 OA
ENDROOT
BRANCH   2   4
HETATM    4  C   UNL     1      23.382  43.746  50.125  1.00  0.00     0.165 C 
BRANCH   4   5
HETATM    5  C   UNL     1      22.736  44.182  48.828  1.00  0.00    -0.037 A 
HETATM    6  C   UNL     1      23.418  44.021  47.609  1.00  0.00     0.048 A 
HETATM    7  C   UNL     1      22.809  44.473  46.456  1.00  0.00     0.105 A 
HETATM    8  C   UNL     1      21.561  45.047  46.471  1.00  0.00     0.105 A 
HETATM    9  O   UNL     1      23.343  44.431  45.205  1.00  0.00    -0.323 OA
HETATM   10  O   UNL     1      21.148  45.433  45.235  1.00  0.00    -0.323 OA
HETATM   11  C   UNL     1      20.846  45.191  47.637  1.00  0.00     0.040 A 
HETATM   12  C   UNL     1      22.283  45.039  44.436  1.00  0.00     0.352 A 
HETATM   13  C   UNL     1      21.441  44.749  48.822  1.00  0.00     0.012 A 
ENDBRANCH   4   5
ENDBRANCH   2   4
BRANCH   2  14
HETATM   14  C   UNL     1      25.725  44.563  50.721  1.00  0.00     0.219 C 
BRANCH  14  15
HETATM   15  C   UNL     1      25.825  44.321  52.262  1.00  0.00     0.246 C 
HETATM   16  N   UNL     1      27.068  44.368  52.850  1.00  0.00    -0.354 N 
HETATM   17  H   UNL     1      27.862  44.438  52.223  1.00  0.00     0.162 HD
HETATM   18  O   UNL     1      24.797  44.180  52.926  1.00  0.00    -0.271 OA
BRANCH  16  19
HETATM   19  C   UNL     1      27.394  44.038  54.238  1.00  0.00     0.084 C 
HETATM   20  C   UNL     1      28.496  42.981  54.426  1.00  0.00     0.025 C 
HETATM   21  C   UNL     1      29.911  43.514  54.635  1.00  0.00     0.002 C 
HETATM   22  C   UNL     1      29.963  44.674  55.619  1.00  0.00     0.000 C 
HETATM   23  C   UNL     1      29.001  45.788  55.229  1.00  0.00     0.002 C 
HETATM   24  C   UNL     1      27.568  45.279  55.123  1.00  0.00     0.025 C 
ENDBRANCH  16  19
ENDBRANCH  14  15
BRANCH  14  25
HETATM   25  C   UNL     1      25.452  46.001  50.303  1.00  0.00     0.014 A 
HETATM   26  S   UNL     1      26.742  46.949  49.648  1.00  0.00    -0.104 SA
HETATM   27  C   UNL     1      25.731  48.302  49.406  1.00  0.00     0.050 A 
HETATM   28  C   UNL     1      24.428  48.038  49.751  1.00  0.00     0.008 A 
HETATM   29  C   UNL     1      24.265  46.712  50.241  1.00  0.00     0.017 A 
ENDBRANCH  14  25
ENDBRANCH   2  14
BRANCH   1  30
HETATM   30  C   UNL     1      26.797  42.208  49.232  1.00  0.00     0.144 C 
BRANCH  30  31
HETATM   31  C   UNL     1      27.606  41.226  50.026  1.00  0.00    -0.021 A 
HETATM   32  C   UNL     1      28.363  40.073  49.620  1.00  0.00    -0.001 A 
HETATM   33  C   UNL     1      28.656  39.451  48.388  1.00  0.00     0.014 A 
HETATM   34  C   UNL     1      28.862  39.472  50.781  1.00  0.00     0.042 A 
HETATM   35  C   UNL     1      29.390  38.258  48.362  1.00  0.00     0.001 A 
HETATM   36  C   UNL     1      29.857  37.684  49.539  1.00  0.00     0.002 A 
HETATM   37  C   UNL     1      29.609  38.287  50.772  1.00  0.00     0.030 A 
HETATM   38  N   UNL     1      28.478  40.252  51.842  1.00  0.00    -0.365 N 
HETATM   39  H   UNL     1      28.713  40.061  52.807  1.00  0.00     0.165 HD
HETATM   40  C   UNL     1      27.719  41.299  51.406  1.00  0.00     0.097 A 
ENDBRANCH  30  31
ENDBRANCH   1  30
TORSDOF 8
ENDMDL
MODEL 8
REMARK VINA RESULT:      -8.7      2.555      6.894
REMARK  8 active torsions:
REMARK  status: ('A' for Active; 'I' for Inactive)
REMARK    1  A    between atoms: C_8  and  C_9 
REMARK    2  A    between atoms: C_9  and  C_10 
REMARK       I    between atoms: C_10  and  N_11 
REMARK    3  A    between atoms: N_11  and  C_27 
REMARK    4  A    between atoms: N_11  and  C_12 
REMARK    5  A    between atoms: C_12  and  C_13 
REMARK    6  A    between atoms: C_12  and  C_22 
REMARK       I    between atoms: C_13  and  N_14 
REMARK    7  A    between atoms: N_14  and  C_15 
REMARK    8  A    between atoms: C_27  and  C_28 
ROOT
HETATM    1  C   UNL     1      26.691  43.600  52.020  1.00  0.00     0.225 C 
HETATM    2  N   UNL     1      26.347  44.273  50.845  1.00  0.00    -0.330 N 
HETATM    3  O   UNL     1      27.432  42.612  52.006  1.00  0.00    -0.273 OA
ENDROOT
BRANCH   2   4
HETATM    4  C   UNL     1      26.978  43.809  49.596  1.00  0.00     0.165 C 
BRANCH   4   5
HETATM    5  C   UNL     1      26.772  42.334  49.327  1.00  0.00    -0.037 A 
HETATM    6  C   UNL     1      27.864  41.450  49.356  1.00  0.00     0.048 A 
HETATM    7  C   UNL     1      27.637  40.121  49.061  1.00  0.00     0.105 A 
HETATM    8  C   UNL     1      26.381  39.648  48.768  1.00  0.00     0.105 A 
HETATM    9  O   UNL     1      28.583  39.145  49.006  1.00  0.00    -0.323 OA
HETATM   10  O   UNL     1      26.375  38.316  48.496  1.00  0.00    -0.323 OA
HETATM   11  C   UNL     1      25.280  40.473  48.762  1.00  0.00     0.040 A 
HETATM   12  C   UNL     1      27.774  38.003  48.650  1.00  0.00     0.352 A 
HETATM   13  C   UNL     1      25.482  41.826  49.050  1.00  0.00     0.012 A 
ENDBRANCH   4   5
ENDBRANCH   2   4
BRANCH   2  14
HETATM   14  C   UNL     1      25.167  45.175  50.764  1.00  0.00     0.219 C 
BRANCH  14  15
HETATM   15  C   UNL     1      23.887  44.469  50.208  1.00  0.00     0.246 C 
HETATM   16  N   UNL     1      23.591  44.615  48.872  1.00  0.00    -0.354 N 
HETATM   17  H   UNL     1      24.159  45.275  48.352  1.00  0.00     0.162 HD
HETATM   18  O   UNL     1      23.225  43.737  50.944  1.00  0.00    -0.271 OA
BRANCH  16  19
HETATM   19  C   UNL     1      22.381  44.156  48.187  1.00  0.00     0.084 C 
HETATM   20  C   UNL     1      21.202  45.145  48.193  1.00  0.00     0.025 C 
HETATM   21  C   UNL     1      21.076  46.049  46.970  1.00  0.00     0.002 C 
HETATM   22  C   UNL     1      21.275  45.298  45.661  1.00  0.00     0.000 C 
HETATM   23  C   UNL     1      22.587  44.524  45.648  1.00  0.00     0.002 C 
HETATM   24  C   UNL     1      22.670  43.542  46.811  1.00  0.00     0.025 C 
ENDBRANCH  16  19
ENDBRANCH  14  15
BRANCH  14  25
HETATM   25  C   UNL     1      25.496  46.521  50.134  1.00  0.00     0.014 A 
HETATM   26  S   UNL     1      24.217  47.642  49.821  1.00  0.00    -0.104 SA
HETATM   27  C   UNL     1      25.290  48.817  49.207  1.00  0.00     0.050 A 
HETATM   28  C   UNL     1      26.598  48.410  49.286  1.00  0.00     0.008 A 
HETATM   29  C   UNL     1      26.717  47.104  49.841  1.00  0.00     0.017 A 
ENDBRANCH  14  25
ENDBRANCH   2  14
BRANCH   1  30
HETATM   30  C   UNL     1      26.242  44.164  53.358  1.00  0.00     0.144 C 
BRANCH  30  31
HETATM   31  C   UNL     1      27.247  44.895  54.198  1.00  0.00    -0.021 A 
HETATM   32  C   UNL     1      28.534  44.496  54.699  1.00  0.00    -0.001 A 
HETATM   33  C   UNL     1      29.336  43.340  54.591  1.00  0.00     0.014 A 
HETATM   34  C   UNL     1      29.015  45.543  55.492  1.00  0.00     0.042 A 
HETATM   35  C   UNL     1      30.547  43.259  55.292  1.00  0.00     0.001 A 
HETATM   36  C   UNL     1      30.984  44.317  56.082  1.00  0.00     0.002 A 
HETATM   37  C   UNL     1      30.229  45.485  56.189  1.00  0.00     0.030 A 
HETATM   38  N   UNL     1      28.094  46.558  55.433  1.00  0.00    -0.365 N 
HETATM   39  H   UNL     1      28.190  47.447  55.904  1.00  0.00     0.165 HD
HETATM   40  C   UNL     1      27.027  46.180  54.670  1.00  0.00     0.097 A 
ENDBRANCH  30  31
ENDBRANCH   1  30
TORSDOF 8
ENDMDL
MODEL 9
REMARK VINA RESULT:      -8.6      3.052      8.085
REMARK  8 active torsions:
REMARK  status: ('A' for Active; 'I' for Inactive)
REMARK    1  A    between atoms: C_8  and  C_9 
REMARK    2  A    between atoms: C_9  and  C_10 
REMARK       I    between atoms: C_10  and  N_11 
REMARK    3  A    between atoms: N_11  and  C_27 
REMARK    4  A    between atoms: N_11  and  C_12 
REMARK    5  A    between atoms: C_12  and  C_13 
REMARK    6  A    between atoms: C_12  and  C_22 
REMARK       I    between atoms: C_13  and  N_14 
REMARK    7  A    between atoms: N_14  and  C_15 
REMARK    8  A    between atoms: C_27  and  C_28 
ROOT
HETATM    1  C   UNL     1      24.883  44.738  50.917  1.00  0.00     0.225 C 
HETATM    2  N   UNL     1      24.581  44.077  49.725  1.00  0.00    -0.330 N 
HETATM    3  O   UNL     1      24.955  45.969  50.973  1.00  0.00    -0.273 OA
ENDROOT
BRANCH   2   4
HETATM    4  C   UNL     1      24.263  44.914  48.553  1.00  0.00     0.165 C 
BRANCH   4   5
HETATM    5  C   UNL     1      22.873  45.511  48.598  1.00  0.00    -0.037 A 
HETATM    6  C   UNL     1      22.701  46.906  48.576  1.00  0.00     0.048 A 
HETATM    7  C   UNL     1      21.419  47.407  48.664  1.00  0.00     0.105 A 
HETATM    8  C   UNL     1      20.322  46.584  48.748  1.00  0.00     0.105 A 
HETATM    9  O   UNL     1      21.080  48.724  48.696  1.00  0.00    -0.323 OA
HETATM   10  O   UNL     1      19.155  47.276  48.837  1.00  0.00    -0.323 OA
HETATM   11  C   UNL     1      20.444  45.214  48.738  1.00  0.00     0.040 A 
HETATM   12  C   UNL     1      19.643  48.632  48.803  1.00  0.00     0.352 A 
HETATM   13  C   UNL     1      21.733  44.678  48.657  1.00  0.00     0.012 A 
ENDBRANCH   4   5
ENDBRANCH   2   4
BRANCH   2  14
HETATM   14  C   UNL     1      24.885  42.635  49.518  1.00  0.00     0.219 C 
BRANCH  14  15
HETATM   15  C   UNL     1      26.412  42.344  49.348  1.00  0.00     0.246 C 
HETATM   16  N   UNL     1      26.835  41.036  49.392  1.00  0.00    -0.354 N 
HETATM   17  H   UNL     1      26.141  40.345  49.655  1.00  0.00     0.162 HD
HETATM   18  O   UNL     1      27.186  43.269  49.095  1.00  0.00    -0.271 OA
BRANCH  16  19
HETATM   19  C   UNL     1      28.221  40.562  49.391  1.00  0.00     0.084 C 
HETATM   20  C   UNL     1      28.538  39.442  50.397  1.00  0.00     0.025 C 
HETATM   21  C   UNL     1      28.465  38.015  49.860  1.00  0.00     0.002 C 
HETATM   22  C   UNL     1      29.134  37.863  48.502  1.00  0.00     0.000 C 
HETATM   23  C   UNL     1      28.593  38.866  47.491  1.00  0.00     0.002 C 
HETATM   24  C   UNL     1      28.761  40.300  47.979  1.00  0.00     0.025 C 
ENDBRANCH  16  19
ENDBRANCH  14  15
BRANCH  14  25
HETATM   25  C   UNL     1      23.978  41.984  48.484  1.00  0.00     0.014 A 
HETATM   26  S   UNL     1      24.573  41.727  46.881  1.00  0.00    -0.104 SA
HETATM   27  C   UNL     1      23.122  40.986  46.375  1.00  0.00     0.050 A 
HETATM   28  C   UNL     1      22.218  40.872  47.402  1.00  0.00     0.008 A 
HETATM   29  C   UNL     1      22.720  41.421  48.616  1.00  0.00     0.017 A 
ENDBRANCH  14  25
ENDBRANCH   2  14
BRANCH   1  30
HETATM   30  C   UNL     1      25.007  43.935  52.202  1.00  0.00     0.144 C 
BRANCH  30  31
HETATM   31  C   UNL     1      26.138  44.251  53.135  1.00  0.00    -0.021 A 
HETATM   32  C   UNL     1      27.482  43.742  53.203  1.00  0.00    -0.001 A 
HETATM   33  C   UNL     1      28.242  42.820  52.454  1.00  0.00     0.014 A 
HETATM   34  C   UNL     1      28.093  44.328  54.317  1.00  0.00     0.042 A 
HETATM   35  C   UNL     1      29.544  42.495  52.855  1.00  0.00     0.001 A 
HETATM   36  C   UNL     1      30.112  43.088  53.978  1.00  0.00     0.002 A 
HETATM   37  C   UNL     1      29.398  44.025  54.725  1.00  0.00     0.030 A 
HETATM   38  N   UNL     1      27.187  45.196  54.872  1.00  0.00    -0.365 N 
HETATM   39  H   UNL     1      27.366  45.769  55.685  1.00  0.00     0.165 HD
HETATM   40  C   UNL     1      26.011  45.153  54.179  1.00  0.00     0.097 A 
ENDBRANCH  30  31
ENDBRANCH   1  30
TORSDOF 8
ENDMDL
MODEL 10
REMARK VINA RESULT:      -8.5     18.568     21.378
REMARK  8 active torsions:
REMARK  status: ('A' for Active; 'I' for Inactive)
REMARK    1  A    between atoms: C_8  and  C_9 
REMARK    2  A    between atoms: C_9  and  C_10 
REMARK       I    between atoms: C_10  and  N_11 
REMARK    3  A    between atoms: N_11  and  C_27 
REMARK    4  A    between atoms: N_11  and  C_12 
REMARK    5  A    between atoms: C_12  and  C_13 
REMARK    6  A    between atoms: C_12  and  C_22 
REMARK       I    between atoms: C_13  and  N_14 
REMARK    7  A    between atoms: N_14  and  C_15 
REMARK    8  A    between atoms: C_27  and  C_28 
ROOT
HETATM    1  C   UNL     1      38.967  42.700  63.328  1.00  0.00     0.225 C 
HETATM    2  N   UNL     1      38.872  43.904  64.030  1.00  0.00    -0.330 N 
HETATM    3  O   UNL     1      39.531  42.635  62.231  1.00  0.00    -0.273 OA
ENDROOT
BRANCH   2   4
HETATM    4  C   UNL     1      39.551  45.077  63.449  1.00  0.00     0.165 C 
BRANCH   4   5
HETATM    5  C   UNL     1      40.839  45.439  64.155  1.00  0.00    -0.037 A 
HETATM    6  C   UNL     1      41.859  44.482  64.301  1.00  0.00     0.048 A 
HETATM    7  C   UNL     1      42.998  44.841  64.991  1.00  0.00     0.105 A 
HETATM    8  C   UNL     1      43.164  46.103  65.510  1.00  0.00     0.105 A 
HETATM    9  O   UNL     1      44.058  44.030  65.256  1.00  0.00    -0.323 OA
HETATM   10  O   UNL     1      44.349  46.248  66.161  1.00  0.00    -0.323 OA
HETATM   11  C   UNL     1      42.206  47.078  65.360  1.00  0.00     0.040 A 
HETATM   12  C   UNL     1      44.911  44.930  65.995  1.00  0.00     0.352 A 
HETATM   13  C   UNL     1      41.038  46.739  64.672  1.00  0.00     0.012 A 
ENDBRANCH   4   5
ENDBRANCH   2   4
BRANCH   2  14
HETATM   14  C   UNL     1      37.874  44.113  65.114  1.00  0.00     0.219 C 
BRANCH  14  15
HETATM   15  C   UNL     1      37.000  45.394  64.911  1.00  0.00     0.246 C 
HETATM   16  N   UNL     1      37.462  46.585  65.421  1.00  0.00    -0.354 N 
HETATM   17  H   UNL     1      38.288  46.536  66.007  1.00  0.00     0.162 HD
HETATM   18  O   UNL     1      35.973  45.331  64.234  1.00  0.00    -0.271 OA
BRANCH  16  19
HETATM   19  C   UNL     1      36.742  47.859  65.460  1.00  0.00     0.084 C 
HETATM   20  C   UNL     1      36.236  48.292  66.847  1.00  0.00     0.025 C 
HETATM   21  C   UNL     1      37.146  49.234  67.632  1.00  0.00     0.002 C 
HETATM   22  C   UNL     1      37.705  50.360  66.775  1.00  0.00     0.000 C 
HETATM   23  C   UNL     1      38.397  49.830  65.526  1.00  0.00     0.002 C 
HETATM   24  C   UNL     1      37.457  48.974  64.685  1.00  0.00     0.025 C 
ENDBRANCH  16  19
ENDBRANCH  14  15
BRANCH  14  25
HETATM   25  C   UNL     1      38.470  43.943  66.504  1.00  0.00     0.014 A 
HETATM   26  S   UNL     1      37.571  44.484  67.879  1.00  0.00    -0.104 SA
HETATM   27  C   UNL     1      38.773  43.958  68.971  1.00  0.00     0.050 A 
HETATM   28  C   UNL     1      39.810  43.329  68.328  1.00  0.00     0.008 A 
HETATM   29  C   UNL     1      39.624  43.299  66.917  1.00  0.00     0.017 A 
ENDBRANCH  14  25
ENDBRANCH   2  14
BRANCH   1  30
HETATM   30  C   UNL     1      38.475  41.418  63.979  1.00  0.00     0.144 C 
BRANCH  30  31
HETATM   31  C   UNL     1      39.327  40.189  63.872  1.00  0.00    -0.021 A 
HETATM   32  C   UNL     1      40.120  39.496  64.852  1.00  0.00    -0.001 A 
HETATM   33  C   UNL     1      40.381  39.663  66.228  1.00  0.00     0.014 A 
HETATM   34  C   UNL     1      40.773  38.448  64.194  1.00  0.00     0.042 A 
HETATM   35  C   UNL     1      41.291  38.818  66.877  1.00  0.00     0.001 A 
HETATM   36  C   UNL     1      41.931  37.796  66.184  1.00  0.00     0.002 A 
HETATM   37  C   UNL     1      41.676  37.586  64.829  1.00  0.00     0.030 A 
HETATM   38  N   UNL     1      40.356  38.463  62.886  1.00  0.00    -0.365 N 
HETATM   39  H   UNL     1      40.659  37.805  62.182  1.00  0.00     0.165 HD
HETATM   40  C   UNL     1      39.499  39.505  62.679  1.00  0.00     0.097 A 
ENDBRANCH  30  31
ENDBRANCH   1  30
TORSDOF 8
ENDMDL
