MODEL 1
REMARK VINA RESULT:      -9.2      0.000      0.000
REMARK  8 active torsions:
REMARK  status: ('A' for Active; 'I' for Inactive)
REMARK    1  A    between atoms: O_2  and  C_3 
REMARK    2  A    between atoms: C_5  and  C_6 
REMARK    3  A    between atoms: C_6  and  N_7 
REMARK       I    between atoms: N_7  and  C_8 
REMARK    4  A    between atoms: C_8  and  C_9 
REMARK    5  A    between atoms: C_9  and  C_10 
REMARK    6  A    between atoms: C_10  and  N_11 
REMARK    7  A    between atoms: N_11  and  S_12 
REMARK    8  A    between atoms: S_12  and  C_13 
ROOT
HETATM    1  N   UNL     1      25.980  42.556  51.595  1.00  0.00    -0.215 NA
HETATM    2  H   UNL     1      25.900  41.831  52.310  1.00  0.00     0.139 HD
ENDROOT
BRANCH   1   3
HETATM    3  C   UNL     1      25.072  42.435  50.434  1.00  0.00     0.113 C 
BRANCH   3   4
HETATM    4  C   UNL     1      24.018  43.532  50.466  1.00  0.00     0.118 C 
BRANCH   4   5
HETATM    5  C   UNL     1      24.534  44.761  51.181  1.00  0.00     0.219 C 
HETATM    6  N   UNL     1      25.310  45.578  50.395  1.00  0.00    -0.357 N 
HETATM    7  H   UNL     1      25.313  45.419  49.397  1.00  0.00     0.162 HD
HETATM    8  O   UNL     1      24.260  45.001  52.352  1.00  0.00    -0.274 OA
BRANCH   6   9
HETATM    9  C   UNL     1      25.801  46.843  50.888  1.00  0.00     0.161 C 
BRANCH   9  10
HETATM   10  C   UNL     1      25.594  47.944  49.880  1.00  0.00    -0.038 A 
HETATM   11  C   UNL     1      24.298  48.265  49.433  1.00  0.00     0.045 A 
HETATM   12  C   UNL     1      24.091  49.287  48.506  1.00  0.00     0.068 A 
HETATM   13  C   UNL     1      25.189  49.996  48.019  1.00  0.00     0.037 A 
HETATM   14  C   UNL     1      26.480  49.689  48.451  1.00  0.00     0.003 A 
HETATM   15  C   UNL     1      26.682  48.667  49.378  1.00  0.00     0.009 A 
BRANCH  12  16
HETATM   16  O   UNL     1      22.881  49.680  48.004  1.00  0.00    -0.356 OA
HETATM   17  C   UNL     1      21.900  48.668  47.807  1.00  0.00     0.210 C 
ENDBRANCH  12  16
ENDBRANCH   9  10
ENDBRANCH   6   9
ENDBRANCH   4   5
ENDBRANCH   3   4
ENDBRANCH   1   3
BRANCH   1  18
HETATM   18  S   UNL     1      27.622  42.818  51.262  1.00  0.00     0.241 S 
HETATM   19  O   UNL     1      28.230  41.507  51.226  1.00  0.00    -0.206 OA
HETATM   20  O   UNL     1      27.692  43.728  50.142  1.00  0.00    -0.206 OA
BRANCH  18  21
HETATM   21  C   UNL     1      28.192  43.638  52.723  1.00  0.00     0.075 A 
HETATM   22  C   UNL     1      29.335  43.169  53.370  1.00  0.00     0.034 A 
HETATM   23  C   UNL     1      29.781  43.739  54.585  1.00  0.00    -0.030 A 
HETATM   24  C   UNL     1      29.078  44.832  55.111  1.00  0.00     0.041 A 
HETATM   25  C   UNL     1      31.014  43.122  55.182  1.00  0.00     0.041 C 
HETATM   26  N   UNL     1      29.358  45.527  56.298  1.00  0.00    -0.327 N 
HETATM   27  C   UNL     1      27.949  45.315  54.414  1.00  0.00     0.031 A 
HETATM   28  C   UNL     1      30.270  45.409  57.290  1.00  0.00     0.222 C 
HETATM   29  H   UNL     1      28.734  46.297  56.517  1.00  0.00     0.169 HD
HETATM   30  O   UNL     1      30.210  46.233  58.210  1.00  0.00    -0.273 OA
HETATM   31  C   UNL     1      31.373  44.392  57.285  1.00  0.00     0.103 C 
HETATM   32  C   UNL     1      31.004  43.050  56.697  1.00  0.00     0.014 C 
HETATM   33  C   UNL     1      27.499  44.725  53.232  1.00  0.00     0.027 A 
ENDBRANCH  18  21
ENDBRANCH   1  18
TORSDOF 8
ENDMDL
MODEL 2
REMARK VINA RESULT:      -9.0      2.183      3.382
REMARK  8 active torsions:
REMARK  status: ('A' for Active; 'I' for Inactive)
REMARK    1  A    between atoms: O_2  and  C_3 
REMARK    2  A    between atoms: C_5  and  C_6 
REMARK    3  A    between atoms: C_6  and  N_7 
REMARK       I    between atoms: N_7  and  C_8 
REMARK    4  A    between atoms: C_8  and  C_9 
REMARK    5  A    between atoms: C_9  and  C_10 
REMARK    6  A    between atoms: C_10  and  N_11 
REMARK    7  A    between atoms: N_11  and  S_12 
REMARK    8  A    between atoms: S_12  and  C_13 
ROOT
HETATM    1  N   UNL     1      25.942  45.309  51.837  1.00  0.00    -0.215 NA
HETATM    2  H   UNL     1      26.099  45.396  52.843  1.00  0.00     0.139 HD
ENDROOT
BRANCH   1   3
HETATM    3  C   UNL     1      24.531  45.244  51.397  1.00  0.00     0.113 C 
BRANCH   3   4
HETATM    4  C   UNL     1      24.389  45.788  49.983  1.00  0.00     0.118 C 
BRANCH   4   5
HETATM    5  C   UNL     1      24.509  47.296  49.966  1.00  0.00     0.219 C 
HETATM    6  N   UNL     1      23.515  47.925  49.257  1.00  0.00    -0.357 N 
HETATM    7  H   UNL     1      22.705  47.385  48.984  1.00  0.00     0.162 HD
HETATM    8  O   UNL     1      25.407  47.888  50.553  1.00  0.00    -0.274 OA
BRANCH   6   9
HETATM    9  C   UNL     1      23.420  49.365  49.221  1.00  0.00     0.161 C 
BRANCH   9  10
HETATM   10  C   UNL     1      21.996  49.818  49.024  1.00  0.00    -0.038 A 
HETATM   11  C   UNL     1      20.931  48.916  49.206  1.00  0.00     0.045 A 
HETATM   12  C   UNL     1      19.607  49.322  49.035  1.00  0.00     0.068 A 
HETATM   13  C   UNL     1      19.344  50.644  48.677  1.00  0.00     0.037 A 
HETATM   14  C   UNL     1      20.389  51.551  48.490  1.00  0.00     0.003 A 
HETATM   15  C   UNL     1      21.709  51.139  48.663  1.00  0.00     0.009 A 
BRANCH  12  16
HETATM   16  O   UNL     1      18.500  48.533  49.184  1.00  0.00    -0.356 OA
HETATM   17  C   UNL     1      18.569  47.213  48.657  1.00  0.00     0.210 C 
ENDBRANCH  12  16
ENDBRANCH   9  10
ENDBRANCH   6   9
ENDBRANCH   4   5
ENDBRANCH   3   4
ENDBRANCH   1   3
BRANCH   1  18
HETATM   18  S   UNL     1      26.995  44.134  51.217  1.00  0.00     0.241 S 
HETATM   19  O   UNL     1      26.195  42.942  51.041  1.00  0.00    -0.206 OA
HETATM   20  O   UNL     1      27.718  44.741  50.124  1.00  0.00    -0.206 OA
BRANCH  18  21
HETATM   21  C   UNL     1      28.101  43.847  52.568  1.00  0.00     0.075 A 
HETATM   22  C   UNL     1      28.032  44.663  53.696  1.00  0.00     0.034 A 
HETATM   23  C   UNL     1      28.948  44.525  54.764  1.00  0.00    -0.030 A 
HETATM   24  C   UNL     1      29.911  43.509  54.695  1.00  0.00     0.041 A 
HETATM   25  C   UNL     1      28.768  45.484  55.907  1.00  0.00     0.041 C 
HETATM   26  N   UNL     1      30.903  43.216  55.642  1.00  0.00    -0.327 N 
HETATM   27  C   UNL     1      29.933  42.668  53.559  1.00  0.00     0.031 A 
HETATM   28  C   UNL     1      31.296  43.751  56.822  1.00  0.00     0.222 C 
HETATM   29  H   UNL     1      31.514  42.437  55.418  1.00  0.00     0.169 HD
HETATM   30  O   UNL     1      32.244  43.207  57.399  1.00  0.00    -0.273 OA
HETATM   31  C   UNL     1      30.599  44.905  57.480  1.00  0.00     0.103 C 
HETATM   32  C   UNL     1      30.065  45.956  56.535  1.00  0.00     0.014 C 
HETATM   33  C   UNL     1      29.044  42.833  52.498  1.00  0.00     0.027 A 
ENDBRANCH  18  21
ENDBRANCH   1  18
TORSDOF 8
ENDMDL
MODEL 3
REMARK VINA RESULT:      -9.0      2.842      7.658
REMARK  8 active torsions:
REMARK  status: ('A' for Active; 'I' for Inactive)
REMARK    1  A    between atoms: O_2  and  C_3 
REMARK    2  A    between atoms: C_5  and  C_6 
REMARK    3  A    between atoms: C_6  and  N_7 
REMARK       I    between atoms: N_7  and  C_8 
REMARK    4  A    between atoms: C_8  and  C_9 
REMARK    5  A    between atoms: C_9  and  C_10 
REMARK    6  A    between atoms: C_10  and  N_11 
REMARK    7  A    between atoms: N_11  and  S_12 
REMARK    8  A    between atoms: S_12  and  C_13 
ROOT
HETATM    1  N   UNL     1      25.275  44.820  50.330  1.00  0.00    -0.215 NA
HETATM    2  H   UNL     1      26.284  44.734  50.193  1.00  0.00     0.139 HD
ENDROOT
BRANCH   1   3
HETATM    3  C   UNL     1      24.778  46.159  50.714  1.00  0.00     0.113 C 
BRANCH   3   4
HETATM    4  C   UNL     1      25.926  47.035  51.194  1.00  0.00     0.118 C 
BRANCH   4   5
HETATM    5  C   UNL     1      26.006  47.047  52.704  1.00  0.00     0.219 C 
HETATM    6  N   UNL     1      26.867  46.110  53.223  1.00  0.00    -0.357 N 
HETATM    7  H   UNL     1      27.504  45.644  52.592  1.00  0.00     0.162 HD
HETATM    8  O   UNL     1      25.370  47.840  53.388  1.00  0.00    -0.274 OA
BRANCH   6   9
HETATM    9  C   UNL     1      27.140  46.050  54.639  1.00  0.00     0.161 C 
BRANCH   9  10
HETATM   10  C   UNL     1      28.371  45.229  54.927  1.00  0.00    -0.038 A 
HETATM   11  C   UNL     1      29.210  45.559  56.008  1.00  0.00     0.045 A 
HETATM   12  C   UNL     1      30.349  44.803  56.291  1.00  0.00     0.068 A 
HETATM   13  C   UNL     1      30.653  43.706  55.486  1.00  0.00     0.037 A 
HETATM   14  C   UNL     1      29.832  43.367  54.409  1.00  0.00     0.003 A 
HETATM   15  C   UNL     1      28.696  44.125  54.131  1.00  0.00     0.009 A 
BRANCH  12  16
HETATM   16  O   UNL     1      31.230  45.034  57.311  1.00  0.00    -0.356 OA
HETATM   17  C   UNL     1      30.686  45.204  58.614  1.00  0.00     0.210 C 
ENDBRANCH  12  16
ENDBRANCH   9  10
ENDBRANCH   6   9
ENDBRANCH   4   5
ENDBRANCH   3   4
ENDBRANCH   1   3
BRANCH   1  18
HETATM   18  S   UNL     1      24.734  43.506  51.255  1.00  0.00     0.241 S 
HETATM   19  O   UNL     1      24.777  43.949  52.631  1.00  0.00    -0.206 OA
HETATM   20  O   UNL     1      23.520  43.021  50.641  1.00  0.00    -0.206 OA
BRANCH  18  21
HETATM   21  C   UNL     1      26.023  42.314  51.033  1.00  0.00     0.075 A 
HETATM   22  C   UNL     1      25.830  41.251  50.150  1.00  0.00     0.034 A 
HETATM   23  C   UNL     1      26.796  40.230  50.002  1.00  0.00    -0.030 A 
HETATM   24  C   UNL     1      27.992  40.328  50.726  1.00  0.00     0.041 A 
HETATM   25  C   UNL     1      26.447  39.137  49.031  1.00  0.00     0.041 C 
HETATM   26  N   UNL     1      29.063  39.421  50.720  1.00  0.00    -0.327 N 
HETATM   27  C   UNL     1      28.182  41.436  51.581  1.00  0.00     0.031 A 
HETATM   28  C   UNL     1      29.315  38.233  50.121  1.00  0.00     0.222 C 
HETATM   29  H   UNL     1      29.851  39.662  51.313  1.00  0.00     0.169 HD
HETATM   30  O   UNL     1      30.408  37.705  50.358  1.00  0.00    -0.273 OA
HETATM   31  C   UNL     1      28.379  37.582  49.147  1.00  0.00     0.103 C 
HETATM   32  C   UNL     1      26.910  37.756  49.455  1.00  0.00     0.014 C 
HETATM   33  C   UNL     1      27.208  42.422  51.744  1.00  0.00     0.027 A 
ENDBRANCH  18  21
ENDBRANCH   1  18
TORSDOF 8
ENDMDL
MODEL 4
REMARK VINA RESULT:      -8.9      2.561      4.103
REMARK  8 active torsions:
REMARK  status: ('A' for Active; 'I' for Inactive)
REMARK    1  A    between atoms: O_2  and  C_3 
REMARK    2  A    between atoms: C_5  and  C_6 
REMARK    3  A    between atoms: C_6  and  N_7 
REMARK       I    between atoms: N_7  and  C_8 
REMARK    4  A    between atoms: C_8  and  C_9 
REMARK    5  A    between atoms: C_9  and  C_10 
REMARK    6  A    between atoms: C_10  and  N_11 
REMARK    7  A    between atoms: N_11  and  S_12 
REMARK    8  A    between atoms: S_12  and  C_13 
ROOT
HETATM    1  N   UNL     1      25.786  47.102  52.073  1.00  0.00    -0.215 NA
HETATM    2  H   UNL     1      24.922  47.395  52.533  1.00  0.00     0.139 HD
ENDROOT
BRANCH   1   3
HETATM    3  C   UNL     1      25.963  47.539  50.671  1.00  0.00     0.113 C 
BRANCH   3   4
HETATM    4  C   UNL     1      24.648  47.439  49.912  1.00  0.00     0.118 C 
BRANCH   4   5
HETATM    5  C   UNL     1      24.371  48.705  49.133  1.00  0.00     0.219 C 
HETATM    6  N   UNL     1      23.035  48.968  48.956  1.00  0.00    -0.357 N 
HETATM    7  H   UNL     1      22.366  48.441  49.501  1.00  0.00     0.162 HD
HETATM    8  O   UNL     1      25.269  49.430  48.720  1.00  0.00    -0.274 OA
BRANCH   6   9
HETATM    9  C   UNL     1      22.591  50.187  48.321  1.00  0.00     0.161 C 
BRANCH   9  10
HETATM   10  C   UNL     1      21.237  50.611  48.831  1.00  0.00    -0.038 A 
HETATM   11  C   UNL     1      20.602  49.883  49.855  1.00  0.00     0.045 A 
HETATM   12  C   UNL     1      19.353  50.269  50.343  1.00  0.00     0.068 A 
HETATM   13  C   UNL     1      18.730  51.393  49.801  1.00  0.00     0.037 A 
HETATM   14  C   UNL     1      19.346  52.125  48.784  1.00  0.00     0.003 A 
HETATM   15  C   UNL     1      20.594  51.735  48.301  1.00  0.00     0.009 A 
BRANCH  12  16
HETATM   16  O   UNL     1      18.648  49.636  51.329  1.00  0.00    -0.356 OA
HETATM   17  C   UNL     1      18.375  48.252  51.147  1.00  0.00     0.210 C 
ENDBRANCH  12  16
ENDBRANCH   9  10
ENDBRANCH   6   9
ENDBRANCH   4   5
ENDBRANCH   3   4
ENDBRANCH   1   3
BRANCH   1  18
HETATM   18  S   UNL     1      26.053  45.461  52.405  1.00  0.00     0.241 S 
HETATM   19  O   UNL     1      24.805  44.959  52.934  1.00  0.00    -0.206 OA
HETATM   20  O   UNL     1      26.680  44.885  51.239  1.00  0.00    -0.206 OA
BRANCH  18  21
HETATM   21  C   UNL     1      27.220  45.516  53.735  1.00  0.00     0.075 A 
HETATM   22  C   UNL     1      28.274  44.603  53.760  1.00  0.00     0.034 A 
HETATM   23  C   UNL     1      29.182  44.554  54.842  1.00  0.00    -0.030 A 
HETATM   24  C   UNL     1      29.037  45.483  55.882  1.00  0.00     0.041 A 
HETATM   25  C   UNL     1      30.257  43.508  54.746  1.00  0.00     0.041 C 
HETATM   26  N   UNL     1      29.827  45.592  57.036  1.00  0.00    -0.327 N 
HETATM   27  C   UNL     1      27.987  46.425  55.812  1.00  0.00     0.031 A 
HETATM   28  C   UNL     1      30.877  44.911  57.553  1.00  0.00     0.222 C 
HETATM   29  H   UNL     1      29.569  46.332  57.681  1.00  0.00     0.169 HD
HETATM   30  O   UNL     1      31.331  45.311  58.631  1.00  0.00    -0.273 OA
HETATM   31  C   UNL     1      31.546  43.765  56.852  1.00  0.00     0.103 C 
HETATM   32  C   UNL     1      30.619  42.864  56.070  1.00  0.00     0.014 C 
HETATM   33  C   UNL     1      27.078  46.444  54.754  1.00  0.00     0.027 A 
ENDBRANCH  18  21
ENDBRANCH   1  18
TORSDOF 8
ENDMDL
MODEL 5
REMARK VINA RESULT:      -8.6      3.806     11.106
REMARK  8 active torsions:
REMARK  status: ('A' for Active; 'I' for Inactive)
REMARK    1  A    between atoms: O_2  and  C_3 
REMARK    2  A    between atoms: C_5  and  C_6 
REMARK    3  A    between atoms: C_6  and  N_7 
REMARK       I    between atoms: N_7  and  C_8 
REMARK    4  A    between atoms: C_8  and  C_9 
REMARK    5  A    between atoms: C_9  and  C_10 
REMARK    6  A    between atoms: C_10  and  N_11 
REMARK    7  A    between atoms: N_11  and  S_12 
REMARK    8  A    between atoms: S_12  and  C_13 
ROOT
HETATM    1  N   UNL     1      23.638  48.776  49.933  1.00  0.00    -0.215 NA
HETATM    2  H   UNL     1      23.861  49.179  50.845  1.00  0.00     0.139 HD
ENDROOT
BRANCH   1   3
HETATM    3  C   UNL     1      24.475  47.637  49.497  1.00  0.00     0.113 C 
BRANCH   3   4
HETATM    4  C   UNL     1      25.753  47.570  50.321  1.00  0.00     0.118 C 
BRANCH   4   5
HETATM    5  C   UNL     1      25.486  46.988  51.691  1.00  0.00     0.219 C 
HETATM    6  N   UNL     1      25.625  45.623  51.752  1.00  0.00    -0.357 N 
HETATM    7  H   UNL     1      26.069  45.151  50.976  1.00  0.00     0.162 HD
HETATM    8  O   UNL     1      25.193  47.687  52.655  1.00  0.00    -0.274 OA
BRANCH   6   9
HETATM    9  C   UNL     1      25.505  44.915  53.005  1.00  0.00     0.161 C 
BRANCH   9  10
HETATM   10  C   UNL     1      26.850  44.716  53.655  1.00  0.00    -0.038 A 
HETATM   11  C   UNL     1      27.225  45.490  54.769  1.00  0.00     0.045 A 
HETATM   12  C   UNL     1      28.464  45.311  55.385  1.00  0.00     0.068 A 
HETATM   13  C   UNL     1      29.339  44.349  54.883  1.00  0.00     0.037 A 
HETATM   14  C   UNL     1      28.984  43.574  53.777  1.00  0.00     0.003 A 
HETATM   15  C   UNL     1      27.745  43.757  53.166  1.00  0.00     0.009 A 
BRANCH  12  16
HETATM   16  O   UNL     1      28.928  46.007  56.467  1.00  0.00    -0.356 OA
HETATM   17  C   UNL     1      30.240  45.698  56.923  1.00  0.00     0.210 C 
ENDBRANCH  12  16
ENDBRANCH   9  10
ENDBRANCH   6   9
ENDBRANCH   4   5
ENDBRANCH   3   4
ENDBRANCH   1   3
BRANCH   1  18
HETATM   18  S   UNL     1      23.414  50.034  48.819  1.00  0.00     0.241 S 
HETATM   19  O   UNL     1      23.693  51.255  49.543  1.00  0.00    -0.206 OA
HETATM   20  O   UNL     1      24.129  49.675  47.617  1.00  0.00    -0.206 OA
BRANCH  18  21
HETATM   21  C   UNL     1      21.673  49.977  48.508  1.00  0.00     0.075 A 
HETATM   22  C   UNL     1      20.931  51.157  48.542  1.00  0.00     0.034 A 
HETATM   23  C   UNL     1      19.526  51.151  48.382  1.00  0.00    -0.030 A 
HETATM   24  C   UNL     1      18.885  49.929  48.134  1.00  0.00     0.041 A 
HETATM   25  C   UNL     1      18.853  52.492  48.461  1.00  0.00     0.041 C 
HETATM   26  N   UNL     1      17.510  49.715  47.953  1.00  0.00    -0.327 N 
HETATM   27  C   UNL     1      19.665  48.753  48.061  1.00  0.00     0.031 A 
HETATM   28  C   UNL     1      16.403  50.493  47.982  1.00  0.00     0.222 C 
HETATM   29  H   UNL     1      17.230  48.755  47.782  1.00  0.00     0.169 HD
HETATM   30  O   UNL     1      15.319  49.938  47.769  1.00  0.00    -0.273 OA
HETATM   31  C   UNL     1      16.441  51.980  48.182  1.00  0.00     0.103 C 
HETATM   32  C   UNL     1      17.499  52.471  49.142  1.00  0.00     0.014 C 
HETATM   33  C   UNL     1      21.047  48.767  48.252  1.00  0.00     0.027 A 
ENDBRANCH  18  21
ENDBRANCH   1  18
TORSDOF 8
ENDMDL
MODEL 6
REMARK VINA RESULT:      -8.6      2.465      9.607
REMARK  8 active torsions:
REMARK  status: ('A' for Active; 'I' for Inactive)
REMARK    1  A    between atoms: O_2  and  C_3 
REMARK    2  A    between atoms: C_5  and  C_6 
REMARK    3  A    between atoms: C_6  and  N_7 
REMARK       I    between atoms: N_7  and  C_8 
REMARK    4  A    between atoms: C_8  and  C_9 
REMARK    5  A    between atoms: C_9  and  C_10 
REMARK    6  A    between atoms: C_10  and  N_11 
REMARK    7  A    between atoms: N_11  and  S_12 
REMARK    8  A    between atoms: S_12  and  C_13 
ROOT
HETATM    1  N   UNL     1      26.684  46.351  49.248  1.00  0.00    -0.215 NA
HETATM    2  H   UNL     1      26.004  46.105  48.526  1.00  0.00     0.139 HD
ENDROOT
BRANCH   1   3
HETATM    3  C   UNL     1      27.086  45.265  50.168  1.00  0.00     0.113 C 
BRANCH   3   4
HETATM    4  C   UNL     1      25.904  44.352  50.461  1.00  0.00     0.118 C 
BRANCH   4   5
HETATM    5  C   UNL     1      25.716  44.169  51.950  1.00  0.00     0.219 C 
HETATM    6  N   UNL     1      26.889  44.171  52.664  1.00  0.00    -0.357 N 
HETATM    7  H   UNL     1      27.732  44.482  52.200  1.00  0.00     0.162 HD
HETATM    8  O   UNL     1      24.608  44.049  52.461  1.00  0.00    -0.274 OA
BRANCH   6   9
HETATM    9  C   UNL     1      26.886  44.108  54.107  1.00  0.00     0.161 C 
BRANCH   9  10
HETATM   10  C   UNL     1      28.289  44.099  54.660  1.00  0.00    -0.038 A 
HETATM   11  C   UNL     1      28.715  45.115  55.536  1.00  0.00     0.045 A 
HETATM   12  C   UNL     1      30.008  45.116  56.061  1.00  0.00     0.068 A 
HETATM   13  C   UNL     1      30.885  44.091  55.708  1.00  0.00     0.037 A 
HETATM   14  C   UNL     1      30.478  43.077  54.839  1.00  0.00     0.003 A 
HETATM   15  C   UNL     1      29.186  43.081  54.317  1.00  0.00     0.009 A 
BRANCH  12  16
HETATM   16  O   UNL     1      30.524  46.051  56.915  1.00  0.00    -0.356 OA
HETATM   17  C   UNL     1      30.141  45.963  58.283  1.00  0.00     0.210 C 
ENDBRANCH  12  16
ENDBRANCH   9  10
ENDBRANCH   6   9
ENDBRANCH   4   5
ENDBRANCH   3   4
ENDBRANCH   1   3
BRANCH   1  18
HETATM   18  S   UNL     1      26.225  47.823  49.953  1.00  0.00     0.241 S 
HETATM   19  O   UNL     1      26.164  47.576  51.376  1.00  0.00    -0.206 OA
HETATM   20  O   UNL     1      27.067  48.850  49.387  1.00  0.00    -0.206 OA
BRANCH  18  21
HETATM   21  C   UNL     1      24.566  48.035  49.372  1.00  0.00     0.075 A 
HETATM   22  C   UNL     1      24.121  49.308  49.018  1.00  0.00     0.034 A 
HETATM   23  C   UNL     1      22.782  49.541  48.628  1.00  0.00    -0.030 A 
HETATM   24  C   UNL     1      21.908  48.448  48.550  1.00  0.00     0.041 A 
HETATM   25  C   UNL     1      22.437  50.964  48.294  1.00  0.00     0.041 C 
HETATM   26  N   UNL     1      20.552  48.473  48.191  1.00  0.00    -0.327 N 
HETATM   27  C   UNL     1      22.395  47.161  48.872  1.00  0.00     0.031 A 
HETATM   28  C   UNL     1      19.661  49.436  47.859  1.00  0.00     0.222 C 
HETATM   29  H   UNL     1      20.077  47.575  48.191  1.00  0.00     0.169 HD
HETATM   30  O   UNL     1      18.510  49.071  47.594  1.00  0.00    -0.273 OA
HETATM   31  C   UNL     1      20.020  50.887  47.730  1.00  0.00     0.103 C 
HETATM   32  C   UNL     1      21.044  51.384  48.724  1.00  0.00     0.014 C 
HETATM   33  C   UNL     1      23.710  46.949  49.286  1.00  0.00     0.027 A 
ENDBRANCH  18  21
ENDBRANCH   1  18
TORSDOF 8
ENDMDL
MODEL 7
REMARK VINA RESULT:      -8.5      1.764      2.604
REMARK  8 active torsions:
REMARK  status: ('A' for Active; 'I' for Inactive)
REMARK    1  A    between atoms: O_2  and  C_3 
REMARK    2  A    between atoms: C_5  and  C_6 
REMARK    3  A    between atoms: C_6  and  N_7 
REMARK       I    between atoms: N_7  and  C_8 
REMARK    4  A    between atoms: C_8  and  C_9 
REMARK    5  A    between atoms: C_9  and  C_10 
REMARK    6  A    between atoms: C_10  and  N_11 
REMARK    7  A    between atoms: N_11  and  S_12 
REMARK    8  A    between atoms: S_12  and  C_13 
ROOT
HETATM    1  N   UNL     1      24.922  44.545  50.508  1.00  0.00    -0.215 NA
HETATM    2  H   UNL     1      25.123  45.413  51.010  1.00  0.00     0.139 HD
ENDROOT
BRANCH   1   3
HETATM    3  C   UNL     1      23.602  43.930  50.765  1.00  0.00     0.113 C 
BRANCH   3   4
HETATM    4  C   UNL     1      23.025  43.355  49.479  1.00  0.00     0.118 C 
BRANCH   4   5
HETATM    5  C   UNL     1      22.122  44.354  48.793  1.00  0.00     0.219 C 
HETATM    6  N   UNL     1      22.304  45.649  49.215  1.00  0.00    -0.357 N 
HETATM    7  H   UNL     1      23.121  45.862  49.770  1.00  0.00     0.162 HD
HETATM    8  O   UNL     1      21.318  44.026  47.928  1.00  0.00    -0.274 OA
BRANCH   6   9
HETATM    9  C   UNL     1      21.595  46.743  48.594  1.00  0.00     0.161 C 
BRANCH   9  10
HETATM   10  C   UNL     1      22.462  47.972  48.490  1.00  0.00    -0.038 A 
HETATM   11  C   UNL     1      23.731  48.001  49.097  1.00  0.00     0.045 A 
HETATM   12  C   UNL     1      24.548  49.128  49.002  1.00  0.00     0.068 A 
HETATM   13  C   UNL     1      24.092  50.239  48.294  1.00  0.00     0.037 A 
HETATM   14  C   UNL     1      22.835  50.228  47.688  1.00  0.00     0.003 A 
HETATM   15  C   UNL     1      22.023  49.099  47.785  1.00  0.00     0.009 A 
BRANCH  12  16
HETATM   16  O   UNL     1      25.793  49.264  49.552  1.00  0.00    -0.356 OA
HETATM   17  C   UNL     1      26.719  48.205  49.334  1.00  0.00     0.210 C 
ENDBRANCH  12  16
ENDBRANCH   9  10
ENDBRANCH   6   9
ENDBRANCH   4   5
ENDBRANCH   3   4
ENDBRANCH   1   3
BRANCH   1  18
HETATM   18  S   UNL     1      26.276  43.529  50.610  1.00  0.00     0.241 S 
HETATM   19  O   UNL     1      25.760  42.219  50.936  1.00  0.00    -0.206 OA
HETATM   20  O   UNL     1      27.079  43.767  49.434  1.00  0.00    -0.206 OA
BRANCH  18  21
HETATM   21  C   UNL     1      27.123  44.146  52.036  1.00  0.00     0.075 A 
HETATM   22  C   UNL     1      28.297  43.524  52.459  1.00  0.00     0.034 A 
HETATM   23  C   UNL     1      28.963  43.928  53.639  1.00  0.00    -0.030 A 
HETATM   24  C   UNL     1      28.448  45.013  54.361  1.00  0.00     0.041 A 
HETATM   25  C   UNL     1      30.205  43.156  53.985  1.00  0.00     0.041 C 
HETATM   26  N   UNL     1      28.958  45.558  55.550  1.00  0.00    -0.327 N 
HETATM   27  C   UNL     1      27.281  45.654  53.888  1.00  0.00     0.031 A 
HETATM   28  C   UNL     1      29.987  45.266  56.379  1.00  0.00     0.222 C 
HETATM   29  H   UNL     1      28.446  46.349  55.929  1.00  0.00     0.169 HD
HETATM   30  O   UNL     1      30.136  45.993  57.368  1.00  0.00    -0.273 OA
HETATM   31  C   UNL     1      30.977  44.170  56.115  1.00  0.00     0.103 C 
HETATM   32  C   UNL     1      30.404  42.930  55.471  1.00  0.00     0.014 C 
HETATM   33  C   UNL     1      26.615  45.227  52.740  1.00  0.00     0.027 A 
ENDBRANCH  18  21
ENDBRANCH   1  18
TORSDOF 8
ENDMDL
MODEL 8
REMARK VINA RESULT:      -8.0      2.104      2.897
REMARK  8 active torsions:
REMARK  status: ('A' for Active; 'I' for Inactive)
REMARK    1  A    between atoms: O_2  and  C_3 
REMARK    2  A    between atoms: C_5  and  C_6 
REMARK    3  A    between atoms: C_6  and  N_7 
REMARK       I    between atoms: N_7  and  C_8 
REMARK    4  A    between atoms: C_8  and  C_9 
REMARK    5  A    between atoms: C_9  and  C_10 
REMARK    6  A    between atoms: C_10  and  N_11 
REMARK    7  A    between atoms: N_11  and  S_12 
REMARK    8  A    between atoms: S_12  and  C_13 
ROOT
HETATM    1  N   UNL     1      25.627  43.781  51.434  1.00  0.00    -0.215 NA
HETATM    2  H   UNL     1      24.941  43.026  51.376  1.00  0.00     0.139 HD
ENDROOT
BRANCH   1   3
HETATM    3  C   UNL     1      25.422  44.925  50.519  1.00  0.00     0.113 C 
BRANCH   3   4
HETATM    4  C   UNL     1      23.954  45.321  50.483  1.00  0.00     0.118 C 
BRANCH   4   5
HETATM    5  C   UNL     1      23.714  46.429  49.483  1.00  0.00     0.219 C 
HETATM    6  N   UNL     1      22.414  46.513  49.047  1.00  0.00    -0.357 N 
HETATM    7  H   UNL     1      21.706  45.993  49.548  1.00  0.00     0.162 HD
HETATM    8  O   UNL     1      24.605  47.188  49.119  1.00  0.00    -0.274 OA
BRANCH   6   9
HETATM    9  C   UNL     1      21.988  47.575  48.166  1.00  0.00     0.161 C 
BRANCH   9  10
HETATM   10  C   UNL     1      21.523  48.780  48.944  1.00  0.00    -0.038 A 
HETATM   11  C   UNL     1      20.192  48.866  49.396  1.00  0.00     0.045 A 
HETATM   12  C   UNL     1      19.750  49.971  50.123  1.00  0.00     0.068 A 
HETATM   13  C   UNL     1      20.645  51.003  50.402  1.00  0.00     0.037 A 
HETATM   14  C   UNL     1      21.968  50.935  49.959  1.00  0.00     0.003 A 
HETATM   15  C   UNL     1      22.404  49.828  49.233  1.00  0.00     0.009 A 
BRANCH  12  16
HETATM   16  O   UNL     1      18.485  50.158  50.608  1.00  0.00    -0.356 OA
HETATM   17  C   UNL     1      17.570  50.866  49.779  1.00  0.00     0.210 C 
ENDBRANCH  12  16
ENDBRANCH   9  10
ENDBRANCH   6   9
ENDBRANCH   4   5
ENDBRANCH   3   4
ENDBRANCH   1   3
BRANCH   1  18
HETATM   18  S   UNL     1      27.181  43.106  51.484  1.00  0.00     0.241 S 
HETATM   19  O   UNL     1      26.991  41.703  51.781  1.00  0.00    -0.206 OA
HETATM   20  O   UNL     1      27.880  43.553  50.302  1.00  0.00    -0.206 OA
BRANCH  18  21
HETATM   21  C   UNL     1      27.894  43.868  52.913  1.00  0.00     0.075 A 
HETATM   22  C   UNL     1      29.047  43.324  53.478  1.00  0.00     0.034 A 
HETATM   23  C   UNL     1      29.605  43.848  54.666  1.00  0.00    -0.030 A 
HETATM   24  C   UNL     1      29.004  44.971  55.251  1.00  0.00     0.041 A 
HETATM   25  C   UNL     1      30.837  43.151  55.172  1.00  0.00     0.041 C 
HETATM   26  N   UNL     1      29.402  45.630  56.424  1.00  0.00    -0.327 N 
HETATM   27  C   UNL     1      27.862  45.530  54.636  1.00  0.00     0.031 A 
HETATM   28  C   UNL     1      30.370  45.444  57.352  1.00  0.00     0.222 C 
HETATM   29  H   UNL     1      28.840  46.432  56.694  1.00  0.00     0.169 HD
HETATM   30  O   UNL     1      30.419  46.255  58.284  1.00  0.00    -0.273 OA
HETATM   31  C   UNL     1      31.408  44.365  57.261  1.00  0.00     0.103 C 
HETATM   32  C   UNL     1      30.922  43.056  56.683  1.00  0.00     0.014 C 
HETATM   33  C   UNL     1      27.301  44.986  53.480  1.00  0.00     0.027 A 
ENDBRANCH  18  21
ENDBRANCH   1  18
TORSDOF 8
ENDMDL
MODEL 9
REMARK VINA RESULT:      -7.9     12.202     14.330
REMARK  8 active torsions:
REMARK  status: ('A' for Active; 'I' for Inactive)
REMARK    1  A    between atoms: O_2  and  C_3 
REMARK    2  A    between atoms: C_5  and  C_6 
REMARK    3  A    between atoms: C_6  and  N_7 
REMARK       I    between atoms: N_7  and  C_8 
REMARK    4  A    between atoms: C_8  and  C_9 
REMARK    5  A    between atoms: C_9  and  C_10 
REMARK    6  A    between atoms: C_10  and  N_11 
REMARK    7  A    between atoms: N_11  and  S_12 
REMARK    8  A    between atoms: S_12  and  C_13 
ROOT
HETATM    1  N   UNL     1      26.740  46.569  37.897  1.00  0.00    -0.215 NA
HETATM    2  H   UNL     1      26.691  46.448  36.883  1.00  0.00     0.139 HD
ENDROOT
BRANCH   1   3
HETATM    3  C   UNL     1      26.848  45.332  38.701  1.00  0.00     0.113 C 
BRANCH   3   4
HETATM    4  C   UNL     1      28.197  45.270  39.402  1.00  0.00     0.118 C 
BRANCH   4   5
HETATM    5  C   UNL     1      29.206  46.167  38.720  1.00  0.00     0.219 C 
HETATM    6  N   UNL     1      29.561  47.269  39.460  1.00  0.00    -0.357 N 
HETATM    7  H   UNL     1      29.296  47.296  40.436  1.00  0.00     0.162 HD
HETATM    8  O   UNL     1      29.670  45.910  37.616  1.00  0.00    -0.274 OA
BRANCH   6   9
HETATM    9  C   UNL     1      30.587  48.176  39.004  1.00  0.00     0.161 C 
BRANCH   9  10
HETATM   10  C   UNL     1      31.232  48.902  40.157  1.00  0.00    -0.038 A 
HETATM   11  C   UNL     1      31.999  50.060  39.930  1.00  0.00     0.045 A 
HETATM   12  C   UNL     1      32.596  50.746  40.988  1.00  0.00     0.068 A 
HETATM   13  C   UNL     1      32.426  50.269  42.288  1.00  0.00     0.037 A 
HETATM   14  C   UNL     1      31.671  49.120  42.530  1.00  0.00     0.003 A 
HETATM   15  C   UNL     1      31.077  48.439  41.469  1.00  0.00     0.009 A 
BRANCH  12  16
HETATM   16  O   UNL     1      33.359  51.876  40.882  1.00  0.00    -0.356 OA
HETATM   17  C   UNL     1      33.260  52.615  39.670  1.00  0.00     0.210 C 
ENDBRANCH  12  16
ENDBRANCH   9  10
ENDBRANCH   6   9
ENDBRANCH   4   5
ENDBRANCH   3   4
ENDBRANCH   1   3
BRANCH   1  18
HETATM   18  S   UNL     1      25.562  47.692  38.371  1.00  0.00     0.241 S 
HETATM   19  O   UNL     1      25.154  48.370  37.161  1.00  0.00    -0.206 OA
HETATM   20  O   UNL     1      24.620  46.995  39.215  1.00  0.00    -0.206 OA
BRANCH  18  21
HETATM   21  C   UNL     1      26.487  48.842  39.348  1.00  0.00     0.075 A 
HETATM   22  C   UNL     1      26.970  50.010  38.759  1.00  0.00     0.034 A 
HETATM   23  C   UNL     1      27.783  50.917  39.476  1.00  0.00    -0.030 A 
HETATM   24  C   UNL     1      28.060  50.648  40.823  1.00  0.00     0.041 A 
HETATM   25  C   UNL     1      28.248  52.124  38.710  1.00  0.00     0.041 C 
HETATM   26  N   UNL     1      28.844  51.417  41.697  1.00  0.00    -0.327 N 
HETATM   27  C   UNL     1      27.524  49.480  41.409  1.00  0.00     0.031 A 
HETATM   28  C   UNL     1      29.577  52.550  41.588  1.00  0.00     0.222 C 
HETATM   29  H   UNL     1      28.931  51.061  42.643  1.00  0.00     0.169 HD
HETATM   30  O   UNL     1      30.154  52.946  42.607  1.00  0.00    -0.273 OA
HETATM   31  C   UNL     1      29.657  53.367  40.332  1.00  0.00     0.103 C 
HETATM   32  C   UNL     1      29.657  52.571  39.048  1.00  0.00     0.014 C 
HETATM   33  C   UNL     1      26.748  48.576  40.683  1.00  0.00     0.027 A 
ENDBRANCH  18  21
ENDBRANCH   1  18
TORSDOF 8
ENDMDL
MODEL 10
REMARK VINA RESULT:      -7.7      3.559      6.747
REMARK  8 active torsions:
REMARK  status: ('A' for Active; 'I' for Inactive)
REMARK    1  A    between atoms: O_2  and  C_3 
REMARK    2  A    between atoms: C_5  and  C_6 
REMARK    3  A    between atoms: C_6  and  N_7 
REMARK       I    between atoms: N_7  and  C_8 
REMARK    4  A    between atoms: C_8  and  C_9 
REMARK    5  A    between atoms: C_9  and  C_10 
REMARK    6  A    between atoms: C_10  and  N_11 
REMARK    7  A    between atoms: N_11  and  S_12 
REMARK    8  A    between atoms: S_12  and  C_13 
ROOT
HETATM    1  N   UNL     1      25.943  43.200  51.697  1.00  0.00    -0.215 NA
HETATM    2  H   UNL     1      26.821  42.794  51.366  1.00  0.00     0.139 HD
ENDROOT
BRANCH   1   3
HETATM    3  C   UNL     1      24.704  42.666  51.090  1.00  0.00     0.113 C 
BRANCH   3   4
HETATM    4  C   UNL     1      24.957  42.242  49.651  1.00  0.00     0.118 C 
BRANCH   4   5
HETATM    5  C   UNL     1      26.338  41.644  49.494  1.00  0.00     0.219 C 
HETATM    6  N   UNL     1      26.483  40.416  50.092  1.00  0.00    -0.357 N 
HETATM    7  H   UNL     1      25.651  39.931  50.400  1.00  0.00     0.162 HD
HETATM    8  O   UNL     1      27.230  42.209  48.872  1.00  0.00    -0.274 OA
BRANCH   6   9
HETATM    9  C   UNL     1      27.705  39.659  49.956  1.00  0.00     0.161 C 
BRANCH   9  10
HETATM   10  C   UNL     1      27.555  38.550  48.946  1.00  0.00    -0.038 A 
HETATM   11  C   UNL     1      28.120  38.673  47.663  1.00  0.00     0.045 A 
HETATM   12  C   UNL     1      27.996  37.652  46.721  1.00  0.00     0.068 A 
HETATM   13  C   UNL     1      27.298  36.494  47.063  1.00  0.00     0.037 A 
HETATM   14  C   UNL     1      26.729  36.356  48.331  1.00  0.00     0.003 A 
HETATM   15  C   UNL     1      26.857  37.380  49.268  1.00  0.00     0.009 A 
BRANCH  12  16
HETATM   16  O   UNL     1      28.502  37.667  45.451  1.00  0.00    -0.356 OA
HETATM   17  C   UNL     1      28.328  38.861  44.697  1.00  0.00     0.210 C 
ENDBRANCH  12  16
ENDBRANCH   9  10
ENDBRANCH   6   9
ENDBRANCH   4   5
ENDBRANCH   3   4
ENDBRANCH   1   3
BRANCH   1  18
HETATM   18  S   UNL     1      26.106  44.887  51.751  1.00  0.00     0.241 S 
HETATM   19  O   UNL     1      26.847  45.249  50.564  1.00  0.00    -0.206 OA
HETATM   20  O   UNL     1      24.800  45.434  52.038  1.00  0.00    -0.206 OA
BRANCH  18  21
HETATM   21  C   UNL     1      27.166  45.133  53.146  1.00  0.00     0.075 A 
HETATM   22  C   UNL     1      28.265  44.294  53.329  1.00  0.00     0.034 A 
HETATM   23  C   UNL     1      29.092  44.399  54.472  1.00  0.00    -0.030 A 
HETATM   24  C   UNL     1      28.818  45.408  55.406  1.00  0.00     0.041 A 
HETATM   25  C   UNL     1      30.228  43.419  54.548  1.00  0.00     0.041 C 
HETATM   26  N   UNL     1      29.514  45.670  56.597  1.00  0.00    -0.327 N 
HETATM   27  C   UNL     1      27.725  46.272  55.176  1.00  0.00     0.031 A 
HETATM   28  C   UNL     1      30.559  45.105  57.246  1.00  0.00     0.222 C 
HETATM   29  H   UNL     1      29.168  46.448  57.149  1.00  0.00     0.169 HD
HETATM   30  O   UNL     1      30.909  45.628  58.310  1.00  0.00    -0.273 OA
HETATM   31  C   UNL     1      31.341  43.945  56.704  1.00  0.00     0.103 C 
HETATM   32  C   UNL     1      30.527  42.920  55.949  1.00  0.00     0.014 C 
HETATM   33  C   UNL     1      26.897  46.139  54.061  1.00  0.00     0.027 A 
ENDBRANCH  18  21
ENDBRANCH   1  18
TORSDOF 8
ENDMDL
