MODEL 1
REMARK VINA RESULT:      -9.5      0.000      0.000
REMARK  3 active torsions:
REMARK  status: ('A' for Active; 'I' for Inactive)
REMARK    1  A    between atoms: C_5  and  C_6 
REMARK    2  A    between atoms: C_13  and  O_14 
REMARK    3  A    between atoms: C_26  and  O_27 
ROOT
HETATM    1  C   UNL     1      23.801  42.672  48.368  1.00  0.00     0.021 C 
HETATM    2  C   UNL     1      24.615  43.354  49.472  1.00  0.00     0.033 C 
HETATM    3  C   UNL     1      26.122  43.129  49.255  1.00  0.00     0.289 C 
HETATM    4  N   UNL     1      26.895  43.747  50.346  1.00  0.00     0.126 N 
HETATM    5  C   UNL     1      26.571  43.116  51.627  1.00  0.00     0.458 C 
HETATM    6  N   UNL     1      25.112  43.409  51.899  1.00  0.00    -0.033 N 
HETATM    7  H   UNL     1      24.855  42.973  52.789  1.00  0.00     0.282 HD
HETATM    8  C   UNL     1      24.246  42.758  50.837  1.00  0.00     0.251 C 
HETATM    9  C   UNL     1      26.684  45.201  50.362  1.00  0.00     0.289 C 
HETATM   10  C   UNL     1      25.204  45.528  50.618  1.00  0.00     0.033 C 
HETATM   11  C   UNL     1      24.994  47.044  50.671  1.00  0.00     0.021 C 
HETATM   12  C   UNL     1      24.820  44.895  51.959  1.00  0.00     0.251 C 
HETATM   13  C   UNL     1      24.358  44.880  49.499  1.00  0.00     0.141 C 
ENDROOT
BRANCH   5  14
HETATM   14  C   UNL     1      27.545  43.418  52.756  1.00  0.00     0.044 A 
HETATM   15  C   UNL     1      28.540  42.517  53.131  1.00  0.00     0.137 A 
HETATM   16 CL   UNL     1      28.707  40.938  52.465  1.00  0.00    -0.062 Cl
HETATM   17  N   UNL     1      29.447  42.735  54.103  1.00  0.00    -0.233 NA
HETATM   18  C   UNL     1      29.397  43.870  54.830  1.00  0.00     0.102 A 
HETATM   19  C   UNL     1      28.377  44.812  54.598  1.00  0.00    -0.004 A 
HETATM   20  C   UNL     1      30.343  44.152  55.832  1.00  0.00     0.097 A 
HETATM   21  C   UNL     1      27.457  44.566  53.562  1.00  0.00     0.028 A 
HETATM   22  C   UNL     1      28.287  45.973  55.385  1.00  0.00     0.014 A 
HETATM   23  C   UNL     1      29.213  46.214  56.395  1.00  0.00     0.004 A 
HETATM   24  C   UNL     1      30.243  45.307  56.617  1.00  0.00     0.039 A 
BRANCH  20  25
HETATM   25  O   UNL     1      31.334  43.211  56.008  1.00  0.00    -0.354 OA
HETATM   26  C   UNL     1      32.025  43.240  57.250  1.00  0.00     0.210 C 
ENDBRANCH  20  25
ENDBRANCH   5  14
BRANCH  13  27
HETATM   27  O   UNL     1      22.974  45.119  49.746  1.00  0.00    -0.394 OA
HETATM   28  H   UNL     1      22.679  45.843  49.158  1.00  0.00     0.210 HD
ENDBRANCH  13  27
TORSDOF 3
ENDMDL
MODEL 2
REMARK VINA RESULT:      -9.0      2.213      3.230
REMARK  3 active torsions:
REMARK  status: ('A' for Active; 'I' for Inactive)
REMARK    1  A    between atoms: C_5  and  C_6 
REMARK    2  A    between atoms: C_13  and  O_14 
REMARK    3  A    between atoms: C_26  and  O_27 
ROOT
HETATM    1  C   UNL     1      23.395  44.988  48.561  1.00  0.00     0.021 C 
HETATM    2  C   UNL     1      24.442  44.543  49.587  1.00  0.00     0.033 C 
HETATM    3  C   UNL     1      23.943  44.800  51.020  1.00  0.00     0.289 C 
HETATM    4  N   UNL     1      24.974  44.413  51.999  1.00  0.00     0.126 N 
HETATM    5  C   UNL     1      26.173  45.237  51.833  1.00  0.00     0.458 C 
HETATM    6  N   UNL     1      26.728  44.926  50.461  1.00  0.00    -0.033 N 
HETATM    7  H   UNL     1      27.567  45.496  50.316  1.00  0.00     0.282 HD
HETATM    8  C   UNL     1      25.736  45.346  49.394  1.00  0.00     0.251 C 
HETATM    9  C   UNL     1      25.257  42.975  51.902  1.00  0.00     0.289 C 
HETATM   10  C   UNL     1      25.807  42.627  50.509  1.00  0.00     0.033 C 
HETATM   11  C   UNL     1      26.137  41.134  50.423  1.00  0.00     0.021 C 
HETATM   12  C   UNL     1      27.074  43.460  50.294  1.00  0.00     0.251 C 
HETATM   13  C   UNL     1      24.756  43.034  49.451  1.00  0.00     0.141 C 
ENDROOT
BRANCH   5  14
HETATM   14  C   UNL     1      27.157  45.179  52.992  1.00  0.00     0.044 A 
HETATM   15  C   UNL     1      27.192  46.163  53.979  1.00  0.00     0.137 A 
HETATM   16 CL   UNL     1      26.238  47.596  53.942  1.00  0.00    -0.062 Cl
HETATM   17  N   UNL     1      28.020  46.155  55.042  1.00  0.00    -0.233 NA
HETATM   18  C   UNL     1      28.935  45.173  55.178  1.00  0.00     0.102 A 
HETATM   19  C   UNL     1      29.049  44.175  54.192  1.00  0.00    -0.004 A 
HETATM   20  C   UNL     1      29.797  45.110  56.287  1.00  0.00     0.097 A 
HETATM   21  C   UNL     1      28.157  44.198  53.105  1.00  0.00     0.028 A 
HETATM   22  C   UNL     1      30.033  43.177  54.299  1.00  0.00     0.014 A 
HETATM   23  C   UNL     1      30.899  43.155  55.388  1.00  0.00     0.004 A 
HETATM   24  C   UNL     1      30.780  44.117  56.384  1.00  0.00     0.039 A 
BRANCH  20  25
HETATM   25  O   UNL     1      29.633  46.096  57.235  1.00  0.00    -0.354 OA
HETATM   26  C   UNL     1      30.568  46.109  58.307  1.00  0.00     0.210 C 
ENDBRANCH  20  25
ENDBRANCH   5  14
BRANCH  13  27
HETATM   27  O   UNL     1      25.266  42.776  48.145  1.00  0.00    -0.394 OA
HETATM   28  H   UNL     1      25.280  43.620  47.650  1.00  0.00     0.210 HD
ENDBRANCH  13  27
TORSDOF 3
ENDMDL
MODEL 3
REMARK VINA RESULT:      -7.8     13.081     14.426
REMARK  3 active torsions:
REMARK  status: ('A' for Active; 'I' for Inactive)
REMARK    1  A    between atoms: C_5  and  C_6 
REMARK    2  A    between atoms: C_13  and  O_14 
REMARK    3  A    between atoms: C_26  and  O_27 
ROOT
HETATM    1  C   UNL     1      27.379  49.236  40.780  1.00  0.00     0.021 C 
HETATM    2  C   UNL     1      28.793  49.817  40.697  1.00  0.00     0.033 C 
HETATM    3  C   UNL     1      29.842  48.747  41.047  1.00  0.00     0.289 C 
HETATM    4  N   UNL     1      31.197  49.327  41.011  1.00  0.00     0.126 N 
HETATM    5  C   UNL     1      31.334  50.376  42.023  1.00  0.00     0.458 C 
HETATM    6  N   UNL     1      30.371  51.478  41.639  1.00  0.00    -0.033 N 
HETATM    7  H   UNL     1      30.442  52.225  42.336  1.00  0.00     0.282 HD
HETATM    8  C   UNL     1      28.945  50.966  41.703  1.00  0.00     0.251 C 
HETATM    9  C   UNL     1      31.513  49.801  39.657  1.00  0.00     0.289 C 
HETATM   10  C   UNL     1      30.538  50.911  39.233  1.00  0.00     0.033 C 
HETATM   11  C   UNL     1      30.894  51.430  37.837  1.00  0.00     0.021 C 
HETATM   12  C   UNL     1      30.654  52.041  40.261  1.00  0.00     0.251 C 
HETATM   13  C   UNL     1      29.101  50.344  39.275  1.00  0.00     0.141 C 
ENDROOT
BRANCH   5  14
HETATM   14  C   UNL     1      32.765  50.798  42.321  1.00  0.00     0.044 A 
HETATM   15  C   UNL     1      33.092  51.551  43.447  1.00  0.00     0.137 A 
HETATM   16 CL   UNL     1      31.930  52.190  44.546  1.00  0.00    -0.062 Cl
HETATM   17  N   UNL     1      34.340  51.934  43.780  1.00  0.00    -0.233 NA
HETATM   18  C   UNL     1      35.376  51.636  42.968  1.00  0.00     0.102 A 
HETATM   19  C   UNL     1      35.149  50.955  41.757  1.00  0.00    -0.004 A 
HETATM   20  C   UNL     1      36.698  51.988  43.292  1.00  0.00     0.097 A 
HETATM   21  C   UNL     1      33.838  50.550  41.448  1.00  0.00     0.028 A 
HETATM   22  C   UNL     1      36.215  50.685  40.882  1.00  0.00     0.014 A 
HETATM   23  C   UNL     1      37.510  51.075  41.206  1.00  0.00     0.004 A 
HETATM   24  C   UNL     1      37.754  51.722  42.412  1.00  0.00     0.039 A 
BRANCH  20  25
HETATM   25  O   UNL     1      36.872  52.633  44.497  1.00  0.00    -0.354 OA
HETATM   26  C   UNL     1      37.542  53.887  44.456  1.00  0.00     0.210 C 
ENDBRANCH  20  25
ENDBRANCH   5  14
BRANCH  13  27
HETATM   27  O   UNL     1      28.170  51.372  38.943  1.00  0.00    -0.394 OA
HETATM   28  H   UNL     1      28.228  52.069  39.627  1.00  0.00     0.210 HD
ENDBRANCH  13  27
TORSDOF 3
ENDMDL
MODEL 4
REMARK VINA RESULT:      -7.8     10.621     14.918
REMARK  3 active torsions:
REMARK  status: ('A' for Active; 'I' for Inactive)
REMARK    1  A    between atoms: C_5  and  C_6 
REMARK    2  A    between atoms: C_13  and  O_14 
REMARK    3  A    between atoms: C_26  and  O_27 
ROOT
HETATM    1  C   UNL     1      18.633  48.736  51.279  1.00  0.00     0.021 C 
HETATM    2  C   UNL     1      18.858  49.474  49.955  1.00  0.00     0.033 C 
HETATM    3  C   UNL     1      17.970  50.728  49.875  1.00  0.00     0.289 C 
HETATM    4  N   UNL     1      18.157  51.405  48.580  1.00  0.00     0.126 N 
HETATM    5  C   UNL     1      17.734  50.537  47.479  1.00  0.00     0.458 C 
HETATM    6  N   UNL     1      18.659  49.340  47.490  1.00  0.00    -0.033 N 
HETATM    7  H   UNL     1      18.381  48.711  46.732  1.00  0.00     0.282 HD
HETATM    8  C   UNL     1      18.484  48.561  48.779  1.00  0.00     0.251 C 
HETATM    9  C   UNL     1      19.546  51.862  48.438  1.00  0.00     0.289 C 
HETATM   10  C   UNL     1      20.512  50.666  48.464  1.00  0.00     0.033 C 
HETATM   11  C   UNL     1      21.955  51.142  48.278  1.00  0.00     0.021 C 
HETATM   12  C   UNL     1      20.113  49.731  47.318  1.00  0.00     0.251 C 
HETATM   13  C   UNL     1      20.332  49.919  49.804  1.00  0.00     0.141 C 
ENDROOT
BRANCH   5  14
HETATM   14  C   UNL     1      17.547  51.239  46.143  1.00  0.00     0.044 A 
HETATM   15  C   UNL     1      16.596  52.242  45.964  1.00  0.00     0.137 A 
HETATM   16 CL   UNL     1      15.457  52.713  47.167  1.00  0.00    -0.062 Cl
HETATM   17  N   UNL     1      16.400  52.919  44.815  1.00  0.00    -0.233 NA
HETATM   18  C   UNL     1      17.114  52.602  43.715  1.00  0.00     0.102 A 
HETATM   19  C   UNL     1      18.040  51.542  43.757  1.00  0.00    -0.004 A 
HETATM   20  C   UNL     1      16.963  53.302  42.505  1.00  0.00     0.097 A 
HETATM   21  C   UNL     1      18.238  50.870  44.976  1.00  0.00     0.028 A 
HETATM   22  C   UNL     1      18.751  51.173  42.603  1.00  0.00     0.014 A 
HETATM   23  C   UNL     1      18.560  51.857  41.407  1.00  0.00     0.004 A 
HETATM   24  C   UNL     1      17.670  52.923  41.357  1.00  0.00     0.039 A 
BRANCH  20  25
HETATM   25  O   UNL     1      16.061  54.344  42.520  1.00  0.00    -0.354 OA
HETATM   26  C   UNL     1      15.127  54.391  41.448  1.00  0.00     0.210 C 
ENDBRANCH  20  25
ENDBRANCH   5  14
BRANCH  13  27
HETATM   27  O   UNL     1      21.175  48.769  49.829  1.00  0.00    -0.394 OA
HETATM   28  H   UNL     1      20.819  48.116  49.193  1.00  0.00     0.210 HD
ENDBRANCH  13  27
TORSDOF 3
ENDMDL
MODEL 5
REMARK VINA RESULT:      -7.8      3.513      6.817
REMARK  3 active torsions:
REMARK  status: ('A' for Active; 'I' for Inactive)
REMARK    1  A    between atoms: C_5  and  C_6 
REMARK    2  A    between atoms: C_13  and  O_14 
REMARK    3  A    between atoms: C_26  and  O_27 
ROOT
HETATM    1  C   UNL     1      26.190  46.728  54.347  1.00  0.00     0.021 C 
HETATM    2  C   UNL     1      26.755  45.422  53.779  1.00  0.00     0.033 C 
HETATM    3  C   UNL     1      26.957  45.534  52.258  1.00  0.00     0.289 C 
HETATM    4  N   UNL     1      27.456  44.260  51.712  1.00  0.00     0.126 N 
HETATM    5  C   UNL     1      26.472  43.194  51.914  1.00  0.00     0.458 C 
HETATM    6  N   UNL     1      26.331  43.010  53.409  1.00  0.00    -0.033 N 
HETATM    7  H   UNL     1      25.641  42.273  53.579  1.00  0.00     0.282 HD
HETATM    8  C   UNL     1      25.772  44.272  54.035  1.00  0.00     0.251 C 
HETATM    9  C   UNL     1      28.768  43.935  52.290  1.00  0.00     0.289 C 
HETATM   10  C   UNL     1      28.657  43.760  53.813  1.00  0.00     0.033 C 
HETATM   11  C   UNL     1      30.018  43.385  54.407  1.00  0.00     0.021 C 
HETATM   12  C   UNL     1      27.642  42.643  54.074  1.00  0.00     0.251 C 
HETATM   13  C   UNL     1      28.120  45.075  54.421  1.00  0.00     0.141 C 
ENDROOT
BRANCH   5  14
HETATM   14  C   UNL     1      26.712  41.935  51.095  1.00  0.00     0.044 A 
HETATM   15  C   UNL     1      25.783  41.473  50.164  1.00  0.00     0.137 A 
HETATM   16 CL   UNL     1      24.232  42.181  49.922  1.00  0.00    -0.062 Cl
HETATM   17  N   UNL     1      25.948  40.382  49.391  1.00  0.00    -0.233 NA
HETATM   18  C   UNL     1      27.051  39.618  49.528  1.00  0.00     0.102 A 
HETATM   19  C   UNL     1      28.015  39.940  50.502  1.00  0.00    -0.004 A 
HETATM   20  C   UNL     1      27.278  38.490  48.720  1.00  0.00     0.097 A 
HETATM   21  C   UNL     1      27.826  41.098  51.279  1.00  0.00     0.028 A 
HETATM   22  C   UNL     1      29.143  39.122  50.686  1.00  0.00     0.014 A 
HETATM   23  C   UNL     1      29.328  37.989  49.899  1.00  0.00     0.004 A 
HETATM   24  C   UNL     1      28.400  37.674  48.914  1.00  0.00     0.039 A 
BRANCH  20  25
HETATM   25  O   UNL     1      26.317  38.227  47.768  1.00  0.00    -0.354 OA
HETATM   26  C   UNL     1      26.720  38.346  46.409  1.00  0.00     0.210 C 
ENDBRANCH  20  25
ENDBRANCH   5  14
BRANCH  13  27
HETATM   27  O   UNL     1      27.952  44.920  55.828  1.00  0.00    -0.394 OA
HETATM   28  H   UNL     1      27.551  44.043  55.992  1.00  0.00     0.210 HD
ENDBRANCH  13  27
TORSDOF 3
ENDMDL
MODEL 6
REMARK VINA RESULT:      -7.7     13.628     15.402
REMARK  3 active torsions:
REMARK  status: ('A' for Active; 'I' for Inactive)
REMARK    1  A    between atoms: C_5  and  C_6 
REMARK    2  A    between atoms: C_13  and  O_14 
REMARK    3  A    between atoms: C_26  and  O_27 
ROOT
HETATM    1  C   UNL     1      27.547  47.528  40.243  1.00  0.00     0.021 C 
HETATM    2  C   UNL     1      28.527  48.698  40.373  1.00  0.00     0.033 C 
HETATM    3  C   UNL     1      29.171  49.021  39.013  1.00  0.00     0.289 C 
HETATM    4  N   UNL     1      30.147  50.115  39.155  1.00  0.00     0.126 N 
HETATM    5  C   UNL     1      31.244  49.714  40.038  1.00  0.00     0.458 C 
HETATM    6  N   UNL     1      30.638  49.482  41.405  1.00  0.00    -0.033 N 
HETATM    7  H   UNL     1      31.385  49.192  42.043  1.00  0.00     0.282 HD
HETATM    8  C   UNL     1      29.655  48.329  41.346  1.00  0.00     0.251 C 
HETATM    9  C   UNL     1      29.476  51.343  39.606  1.00  0.00     0.289 C 
HETATM   10  C   UNL     1      28.836  51.129  40.987  1.00  0.00     0.033 C 
HETATM   11  C   UNL     1      28.171  52.421  41.472  1.00  0.00     0.021 C 
HETATM   12  C   UNL     1      29.952  50.717  41.952  1.00  0.00     0.251 C 
HETATM   13  C   UNL     1      27.815  49.974  40.882  1.00  0.00     0.141 C 
ENDROOT
BRANCH   5  14
HETATM   14  C   UNL     1      32.472  50.609  39.983  1.00  0.00     0.044 A 
HETATM   15  C   UNL     1      32.797  51.346  38.845  1.00  0.00     0.137 A 
HETATM   16 CL   UNL     1      31.941  51.240  37.355  1.00  0.00    -0.062 Cl
HETATM   17  N   UNL     1      33.855  52.175  38.743  1.00  0.00    -0.233 NA
HETATM   18  C   UNL     1      34.721  52.294  39.770  1.00  0.00     0.102 A 
HETATM   19  C   UNL     1      34.540  51.526  40.936  1.00  0.00    -0.004 A 
HETATM   20  C   UNL     1      35.819  53.170  39.717  1.00  0.00     0.097 A 
HETATM   21  C   UNL     1      33.415  50.686  41.022  1.00  0.00     0.028 A 
HETATM   22  C   UNL     1      35.466  51.606  41.991  1.00  0.00     0.014 A 
HETATM   23  C   UNL     1      36.565  52.454  41.902  1.00  0.00     0.004 A 
HETATM   24  C   UNL     1      36.741  53.239  40.769  1.00  0.00     0.039 A 
BRANCH  20  25
HETATM   25  O   UNL     1      35.942  53.915  38.565  1.00  0.00    -0.354 OA
HETATM   26  C   UNL     1      35.979  55.328  38.721  1.00  0.00     0.210 C 
ENDBRANCH  20  25
ENDBRANCH   5  14
BRANCH  13  27
HETATM   27  O   UNL     1      27.248  49.716  42.164  1.00  0.00    -0.394 OA
HETATM   28  H   UNL     1      26.300  49.954  42.132  1.00  0.00     0.210 HD
ENDBRANCH  13  27
TORSDOF 3
ENDMDL
MODEL 7
REMARK VINA RESULT:      -7.7      3.704      5.198
REMARK  3 active torsions:
REMARK  status: ('A' for Active; 'I' for Inactive)
REMARK    1  A    between atoms: C_5  and  C_6 
REMARK    2  A    between atoms: C_13  and  O_14 
REMARK    3  A    between atoms: C_26  and  O_27 
ROOT
HETATM    1  C   UNL     1      25.989  39.311  45.738  1.00  0.00     0.021 C 
HETATM    2  C   UNL     1      26.547  39.633  47.128  1.00  0.00     0.033 C 
HETATM    3  C   UNL     1      25.422  40.090  48.073  1.00  0.00     0.289 C 
HETATM    4  N   UNL     1      25.973  40.443  49.393  1.00  0.00     0.126 N 
HETATM    5  C   UNL     1      26.893  41.577  49.279  1.00  0.00     0.458 C 
HETATM    6  N   UNL     1      28.053  41.112  48.426  1.00  0.00    -0.033 N 
HETATM    7  H   UNL     1      28.710  41.890  48.324  1.00  0.00     0.282 HD
HETATM    8  C   UNL     1      27.566  40.777  47.029  1.00  0.00     0.251 C 
HETATM    9  C   UNL     1      26.598  39.268  50.017  1.00  0.00     0.289 C 
HETATM   10  C   UNL     1      27.770  38.763  49.160  1.00  0.00     0.033 C 
HETATM   11  C   UNL     1      28.442  37.562  49.832  1.00  0.00     0.021 C 
HETATM   12  C   UNL     1      28.768  39.916  49.022  1.00  0.00     0.251 C 
HETATM   13  C   UNL     1      27.231  38.397  47.759  1.00  0.00     0.141 C 
ENDROOT
BRANCH   5  14
HETATM   14  C   UNL     1      27.247  42.251  50.596  1.00  0.00     0.044 A 
HETATM   15  C   UNL     1      26.380  43.143  51.224  1.00  0.00     0.137 A 
HETATM   16 CL   UNL     1      24.890  43.676  50.542  1.00  0.00    -0.062 Cl
HETATM   17  N   UNL     1      26.623  43.752  52.401  1.00  0.00    -0.233 NA
HETATM   18  C   UNL     1      27.800  43.558  53.030  1.00  0.00     0.102 A 
HETATM   19  C   UNL     1      28.789  42.747  52.441  1.00  0.00    -0.004 A 
HETATM   20  C   UNL     1      28.083  44.148  54.274  1.00  0.00     0.097 A 
HETATM   21  C   UNL     1      28.497  42.108  51.223  1.00  0.00     0.028 A 
HETATM   22  C   UNL     1      30.037  42.580  53.065  1.00  0.00     0.014 A 
HETATM   23  C   UNL     1      30.308  43.203  54.279  1.00  0.00     0.004 A 
HETATM   24  C   UNL     1      29.332  43.983  54.886  1.00  0.00     0.039 A 
BRANCH  20  25
HETATM   25  O   UNL     1      27.077  44.916  54.821  1.00  0.00    -0.354 OA
HETATM   26  C   UNL     1      27.333  46.310  54.936  1.00  0.00     0.210 C 
ENDBRANCH  20  25
ENDBRANCH   5  14
BRANCH  13  27
HETATM   27  O   UNL     1      28.310  37.980  46.925  1.00  0.00    -0.394 OA
HETATM   28  H   UNL     1      29.040  38.625  47.025  1.00  0.00     0.210 HD
ENDBRANCH  13  27
TORSDOF 3
ENDMDL
MODEL 8
REMARK VINA RESULT:      -7.7      6.625      9.299
REMARK  3 active torsions:
REMARK  status: ('A' for Active; 'I' for Inactive)
REMARK    1  A    between atoms: C_5  and  C_6 
REMARK    2  A    between atoms: C_13  and  O_14 
REMARK    3  A    between atoms: C_26  and  O_27 
ROOT
HETATM    1  C   UNL     1      17.089  51.888  46.478  1.00  0.00     0.021 C 
HETATM    2  C   UNL     1      17.929  50.794  47.144  1.00  0.00     0.033 C 
HETATM    3  C   UNL     1      18.765  51.377  48.296  1.00  0.00     0.289 C 
HETATM    4  N   UNL     1      19.605  50.328  48.901  1.00  0.00     0.126 N 
HETATM    5  C   UNL     1      20.565  49.811  47.924  1.00  0.00     0.458 C 
HETATM    6  N   UNL     1      19.757  49.152  46.828  1.00  0.00    -0.033 N 
HETATM    7  H   UNL     1      20.405  48.786  46.124  1.00  0.00     0.282 HD
HETATM    8  C   UNL     1      18.900  50.186  46.123  1.00  0.00     0.251 C 
HETATM    9  C   UNL     1      18.764  49.272  49.482  1.00  0.00     0.289 C 
HETATM   10  C   UNL     1      17.917  48.597  48.391  1.00  0.00     0.033 C 
HETATM   11  C   UNL     1      17.071  47.472  48.994  1.00  0.00     0.021 C 
HETATM   12  C   UNL     1      18.883  48.028  47.347  1.00  0.00     0.251 C 
HETATM   13  C   UNL     1      17.033  49.672  47.721  1.00  0.00     0.141 C 
ENDROOT
BRANCH   5  14
HETATM   14  C   UNL     1      21.703  48.991  48.513  1.00  0.00     0.044 A 
HETATM   15  C   UNL     1      22.715  49.576  49.272  1.00  0.00     0.137 A 
HETATM   16 CL   UNL     1      22.869  51.272  49.526  1.00  0.00    -0.062 Cl
HETATM   17  N   UNL     1      23.735  48.903  49.842  1.00  0.00    -0.233 NA
HETATM   18  C   UNL     1      23.857  47.574  49.648  1.00  0.00     0.102 A 
HETATM   19  C   UNL     1      22.941  46.894  48.822  1.00  0.00    -0.004 A 
HETATM   20  C   UNL     1      24.887  46.828  50.249  1.00  0.00     0.097 A 
HETATM   21  C   UNL     1      21.876  47.620  48.260  1.00  0.00     0.028 A 
HETATM   22  C   UNL     1      23.091  45.519  48.574  1.00  0.00     0.014 A 
HETATM   23  C   UNL     1      24.139  44.808  49.151  1.00  0.00     0.004 A 
HETATM   24  C   UNL     1      25.034  45.460  49.991  1.00  0.00     0.039 A 
BRANCH  20  25
HETATM   25  O   UNL     1      25.745  47.533  51.064  1.00  0.00    -0.354 OA
HETATM   26  C   UNL     1      25.889  47.059  52.397  1.00  0.00     0.210 C 
ENDBRANCH  20  25
ENDBRANCH   5  14
BRANCH  13  27
HETATM   27  O   UNL     1      16.279  49.082  46.664  1.00  0.00    -0.394 OA
HETATM   28  H   UNL     1      16.757  48.286  46.356  1.00  0.00     0.210 HD
ENDBRANCH  13  27
TORSDOF 3
ENDMDL
MODEL 9
REMARK VINA RESULT:      -7.7     13.040     15.609
REMARK  3 active torsions:
REMARK  status: ('A' for Active; 'I' for Inactive)
REMARK    1  A    between atoms: C_5  and  C_6 
REMARK    2  A    between atoms: C_13  and  O_14 
REMARK    3  A    between atoms: C_26  and  O_27 
ROOT
HETATM    1  C   UNL     1      33.280  51.902  44.225  1.00  0.00     0.021 C 
HETATM    2  C   UNL     1      32.513  51.485  42.966  1.00  0.00     0.033 C 
HETATM    3  C   UNL     1      31.219  52.305  42.821  1.00  0.00     0.289 C 
HETATM    4  N   UNL     1      30.464  51.865  41.634  1.00  0.00     0.126 N 
HETATM    5  C   UNL     1      30.046  50.470  41.779  1.00  0.00     0.458 C 
HETATM    6  N   UNL     1      31.311  49.640  41.830  1.00  0.00    -0.033 N 
HETATM    7  H   UNL     1      31.047  48.657  41.939  1.00  0.00     0.282 HD
HETATM    8  C   UNL     1      32.119  50.005  43.061  1.00  0.00     0.251 C 
HETATM    9  C   UNL     1      31.250  52.097  40.414  1.00  0.00     0.289 C 
HETATM   10  C   UNL     1      32.551  51.280  40.448  1.00  0.00     0.033 C 
HETATM   11  C   UNL     1      33.349  51.494  39.159  1.00  0.00     0.021 C 
HETATM   12  C   UNL     1      32.163  49.805  40.588  1.00  0.00     0.251 C 
HETATM   13  C   UNL     1      33.364  51.702  41.692  1.00  0.00     0.141 C 
ENDROOT
BRANCH   5  14
HETATM   14  C   UNL     1      28.976  50.015  40.798  1.00  0.00     0.044 A 
HETATM   15  C   UNL     1      27.830  50.770  40.556  1.00  0.00     0.137 A 
HETATM   16 CL   UNL     1      27.432  52.213  41.407  1.00  0.00    -0.062 Cl
HETATM   17  N   UNL     1      26.860  50.435  39.682  1.00  0.00    -0.233 NA
HETATM   18  C   UNL     1      26.932  49.269  39.009  1.00  0.00     0.102 A 
HETATM   19  C   UNL     1      28.001  48.384  39.243  1.00  0.00    -0.004 A 
HETATM   20  C   UNL     1      25.958  48.895  38.066  1.00  0.00     0.097 A 
HETATM   21  C   UNL     1      29.009  48.771  40.145  1.00  0.00     0.028 A 
HETATM   22  C   UNL     1      28.058  47.144  38.584  1.00  0.00     0.014 A 
HETATM   23  C   UNL     1      27.064  46.780  37.681  1.00  0.00     0.004 A 
HETATM   24  C   UNL     1      26.017  47.655  37.418  1.00  0.00     0.039 A 
BRANCH  20  25
HETATM   25  O   UNL     1      24.943  49.802  37.855  1.00  0.00    -0.354 OA
HETATM   26  C   UNL     1      23.660  49.449  38.357  1.00  0.00     0.210 C 
ENDBRANCH  20  25
ENDBRANCH   5  14
BRANCH  13  27
HETATM   27  O   UNL     1      34.551  50.916  41.779  1.00  0.00    -0.394 OA
HETATM   28  H   UNL     1      34.337  50.095  42.267  1.00  0.00     0.210 HD
ENDBRANCH  13  27
TORSDOF 3
ENDMDL
MODEL 10
REMARK VINA RESULT:      -7.6     13.050     14.219
REMARK  3 active torsions:
REMARK  status: ('A' for Active; 'I' for Inactive)
REMARK    1  A    between atoms: C_5  and  C_6 
REMARK    2  A    between atoms: C_13  and  O_14 
REMARK    3  A    between atoms: C_26  and  O_27 
ROOT
HETATM    1  C   UNL     1      25.985  49.630  39.283  1.00  0.00     0.021 C 
HETATM    2  C   UNL     1      27.461  49.480  39.663  1.00  0.00     0.033 C 
HETATM    3  C   UNL     1      27.681  49.840  41.143  1.00  0.00     0.289 C 
HETATM    4  N   UNL     1      29.110  49.739  41.488  1.00  0.00     0.126 N 
HETATM    5  C   UNL     1      29.894  50.704  40.715  1.00  0.00     0.458 C 
HETATM    6  N   UNL     1      29.762  50.307  39.262  1.00  0.00    -0.033 N 
HETATM    7  H   UNL     1      30.297  50.972  38.696  1.00  0.00     0.282 HD
HETATM    8  C   UNL     1      28.317  50.435  38.819  1.00  0.00     0.251 C 
HETATM    9  C   UNL     1      29.581  48.358  41.315  1.00  0.00     0.289 C 
HETATM   10  C   UNL     1      29.441  47.922  39.847  1.00  0.00     0.033 C 
HETATM   11  C   UNL     1      29.969  46.496  39.662  1.00  0.00     0.021 C 
HETATM   12  C   UNL     1      30.258  48.900  38.997  1.00  0.00     0.251 C 
HETATM   13  C   UNL     1      27.954  48.030  39.443  1.00  0.00     0.141 C 
ENDROOT
BRANCH   5  14
HETATM   14  C   UNL     1      31.306  50.941  41.228  1.00  0.00     0.044 A 
HETATM   15  C   UNL     1      31.571  51.813  42.283  1.00  0.00     0.137 A 
HETATM   16 CL   UNL     1      30.378  52.801  43.035  1.00  0.00    -0.062 Cl
HETATM   17  N   UNL     1      32.794  52.046  42.799  1.00  0.00    -0.233 NA
HETATM   18  C   UNL     1      33.878  51.457  42.256  1.00  0.00     0.102 A 
HETATM   19  C   UNL     1      33.739  50.627  41.127  1.00  0.00    -0.004 A 
HETATM   20  C   UNL     1      35.168  51.648  42.782  1.00  0.00     0.097 A 
HETATM   21  C   UNL     1      32.448  50.386  40.625  1.00  0.00     0.028 A 
HETATM   22  C   UNL     1      34.870  50.050  40.524  1.00  0.00     0.014 A 
HETATM   23  C   UNL     1      36.140  50.282  41.041  1.00  0.00     0.004 A 
HETATM   24  C   UNL     1      36.291  51.076  42.171  1.00  0.00     0.039 A 
BRANCH  20  25
HETATM   25  O   UNL     1      35.252  52.452  43.898  1.00  0.00    -0.354 OA
HETATM   26  C   UNL     1      36.553  52.887  44.273  1.00  0.00     0.210 C 
ENDBRANCH  20  25
ENDBRANCH   5  14
BRANCH  13  27
HETATM   27  O   UNL     1      27.805  47.686  38.067  1.00  0.00    -0.394 OA
HETATM   28  H   UNL     1      28.620  47.952  37.596  1.00  0.00     0.210 HD
ENDBRANCH  13  27
TORSDOF 3
ENDMDL
