MODEL 1
REMARK VINA RESULT:      -9.3      0.000      0.000
REMARK  4 active torsions:
REMARK  status: ('A' for Active; 'I' for Inactive)
REMARK    1  A    between atoms: C_6  and  C_7 
REMARK    2  A    between atoms: C_7  and  C_8 
REMARK       I    between atoms: C_8  and  N_9 
REMARK    3  A    between atoms: N_9  and  C_10 
REMARK    4  A    between atoms: C_17  and  C_18 
REMARK       I    between atoms: C_18  and  N_19 
ROOT
HETATM    1  C   UNL     1      25.498  46.466  50.542  1.00  0.00     0.035 A 
HETATM    2  C   UNL     1      24.761  47.553  50.077  1.00  0.00     0.046 A 
HETATM    3  C   UNL     1      25.377  48.528  49.262  1.00  0.00     0.030 A 
HETATM    4  C   UNL     1      26.708  48.361  48.904  1.00  0.00     0.063 A 
HETATM    5  N   UNL     1      27.014  49.443  48.127  1.00  0.00    -0.277 N 
HETATM    6  H   UNL     1      27.904  49.654  47.688  1.00  0.00     0.189 HD
HETATM    7  N   UNL     1      25.996  50.304  47.949  1.00  0.00    -0.168 NA
HETATM    8  C   UNL     1      24.980  49.752  48.648  1.00  0.00     0.156 A 
HETATM    9  C   UNL     1      27.470  47.268  49.314  1.00  0.00     0.034 A 
HETATM   10  C   UNL     1      26.834  46.327  50.136  1.00  0.00     0.032 A 
ENDROOT
BRANCH   1  11
HETATM   11  N   UNL     1      25.000  45.463  51.387  1.00  0.00    -0.326 N 
HETATM   12  C   UNL     1      25.257  45.051  52.672  1.00  0.00     0.235 C 
HETATM   13  O   UNL     1      24.557  44.141  53.123  1.00  0.00    -0.272 OA
HETATM   14  H   UNL     1      24.297  44.855  50.982  1.00  0.00     0.169 HD
BRANCH  12  15
HETATM   15  C   UNL     1      26.388  45.578  53.526  1.00  0.00     0.068 A 
HETATM   16  C   UNL     1      26.132  46.631  54.604  1.00  0.00     0.026 A 
HETATM   17  C   UNL     1      26.689  47.079  53.301  1.00  0.00     0.026 A 
BRANCH  15  18
HETATM   18  C   UNL     1      27.659  44.708  53.568  1.00  0.00    -0.039 A 
HETATM   19  C   UNL     1      28.533  44.674  54.669  1.00  0.00     0.032 A 
HETATM   20  C   UNL     1      29.682  43.875  54.658  1.00  0.00     0.034 A 
HETATM   21  C   UNL     1      29.998  43.098  53.548  1.00  0.00     0.024 A 
HETATM   22 CL   UNL     1      30.720  43.854  56.031  1.00  0.00    -0.084 Cl
HETATM   23  C   UNL     1      29.156  43.117  52.441  1.00  0.00     0.002 A 
HETATM   24  C   UNL     1      28.007  43.910  52.457  1.00  0.00     0.008 A 
ENDBRANCH  15  18
ENDBRANCH  12  15
ENDBRANCH   1  11
BRANCH   8  25
HETATM   25  C   UNL     1      23.663  50.400  48.732  1.00  0.00     0.270 C 
HETATM   26  N   UNL     1      22.929  50.329  47.582  1.00  0.00    -0.365 N 
HETATM   27  H   UNL     1      23.326  49.857  46.777  1.00  0.00     0.159 HD
HETATM   28  H   UNL     1      22.012  50.748  47.545  1.00  0.00     0.159 HD
HETATM   29  O   UNL     1      23.238  50.971  49.731  1.00  0.00    -0.266 OA
ENDBRANCH   8  25
TORSDOF 4
ENDMDL
MODEL 2
REMARK VINA RESULT:      -9.2      3.955      7.242
REMARK  4 active torsions:
REMARK  status: ('A' for Active; 'I' for Inactive)
REMARK    1  A    between atoms: C_6  and  C_7 
REMARK    2  A    between atoms: C_7  and  C_8 
REMARK       I    between atoms: C_8  and  N_9 
REMARK    3  A    between atoms: N_9  and  C_10 
REMARK    4  A    between atoms: C_17  and  C_18 
REMARK       I    between atoms: C_18  and  N_19 
ROOT
HETATM    1  C   UNL     1      26.055  44.512  53.522  1.00  0.00     0.035 A 
HETATM    2  C   UNL     1      27.284  44.009  53.944  1.00  0.00     0.046 A 
HETATM    3  C   UNL     1      28.178  44.836  54.660  1.00  0.00     0.030 A 
HETATM    4  C   UNL     1      27.793  46.134  54.967  1.00  0.00     0.063 A 
HETATM    5  N   UNL     1      28.846  46.672  55.653  1.00  0.00    -0.277 N 
HETATM    6  H   UNL     1      28.917  47.609  56.034  1.00  0.00     0.189 HD
HETATM    7  N   UNL     1      29.887  45.836  55.817  1.00  0.00    -0.168 NA
HETATM    8  C   UNL     1      29.488  44.700  55.205  1.00  0.00     0.156 A 
HETATM    9  C   UNL     1      26.557  46.663  54.600  1.00  0.00     0.034 A 
HETATM   10  C   UNL     1      25.700  45.823  53.875  1.00  0.00     0.032 A 
ENDROOT
BRANCH   1  11
HETATM   11  N   UNL     1      25.111  43.795  52.772  1.00  0.00    -0.326 N 
HETATM   12  C   UNL     1      24.948  43.487  51.444  1.00  0.00     0.235 C 
HETATM   13  O   UNL     1      23.997  42.758  51.147  1.00  0.00    -0.272 OA
HETATM   14  H   UNL     1      24.328  43.418  53.295  1.00  0.00     0.169 HD
BRANCH  12  15
HETATM   15  C   UNL     1      25.799  44.050  50.327  1.00  0.00     0.068 A 
HETATM   16  C   UNL     1      26.422  43.131  49.277  1.00  0.00     0.026 A 
HETATM   17  C   UNL     1      27.280  43.608  50.393  1.00  0.00     0.026 A 
BRANCH  15  18
HETATM   18  C   UNL     1      25.629  45.556  50.049  1.00  0.00    -0.039 A 
HETATM   19  C   UNL     1      26.707  46.412  49.761  1.00  0.00     0.032 A 
HETATM   20  C   UNL     1      26.507  47.776  49.525  1.00  0.00     0.034 A 
HETATM   21  C   UNL     1      25.231  48.327  49.579  1.00  0.00     0.024 A 
HETATM   22 CL   UNL     1      27.853  48.787  49.165  1.00  0.00    -0.084 Cl
HETATM   23  C   UNL     1      24.146  47.508  49.870  1.00  0.00     0.002 A 
HETATM   24  C   UNL     1      24.348  46.145  50.098  1.00  0.00     0.008 A 
ENDBRANCH  15  18
ENDBRANCH  12  15
ENDBRANCH   1  11
BRANCH   8  25
HETATM   25  C   UNL     1      30.358  43.517  55.137  1.00  0.00     0.270 C 
HETATM   26  N   UNL     1      31.008  43.231  56.305  1.00  0.00    -0.365 N 
HETATM   27  H   UNL     1      30.857  43.831  57.107  1.00  0.00     0.159 HD
HETATM   28  H   UNL     1      31.629  42.437  56.352  1.00  0.00     0.159 HD
HETATM   29  O   UNL     1      30.515  42.834  54.131  1.00  0.00    -0.266 OA
ENDBRANCH   8  25
TORSDOF 4
ENDMDL
MODEL 3
REMARK VINA RESULT:      -8.9      5.499      7.625
REMARK  4 active torsions:
REMARK  status: ('A' for Active; 'I' for Inactive)
REMARK    1  A    between atoms: C_6  and  C_7 
REMARK    2  A    between atoms: C_7  and  C_8 
REMARK       I    between atoms: C_8  and  N_9 
REMARK    3  A    between atoms: N_9  and  C_10 
REMARK    4  A    between atoms: C_17  and  C_18 
REMARK       I    between atoms: C_18  and  N_19 
ROOT
HETATM    1  C   UNL     1      27.195  41.630  51.495  1.00  0.00     0.035 A 
HETATM    2  C   UNL     1      27.910  40.459  51.251  1.00  0.00     0.046 A 
HETATM    3  C   UNL     1      28.172  40.054  49.924  1.00  0.00     0.030 A 
HETATM    4  C   UNL     1      27.741  40.859  48.879  1.00  0.00     0.063 A 
HETATM    5  N   UNL     1      28.136  40.216  47.738  1.00  0.00    -0.277 N 
HETATM    6  H   UNL     1      27.989  40.516  46.781  1.00  0.00     0.189 HD
HETATM    7  N   UNL     1      28.786  39.058  47.951  1.00  0.00    -0.168 NA
HETATM    8  C   UNL     1      28.811  38.944  49.297  1.00  0.00     0.156 A 
HETATM    9  C   UNL     1      27.059  42.058  49.079  1.00  0.00     0.034 A 
HETATM   10  C   UNL     1      26.800  42.423  50.407  1.00  0.00     0.032 A 
ENDROOT
BRANCH   1  11
HETATM   11  N   UNL     1      26.846  42.105  52.768  1.00  0.00    -0.326 N 
HETATM   12  C   UNL     1      27.459  42.876  53.725  1.00  0.00     0.235 C 
HETATM   13  O   UNL     1      26.802  43.152  54.733  1.00  0.00    -0.272 OA
HETATM   14  H   UNL     1      25.940  41.809  53.115  1.00  0.00     0.169 HD
BRANCH  12  15
HETATM   15  C   UNL     1      28.900  43.330  53.660  1.00  0.00     0.068 A 
HETATM   16  C   UNL     1      29.659  43.343  52.333  1.00  0.00     0.026 A 
HETATM   17  C   UNL     1      29.887  42.207  53.264  1.00  0.00     0.026 A 
BRANCH  15  18
HETATM   18  C   UNL     1      29.392  44.174  54.853  1.00  0.00    -0.039 A 
HETATM   19  C   UNL     1      30.399  43.744  55.735  1.00  0.00     0.032 A 
HETATM   20  C   UNL     1      30.806  44.540  56.811  1.00  0.00     0.034 A 
HETATM   21  C   UNL     1      30.217  45.778  57.044  1.00  0.00     0.024 A 
HETATM   22 CL   UNL     1      32.050  43.981  57.863  1.00  0.00    -0.084 Cl
HETATM   23  C   UNL     1      29.214  46.226  56.192  1.00  0.00     0.002 A 
HETATM   24  C   UNL     1      28.813  45.433  55.115  1.00  0.00     0.008 A 
ENDBRANCH  15  18
ENDBRANCH  12  15
ENDBRANCH   1  11
BRANCH   8  25
HETATM   25  C   UNL     1      29.425  37.785  49.959  1.00  0.00     0.270 C 
HETATM   26  N   UNL     1      28.531  36.840  50.380  1.00  0.00    -0.365 N 
HETATM   27  H   UNL     1      27.543  36.998  50.218  1.00  0.00     0.159 HD
HETATM   28  H   UNL     1      28.861  36.010  50.847  1.00  0.00     0.159 HD
HETATM   29  O   UNL     1      30.631  37.653  50.142  1.00  0.00    -0.266 OA
ENDBRANCH   8  25
TORSDOF 4
ENDMDL
MODEL 4
REMARK VINA RESULT:      -8.9      1.278      2.079
REMARK  4 active torsions:
REMARK  status: ('A' for Active; 'I' for Inactive)
REMARK    1  A    between atoms: C_6  and  C_7 
REMARK    2  A    between atoms: C_7  and  C_8 
REMARK       I    between atoms: C_8  and  N_9 
REMARK    3  A    between atoms: N_9  and  C_10 
REMARK    4  A    between atoms: C_17  and  C_18 
REMARK       I    between atoms: C_18  and  N_19 
ROOT
HETATM    1  C   UNL     1      24.985  46.842  50.874  1.00  0.00     0.035 A 
HETATM    2  C   UNL     1      24.119  47.523  50.021  1.00  0.00     0.046 A 
HETATM    3  C   UNL     1      24.614  48.537  49.173  1.00  0.00     0.030 A 
HETATM    4  C   UNL     1      25.975  48.811  49.178  1.00  0.00     0.063 A 
HETATM    5  N   UNL     1      26.146  49.819  48.269  1.00  0.00    -0.277 N 
HETATM    6  H   UNL     1      27.014  50.274  48.012  1.00  0.00     0.189 HD
HETATM    7  N   UNL     1      25.011  50.228  47.675  1.00  0.00    -0.168 NA
HETATM    8  C   UNL     1      24.056  49.447  48.227  1.00  0.00     0.156 A 
HETATM    9  C   UNL     1      26.882  48.126  49.984  1.00  0.00     0.034 A 
HETATM   10  C   UNL     1      26.356  47.137  50.827  1.00  0.00     0.032 A 
ENDROOT
BRANCH   1  11
HETATM   11  N   UNL     1      24.596  45.847  51.784  1.00  0.00    -0.326 N 
HETATM   12  C   UNL     1      25.244  44.866  52.494  1.00  0.00     0.235 C 
HETATM   13  O   UNL     1      24.564  44.191  53.272  1.00  0.00    -0.272 OA
HETATM   14  H   UNL     1      23.602  45.786  51.971  1.00  0.00     0.169 HD
BRANCH  12  15
HETATM   15  C   UNL     1      26.702  44.507  52.318  1.00  0.00     0.068 A 
HETATM   16  C   UNL     1      27.283  44.244  50.929  1.00  0.00     0.026 A 
HETATM   17  C   UNL     1      26.930  43.076  51.777  1.00  0.00     0.026 A 
BRANCH  15  18
HETATM   18  C   UNL     1      27.627  44.860  53.500  1.00  0.00    -0.039 A 
HETATM   19  C   UNL     1      28.683  44.034  53.924  1.00  0.00     0.032 A 
HETATM   20  C   UNL     1      29.490  44.390  55.009  1.00  0.00     0.034 A 
HETATM   21  C   UNL     1      29.263  45.571  55.708  1.00  0.00     0.024 A 
HETATM   22 CL   UNL     1      30.780  43.355  55.490  1.00  0.00    -0.084 Cl
HETATM   23  C   UNL     1      28.221  46.404  55.317  1.00  0.00     0.002 A 
HETATM   24  C   UNL     1      27.421  46.050  54.229  1.00  0.00     0.008 A 
ENDBRANCH  15  18
ENDBRANCH  12  15
ENDBRANCH   1  11
BRANCH   8  25
HETATM   25  C   UNL     1      22.641  49.587  47.860  1.00  0.00     0.270 C 
HETATM   26  N   UNL     1      22.100  50.805  48.164  1.00  0.00    -0.365 N 
HETATM   27  H   UNL     1      22.686  51.502  48.608  1.00  0.00     0.159 HD
HETATM   28  H   UNL     1      21.132  50.992  47.949  1.00  0.00     0.159 HD
HETATM   29  O   UNL     1      21.974  48.701  47.335  1.00  0.00    -0.266 OA
ENDBRANCH   8  25
TORSDOF 4
ENDMDL
MODEL 5
REMARK VINA RESULT:      -8.8      4.494      7.389
REMARK  4 active torsions:
REMARK  status: ('A' for Active; 'I' for Inactive)
REMARK    1  A    between atoms: C_6  and  C_7 
REMARK    2  A    between atoms: C_7  and  C_8 
REMARK       I    between atoms: C_8  and  N_9 
REMARK    3  A    between atoms: N_9  and  C_10 
REMARK    4  A    between atoms: C_17  and  C_18 
REMARK       I    between atoms: C_18  and  N_19 
ROOT
HETATM    1  C   UNL     1      25.879  41.399  50.375  1.00  0.00     0.035 A 
HETATM    2  C   UNL     1      26.978  40.585  50.641  1.00  0.00     0.046 A 
HETATM    3  C   UNL     1      27.524  39.778  49.618  1.00  0.00     0.030 A 
HETATM    4  C   UNL     1      26.974  39.843  48.346  1.00  0.00     0.063 A 
HETATM    5  N   UNL     1      27.703  38.968  47.589  1.00  0.00    -0.277 N 
HETATM    6  H   UNL     1      27.581  38.756  46.605  1.00  0.00     0.189 HD
HETATM    7  N   UNL     1      28.681  38.335  48.262  1.00  0.00    -0.168 NA
HETATM    8  C   UNL     1      28.578  38.823  49.518  1.00  0.00     0.156 A 
HETATM    9  C   UNL     1      25.902  40.675  48.026  1.00  0.00     0.034 A 
HETATM   10  C   UNL     1      25.371  41.449  49.067  1.00  0.00     0.032 A 
ENDROOT
BRANCH   1  11
HETATM   11  N   UNL     1      25.233  42.208  51.322  1.00  0.00    -0.326 N 
HETATM   12  C   UNL     1      25.471  43.443  51.875  1.00  0.00     0.235 C 
HETATM   13  O   UNL     1      24.625  43.880  52.660  1.00  0.00    -0.272 OA
HETATM   14  H   UNL     1      24.401  41.813  51.744  1.00  0.00     0.169 HD
BRANCH  12  15
HETATM   15  C   UNL     1      26.730  44.250  51.653  1.00  0.00     0.068 A 
HETATM   16  C   UNL     1      26.692  45.566  50.878  1.00  0.00     0.026 A 
HETATM   17  C   UNL     1      27.152  44.345  50.167  1.00  0.00     0.026 A 
BRANCH  15  18
HETATM   18  C   UNL     1      27.908  43.929  52.595  1.00  0.00    -0.039 A 
HETATM   19  C   UNL     1      28.144  44.624  53.794  1.00  0.00     0.032 A 
HETATM   20  C   UNL     1      29.232  44.305  54.614  1.00  0.00     0.034 A 
HETATM   21  C   UNL     1      30.119  43.295  54.258  1.00  0.00     0.024 A 
HETATM   22 CL   UNL     1      29.480  45.174  56.080  1.00  0.00    -0.084 Cl
HETATM   23  C   UNL     1      29.915  42.595  53.074  1.00  0.00     0.002 A 
HETATM   24  C   UNL     1      28.824  42.911  52.261  1.00  0.00     0.008 A 
ENDBRANCH  15  18
ENDBRANCH  12  15
ENDBRANCH   1  11
BRANCH   8  25
HETATM   25  C   UNL     1      29.467  38.368  50.595  1.00  0.00     0.270 C 
HETATM   26  N   UNL     1      29.466  39.171  51.701  1.00  0.00    -0.365 N 
HETATM   27  H   UNL     1      28.879  39.997  51.703  1.00  0.00     0.159 HD
HETATM   28  H   UNL     1      30.048  38.938  52.491  1.00  0.00     0.159 HD
HETATM   29  O   UNL     1      30.169  37.364  50.532  1.00  0.00    -0.266 OA
ENDBRANCH   8  25
TORSDOF 4
ENDMDL
MODEL 6
REMARK VINA RESULT:      -8.7     11.684     13.276
REMARK  4 active torsions:
REMARK  status: ('A' for Active; 'I' for Inactive)
REMARK    1  A    between atoms: C_6  and  C_7 
REMARK    2  A    between atoms: C_7  and  C_8 
REMARK       I    between atoms: C_8  and  N_9 
REMARK    3  A    between atoms: N_9  and  C_10 
REMARK    4  A    between atoms: C_17  and  C_18 
REMARK       I    between atoms: C_18  and  N_19 
ROOT
HETATM    1  C   UNL     1      31.268  48.801  39.778  1.00  0.00     0.035 A 
HETATM    2  C   UNL     1      30.156  49.501  39.313  1.00  0.00     0.046 A 
HETATM    3  C   UNL     1      28.942  48.820  39.073  1.00  0.00     0.030 A 
HETATM    4  C   UNL     1      28.868  47.462  39.346  1.00  0.00     0.063 A 
HETATM    5  N   UNL     1      27.592  47.094  39.022  1.00  0.00    -0.277 N 
HETATM    6  H   UNL     1      27.181  46.170  39.093  1.00  0.00     0.189 HD
HETATM    7  N   UNL     1      26.828  48.099  38.557  1.00  0.00    -0.168 NA
HETATM    8  C   UNL     1      27.651  49.170  38.579  1.00  0.00     0.156 A 
HETATM    9  C   UNL     1      29.944  46.732  39.852  1.00  0.00     0.034 A 
HETATM   10  C   UNL     1      31.139  47.433  40.062  1.00  0.00     0.032 A 
ENDROOT
BRANCH   1  11
HETATM   11  N   UNL     1      32.530  49.367  40.012  1.00  0.00    -0.326 N 
HETATM   12  C   UNL     1      33.063  50.212  40.955  1.00  0.00     0.235 C 
HETATM   13  O   UNL     1      34.270  50.454  40.877  1.00  0.00    -0.272 OA
HETATM   14  H   UNL     1      33.245  49.145  39.329  1.00  0.00     0.169 HD
BRANCH  12  15
HETATM   15  C   UNL     1      32.253  50.924  42.016  1.00  0.00     0.068 A 
HETATM   16  C   UNL     1      32.778  51.056  43.445  1.00  0.00     0.026 A 
HETATM   17  C   UNL     1      31.775  49.997  43.158  1.00  0.00     0.026 A 
BRANCH  15  18
HETATM   18  C   UNL     1      31.147  51.864  41.497  1.00  0.00    -0.039 A 
HETATM   19  C   UNL     1      29.775  51.598  41.654  1.00  0.00     0.032 A 
HETATM   20  C   UNL     1      28.805  52.475  41.158  1.00  0.00     0.034 A 
HETATM   21  C   UNL     1      29.173  53.634  40.483  1.00  0.00     0.024 A 
HETATM   22 CL   UNL     1      27.136  52.117  41.381  1.00  0.00    -0.084 Cl
HETATM   23  C   UNL     1      30.522  53.920  40.305  1.00  0.00     0.002 A 
HETATM   24  C   UNL     1      31.489  53.046  40.807  1.00  0.00     0.008 A 
ENDBRANCH  15  18
ENDBRANCH  12  15
ENDBRANCH   1  11
BRANCH   8  25
HETATM   25  C   UNL     1      27.204  50.493  38.122  1.00  0.00     0.270 C 
HETATM   26  N   UNL     1      25.852  50.601  37.955  1.00  0.00    -0.365 N 
HETATM   27  H   UNL     1      25.270  49.793  38.145  1.00  0.00     0.159 HD
HETATM   28  H   UNL     1      25.454  51.473  37.641  1.00  0.00     0.159 HD
HETATM   29  O   UNL     1      27.957  51.433  37.893  1.00  0.00    -0.266 OA
ENDBRANCH   8  25
TORSDOF 4
ENDMDL
MODEL 7
REMARK VINA RESULT:      -8.7      2.570      4.064
REMARK  4 active torsions:
REMARK  status: ('A' for Active; 'I' for Inactive)
REMARK    1  A    between atoms: C_6  and  C_7 
REMARK    2  A    between atoms: C_7  and  C_8 
REMARK       I    between atoms: C_8  and  N_9 
REMARK    3  A    between atoms: N_9  and  C_10 
REMARK    4  A    between atoms: C_17  and  C_18 
REMARK       I    between atoms: C_18  and  N_19 
ROOT
HETATM    1  C   UNL     1      26.371  43.813  50.664  1.00  0.00     0.035 A 
HETATM    2  C   UNL     1      26.866  45.028  50.196  1.00  0.00     0.046 A 
HETATM    3  C   UNL     1      26.025  46.162  50.147  1.00  0.00     0.030 A 
HETATM    4  C   UNL     1      24.722  46.052  50.610  1.00  0.00     0.063 A 
HETATM    5  N   UNL     1      24.170  47.291  50.439  1.00  0.00    -0.277 N 
HETATM    6  H   UNL     1      23.225  47.581  50.669  1.00  0.00     0.189 HD
HETATM    7  N   UNL     1      25.003  48.200  49.903  1.00  0.00    -0.168 NA
HETATM    8  C   UNL     1      26.152  47.515  49.713  1.00  0.00     0.156 A 
HETATM    9  C   UNL     1      24.199  44.867  51.125  1.00  0.00     0.034 A 
HETATM   10  C   UNL     1      25.053  43.755  51.143  1.00  0.00     0.032 A 
ENDROOT
BRANCH   1  11
HETATM   11  N   UNL     1      27.103  42.617  50.719  1.00  0.00    -0.326 N 
HETATM   12  C   UNL     1      28.017  42.070  51.586  1.00  0.00     0.235 C 
HETATM   13  O   UNL     1      28.420  40.931  51.336  1.00  0.00    -0.272 OA
HETATM   14  H   UNL     1      26.977  41.988  49.934  1.00  0.00     0.169 HD
BRANCH  12  15
HETATM   15  C   UNL     1      28.617  42.801  52.766  1.00  0.00     0.068 A 
HETATM   16  C   UNL     1      30.132  42.933  52.918  1.00  0.00     0.026 A 
HETATM   17  C   UNL     1      29.433  41.889  53.713  1.00  0.00     0.026 A 
BRANCH  15  18
HETATM   18  C   UNL     1      27.668  43.756  53.517  1.00  0.00    -0.039 A 
HETATM   19  C   UNL     1      27.906  45.136  53.642  1.00  0.00     0.032 A 
HETATM   20  C   UNL     1      27.021  45.963  54.343  1.00  0.00     0.034 A 
HETATM   21  C   UNL     1      25.883  45.439  54.945  1.00  0.00     0.024 A 
HETATM   22 CL   UNL     1      27.344  47.650  54.464  1.00  0.00    -0.084 Cl
HETATM   23  C   UNL     1      25.625  44.076  54.846  1.00  0.00     0.002 A 
HETATM   24  C   UNL     1      26.506  43.253  54.140  1.00  0.00     0.008 A 
ENDBRANCH  15  18
ENDBRANCH  12  15
ENDBRANCH   1  11
BRANCH   8  25
HETATM   25  C   UNL     1      27.335  48.147  49.115  1.00  0.00     0.270 C 
HETATM   26  N   UNL     1      27.281  49.513  49.075  1.00  0.00    -0.365 N 
HETATM   27  H   UNL     1      26.460  49.979  49.441  1.00  0.00     0.159 HD
HETATM   28  H   UNL     1      28.049  50.033  48.679  1.00  0.00     0.159 HD
HETATM   29  O   UNL     1      28.298  47.530  48.674  1.00  0.00    -0.266 OA
ENDBRANCH   8  25
TORSDOF 4
ENDMDL
MODEL 8
REMARK VINA RESULT:      -8.6      4.065      5.965
REMARK  4 active torsions:
REMARK  status: ('A' for Active; 'I' for Inactive)
REMARK    1  A    between atoms: C_6  and  C_7 
REMARK    2  A    between atoms: C_7  and  C_8 
REMARK       I    between atoms: C_8  and  N_9 
REMARK    3  A    between atoms: N_9  and  C_10 
REMARK    4  A    between atoms: C_17  and  C_18 
REMARK       I    between atoms: C_18  and  N_19 
ROOT
HETATM    1  C   UNL     1      25.129  43.026  51.393  1.00  0.00     0.035 A 
HETATM    2  C   UNL     1      25.843  41.874  51.071  1.00  0.00     0.046 A 
HETATM    3  C   UNL     1      26.081  41.545  49.718  1.00  0.00     0.030 A 
HETATM    4  C   UNL     1      25.628  42.405  48.728  1.00  0.00     0.063 A 
HETATM    5  N   UNL     1      26.003  41.829  47.546  1.00  0.00    -0.277 N 
HETATM    6  H   UNL     1      25.837  42.182  46.610  1.00  0.00     0.189 HD
HETATM    7  N   UNL     1      26.661  40.664  47.682  1.00  0.00    -0.168 NA
HETATM    8  C   UNL     1      26.712  40.475  49.019  1.00  0.00     0.156 A 
HETATM    9  C   UNL     1      24.945  43.588  49.008  1.00  0.00     0.034 A 
HETATM   10  C   UNL     1      24.710  43.878  50.359  1.00  0.00     0.032 A 
ENDROOT
BRANCH   1  11
HETATM   11  N   UNL     1      24.801  43.428  52.697  1.00  0.00    -0.326 N 
HETATM   12  C   UNL     1      25.287  44.358  53.584  1.00  0.00     0.235 C 
HETATM   13  O   UNL     1      24.691  44.479  54.657  1.00  0.00    -0.272 OA
HETATM   14  H   UNL     1      24.047  42.916  53.139  1.00  0.00     0.169 HD
BRANCH  12  15
HETATM   15  C   UNL     1      26.545  45.169  53.365  1.00  0.00     0.068 A 
HETATM   16  C   UNL     1      26.518  46.695  53.449  1.00  0.00     0.026 A 
HETATM   17  C   UNL     1      26.495  46.064  52.103  1.00  0.00     0.026 A 
BRANCH  15  18
HETATM   18  C   UNL     1      27.873  44.400  53.507  1.00  0.00    -0.039 A 
HETATM   19  C   UNL     1      28.638  44.397  54.686  1.00  0.00     0.032 A 
HETATM   20  C   UNL     1      29.844  43.691  54.766  1.00  0.00     0.034 A 
HETATM   21  C   UNL     1      30.325  42.979  53.673  1.00  0.00     0.024 A 
HETATM   22 CL   UNL     1      30.745  43.705  56.233  1.00  0.00    -0.084 Cl
HETATM   23  C   UNL     1      29.594  42.970  52.490  1.00  0.00     0.002 A 
HETATM   24  C   UNL     1      28.388  43.669  52.415  1.00  0.00     0.008 A 
ENDBRANCH  15  18
ENDBRANCH  12  15
ENDBRANCH   1  11
BRANCH   8  25
HETATM   25  C   UNL     1      27.343  39.283  49.603  1.00  0.00     0.270 C 
HETATM   26  N   UNL     1      26.458  38.366  50.097  1.00  0.00    -0.365 N 
HETATM   27  H   UNL     1      25.466  38.562  50.034  1.00  0.00     0.159 HD
HETATM   28  H   UNL     1      26.800  37.516  50.520  1.00  0.00     0.159 HD
HETATM   29  O   UNL     1      28.554  39.105  49.666  1.00  0.00    -0.266 OA
ENDBRANCH   8  25
TORSDOF 4
ENDMDL
MODEL 9
REMARK VINA RESULT:      -8.6     11.355     13.133
REMARK  4 active torsions:
REMARK  status: ('A' for Active; 'I' for Inactive)
REMARK    1  A    between atoms: C_6  and  C_7 
REMARK    2  A    between atoms: C_7  and  C_8 
REMARK       I    between atoms: C_8  and  N_9 
REMARK    3  A    between atoms: N_9  and  C_10 
REMARK    4  A    between atoms: C_17  and  C_18 
REMARK       I    between atoms: C_18  and  N_19 
ROOT
HETATM    1  C   UNL     1      29.090  48.162  41.175  1.00  0.00     0.035 A 
HETATM    2  C   UNL     1      29.825  49.148  41.829  1.00  0.00     0.046 A 
HETATM    3  C   UNL     1      31.228  49.203  41.677  1.00  0.00     0.030 A 
HETATM    4  C   UNL     1      31.849  48.288  40.838  1.00  0.00     0.063 A 
HETATM    5  N   UNL     1      33.181  48.589  40.893  1.00  0.00    -0.277 N 
HETATM    6  H   UNL     1      33.938  48.124  40.404  1.00  0.00     0.189 HD
HETATM    7  N   UNL     1      33.483  49.622  41.700  1.00  0.00    -0.168 NA
HETATM    8  C   UNL     1      32.286  50.008  42.194  1.00  0.00     0.156 A 
HETATM    9  C   UNL     1      31.147  47.311  40.132  1.00  0.00     0.034 A 
HETATM   10  C   UNL     1      29.758  47.273  40.319  1.00  0.00     0.032 A 
ENDROOT
BRANCH   1  11
HETATM   11  N   UNL     1      27.702  47.990  41.286  1.00  0.00    -0.326 N 
HETATM   12  C   UNL     1      26.610  48.353  40.537  1.00  0.00     0.235 C 
HETATM   13  O   UNL     1      25.506  47.963  40.924  1.00  0.00    -0.272 OA
HETATM   14  H   UNL     1      27.384  47.511  42.120  1.00  0.00     0.169 HD
BRANCH  12  15
HETATM   15  C   UNL     1      26.668  49.263  39.330  1.00  0.00     0.068 A 
HETATM   16  C   UNL     1      25.506  49.327  38.340  1.00  0.00     0.026 A 
HETATM   17  C   UNL     1      26.692  48.505  37.981  1.00  0.00     0.026 A 
BRANCH  15  18
HETATM   18  C   UNL     1      27.703  50.404  39.399  1.00  0.00    -0.039 A 
HETATM   19  C   UNL     1      28.856  50.447  38.596  1.00  0.00     0.032 A 
HETATM   20  C   UNL     1      29.773  51.498  38.700  1.00  0.00     0.034 A 
HETATM   21  C   UNL     1      29.573  52.528  39.613  1.00  0.00     0.024 A 
HETATM   22 CL   UNL     1      31.167  51.518  37.690  1.00  0.00    -0.084 Cl
HETATM   23  C   UNL     1      28.446  52.509  40.428  1.00  0.00     0.002 A 
HETATM   24  C   UNL     1      27.528  51.462  40.316  1.00  0.00     0.008 A 
ENDBRANCH  15  18
ENDBRANCH  12  15
ENDBRANCH   1  11
BRANCH   8  25
HETATM   25  C   UNL     1      32.170  51.116  43.151  1.00  0.00     0.270 C 
HETATM   26  N   UNL     1      32.002  52.343  42.571  1.00  0.00    -0.365 N 
HETATM   27  H   UNL     1      31.975  52.405  41.560  1.00  0.00     0.159 HD
HETATM   28  H   UNL     1      31.915  53.164  43.150  1.00  0.00     0.159 HD
HETATM   29  O   UNL     1      32.225  50.984  44.369  1.00  0.00    -0.266 OA
ENDBRANCH   8  25
TORSDOF 4
ENDMDL
MODEL 10
REMARK VINA RESULT:      -8.5     11.758     13.204
REMARK  4 active torsions:
REMARK  status: ('A' for Active; 'I' for Inactive)
REMARK    1  A    between atoms: C_6  and  C_7 
REMARK    2  A    between atoms: C_7  and  C_8 
REMARK       I    between atoms: C_8  and  N_9 
REMARK    3  A    between atoms: N_9  and  C_10 
REMARK    4  A    between atoms: C_17  and  C_18 
REMARK       I    between atoms: C_18  and  N_19 
ROOT
HETATM    1  C   UNL     1      28.192  51.403  39.393  1.00  0.00     0.035 A 
HETATM    2  C   UNL     1      29.549  51.435  39.081  1.00  0.00     0.046 A 
HETATM    3  C   UNL     1      30.464  52.046  39.966  1.00  0.00     0.030 A 
HETATM    4  C   UNL     1      29.993  52.572  41.161  1.00  0.00     0.063 A 
HETATM    5  N   UNL     1      31.094  53.082  41.793  1.00  0.00    -0.277 N 
HETATM    6  H   UNL     1      31.126  53.545  42.694  1.00  0.00     0.189 HD
HETATM    7  N   UNL     1      32.242  52.935  41.109  1.00  0.00    -0.168 NA
HETATM    8  C   UNL     1      31.867  52.301  39.977  1.00  0.00     0.156 A 
HETATM    9  C   UNL     1      28.650  52.524  41.532  1.00  0.00     0.034 A 
HETATM   10  C   UNL     1      27.765  51.927  40.623  1.00  0.00     0.032 A 
ENDROOT
BRANCH   1  11
HETATM   11  N   UNL     1      27.193  50.859  38.571  1.00  0.00    -0.326 N 
HETATM   12  C   UNL     1      26.530  49.658  38.504  1.00  0.00     0.235 C 
HETATM   13  O   UNL     1      25.638  49.554  37.658  1.00  0.00    -0.272 OA
HETATM   14  H   UNL     1      26.874  51.454  37.815  1.00  0.00     0.169 HD
BRANCH  12  15
HETATM   15  C   UNL     1      26.880  48.443  39.333  1.00  0.00     0.068 A 
HETATM   16  C   UNL     1      25.908  47.270  39.454  1.00  0.00     0.026 A 
HETATM   17  C   UNL     1      25.969  48.251  40.569  1.00  0.00     0.026 A 
BRANCH  15  18
HETATM   18  C   UNL     1      28.377  48.257  39.652  1.00  0.00    -0.039 A 
HETATM   19  C   UNL     1      28.927  48.491  40.925  1.00  0.00     0.032 A 
HETATM   20  C   UNL     1      30.294  48.319  41.165  1.00  0.00     0.034 A 
HETATM   21  C   UNL     1      31.152  47.920  40.145  1.00  0.00     0.024 A 
HETATM   22 CL   UNL     1      30.927  48.607  42.741  1.00  0.00    -0.084 Cl
HETATM   23  C   UNL     1      30.637  47.689  38.874  1.00  0.00     0.002 A 
HETATM   24  C   UNL     1      29.271  47.854  38.638  1.00  0.00     0.008 A 
ENDBRANCH  15  18
ENDBRANCH  12  15
ENDBRANCH   1  11
BRANCH   8  25
HETATM   25  C   UNL     1      32.838  51.962  38.927  1.00  0.00     0.270 C 
HETATM   26  N   UNL     1      32.575  50.789  38.277  1.00  0.00    -0.365 N 
HETATM   27  H   UNL     1      31.763  50.249  38.554  1.00  0.00     0.159 HD
HETATM   28  H   UNL     1      33.189  50.475  37.541  1.00  0.00     0.159 HD
HETATM   29  O   UNL     1      33.814  52.648  38.643  1.00  0.00    -0.266 OA
ENDBRANCH   8  25
TORSDOF 4
ENDMDL
