MODEL 1
REMARK VINA RESULT:      -9.3      0.000      0.000
REMARK  5 active torsions:
REMARK  status: ('A' for Active; 'I' for Inactive)
REMARK    1  A    between atoms: C_9  and  C_10 
REMARK       I    between atoms: C_10  and  N_11 
REMARK    2  A    between atoms: N_11  and  C_12 
REMARK    3  A    between atoms: C_12  and  C_13 
REMARK    4  A    between atoms: C_16  and  N_17 
REMARK       I    between atoms: N_17  and  C_18 
REMARK       I    between atoms: C_18  and  N_19 
REMARK    5  A    between atoms: N_19  and  C_20 
ROOT
HETATM    1  C   UNL     1      25.578  43.956  52.339  1.00  0.00     0.161 C 
ENDROOT
BRANCH   1   2
HETATM    2  N   UNL     1      26.234  44.634  53.423  1.00  0.00    -0.351 N 
HETATM    3  C   UNL     1      27.598  44.641  53.590  1.00  0.00     0.273 C 
HETATM    4  O   UNL     1      28.374  44.080  52.823  1.00  0.00    -0.266 OA
HETATM    5  H   UNL     1      25.701  45.145  54.121  1.00  0.00     0.163 HD
BRANCH   3   6
HETATM    6  C   UNL     1      28.020  45.386  54.788  1.00  0.00     0.157 A 
HETATM    7  C   UNL     1      29.078  45.063  55.688  1.00  0.00     0.029 A 
HETATM    8  C   UNL     1      30.041  44.042  55.799  1.00  0.00     0.023 A 
HETATM    9  C   UNL     1      29.056  46.069  56.646  1.00  0.00     0.063 A 
HETATM   10  C   UNL     1      30.950  44.061  56.871  1.00  0.00    -0.061 A 
HETATM   11  C   UNL     1      31.990  42.987  57.008  1.00  0.00     0.048 C 
HETATM   12  C   UNL     1      30.893  45.095  57.814  1.00  0.00     0.009 A 
HETATM   13  C   UNL     1      29.945  46.120  57.722  1.00  0.00     0.032 A 
HETATM   14  N   UNL     1      28.034  46.897  56.277  1.00  0.00    -0.277 N 
HETATM   15  H   UNL     1      27.728  47.740  56.749  1.00  0.00     0.189 HD
HETATM   16  N   UNL     1      27.386  46.521  55.162  1.00  0.00    -0.168 NA
ENDBRANCH   3   6
ENDBRANCH   1   2
BRANCH   1  17
HETATM   17  C   UNL     1      24.969  44.959  51.398  1.00  0.00    -0.040 A 
HETATM   18  C   UNL     1      24.074  44.557  50.398  1.00  0.00     0.011 A 
HETATM   19  C   UNL     1      23.585  45.480  49.466  1.00  0.00     0.030 A 
HETATM   20  C   UNL     1      24.003  46.812  49.499  1.00  0.00     0.036 A 
HETATM   21  C   UNL     1      24.856  47.224  50.528  1.00  0.00     0.030 A 
HETATM   22  C   UNL     1      25.346  46.306  51.462  1.00  0.00     0.011 A 
BRANCH  20  23
HETATM   23  N   UNL     1      23.602  47.793  48.575  1.00  0.00    -0.309 N 
HETATM   24  C   UNL     1      22.557  48.669  48.547  1.00  0.00     0.321 C 
HETATM   25  N   UNL     1      21.543  48.455  49.430  1.00  0.00    -0.339 N 
HETATM   26  O   UNL     1      22.549  49.555  47.697  1.00  0.00    -0.247 OA
HETATM   27  H   UNL     1      21.442  47.483  49.685  1.00  0.00     0.164 HD
HETATM   28  H   UNL     1      24.181  47.901  47.750  1.00  0.00     0.170 HD
BRANCH  25  29
HETATM   29  C   UNL     1      20.308  49.231  49.460  1.00  0.00     0.078 C 
HETATM   30  C   UNL     1      19.113  48.442  49.993  1.00  0.00     0.032 C 
HETATM   31  C   UNL     1      20.488  50.551  50.205  1.00  0.00     0.032 C 
ENDBRANCH  25  29
ENDBRANCH  20  23
ENDBRANCH   1  17
TORSDOF 5
ENDMDL
MODEL 2
REMARK VINA RESULT:      -9.1      1.567      2.239
REMARK  5 active torsions:
REMARK  status: ('A' for Active; 'I' for Inactive)
REMARK    1  A    between atoms: C_9  and  C_10 
REMARK       I    between atoms: C_10  and  N_11 
REMARK    2  A    between atoms: N_11  and  C_12 
REMARK    3  A    between atoms: C_12  and  C_13 
REMARK    4  A    between atoms: C_16  and  N_17 
REMARK       I    between atoms: N_17  and  C_18 
REMARK       I    between atoms: C_18  and  N_19 
REMARK    5  A    between atoms: N_19  and  C_20 
ROOT
HETATM    1  C   UNL     1      25.458  44.921  50.526  1.00  0.00     0.161 C 
ENDROOT
BRANCH   1   2
HETATM    2  N   UNL     1      26.066  45.438  51.722  1.00  0.00    -0.351 N 
HETATM    3  C   UNL     1      25.595  45.165  52.983  1.00  0.00     0.273 C 
HETATM    4  O   UNL     1      24.624  44.448  53.200  1.00  0.00    -0.266 OA
HETATM    5  H   UNL     1      26.884  46.039  51.675  1.00  0.00     0.163 HD
BRANCH   3   6
HETATM    6  C   UNL     1      26.378  45.832  54.038  1.00  0.00     0.157 A 
HETATM    7  C   UNL     1      27.619  45.411  54.601  1.00  0.00     0.029 A 
HETATM    8  C   UNL     1      28.507  44.334  54.412  1.00  0.00     0.023 A 
HETATM    9  C   UNL     1      27.926  46.372  55.556  1.00  0.00     0.063 A 
HETATM   10  C   UNL     1      29.674  44.255  55.191  1.00  0.00    -0.061 A 
HETATM   11  C   UNL     1      30.639  43.120  55.005  1.00  0.00     0.048 C 
HETATM   12  C   UNL     1      29.946  45.247  56.142  1.00  0.00     0.009 A 
HETATM   13  C   UNL     1      29.078  46.325  56.345  1.00  0.00     0.032 A 
HETATM   14  N   UNL     1      26.899  47.271  55.507  1.00  0.00    -0.277 N 
HETATM   15  H   UNL     1      26.790  48.108  56.069  1.00  0.00     0.189 HD
HETATM   16  N   UNL     1      25.946  46.982  54.605  1.00  0.00    -0.168 NA
ENDBRANCH   3   6
ENDBRANCH   1   2
BRANCH   1  17
HETATM   17  C   UNL     1      24.609  45.982  49.880  1.00  0.00    -0.040 A 
HETATM   18  C   UNL     1      24.858  47.341  50.109  1.00  0.00     0.011 A 
HETATM   19  C   UNL     1      24.008  48.320  49.582  1.00  0.00     0.030 A 
HETATM   20  C   UNL     1      22.880  47.958  48.843  1.00  0.00     0.036 A 
HETATM   21  C   UNL     1      22.660  46.603  48.571  1.00  0.00     0.030 A 
HETATM   22  C   UNL     1      23.507  45.623  49.094  1.00  0.00     0.011 A 
BRANCH  20  23
HETATM   23  N   UNL     1      21.947  48.870  48.319  1.00  0.00    -0.309 N 
HETATM   24  C   UNL     1      20.702  49.257  48.720  1.00  0.00     0.321 C 
HETATM   25  N   UNL     1      20.088  48.493  49.666  1.00  0.00    -0.339 N 
HETATM   26  O   UNL     1      20.176  50.221  48.172  1.00  0.00    -0.247 OA
HETATM   27  H   UNL     1      20.387  47.529  49.647  1.00  0.00     0.164 HD
HETATM   28  H   UNL     1      22.216  49.358  47.473  1.00  0.00     0.170 HD
BRANCH  25  29
HETATM   29  C   UNL     1      18.721  48.705  50.127  1.00  0.00     0.078 C 
HETATM   30  C   UNL     1      17.699  47.827  49.407  1.00  0.00     0.032 C 
HETATM   31  C   UNL     1      18.608  48.572  51.643  1.00  0.00     0.032 C 
ENDBRANCH  25  29
ENDBRANCH  20  23
ENDBRANCH   1  17
TORSDOF 5
ENDMDL
MODEL 3
REMARK VINA RESULT:      -8.9      2.355      3.296
REMARK  5 active torsions:
REMARK  status: ('A' for Active; 'I' for Inactive)
REMARK    1  A    between atoms: C_9  and  C_10 
REMARK       I    between atoms: C_10  and  N_11 
REMARK    2  A    between atoms: N_11  and  C_12 
REMARK    3  A    between atoms: C_12  and  C_13 
REMARK    4  A    between atoms: C_16  and  N_17 
REMARK       I    between atoms: N_17  and  C_18 
REMARK       I    between atoms: C_18  and  N_19 
REMARK    5  A    between atoms: N_19  and  C_20 
ROOT
HETATM    1  C   UNL     1      24.399  43.119  50.682  1.00  0.00     0.161 C 
ENDROOT
BRANCH   1   2
HETATM    2  N   UNL     1      25.619  42.883  51.405  1.00  0.00    -0.351 N 
HETATM    3  C   UNL     1      26.851  42.821  50.801  1.00  0.00     0.273 C 
HETATM    4  O   UNL     1      27.020  42.974  49.596  1.00  0.00    -0.266 OA
HETATM    5  H   UNL     1      25.613  42.749  52.413  1.00  0.00     0.163 HD
BRANCH   3   6
HETATM    6  C   UNL     1      27.938  42.545  51.756  1.00  0.00     0.157 A 
HETATM    7  C   UNL     1      28.343  43.340  52.869  1.00  0.00     0.029 A 
HETATM    8  C   UNL     1      27.932  44.552  53.455  1.00  0.00     0.023 A 
HETATM    9  C   UNL     1      29.410  42.650  53.434  1.00  0.00     0.063 A 
HETATM   10  C   UNL     1      28.607  45.037  54.589  1.00  0.00    -0.061 A 
HETATM   11  C   UNL     1      28.184  46.324  55.235  1.00  0.00     0.048 C 
HETATM   12  C   UNL     1      29.677  44.309  55.127  1.00  0.00     0.009 A 
HETATM   13  C   UNL     1      30.101  43.103  54.561  1.00  0.00     0.032 A 
HETATM   14  N   UNL     1      29.569  41.535  52.662  1.00  0.00    -0.277 N 
HETATM   15  H   UNL     1      30.258  40.802  52.781  1.00  0.00     0.189 HD
HETATM   16  N   UNL     1      28.702  41.435  51.641  1.00  0.00    -0.168 NA
ENDBRANCH   3   6
ENDBRANCH   1   2
BRANCH   1  17
HETATM   17  C   UNL     1      24.292  44.575  50.316  1.00  0.00    -0.040 A 
HETATM   18  C   UNL     1      24.865  45.564  51.124  1.00  0.00     0.011 A 
HETATM   19  C   UNL     1      24.681  46.920  50.830  1.00  0.00     0.030 A 
HETATM   20  C   UNL     1      23.898  47.311  49.741  1.00  0.00     0.036 A 
HETATM   21  C   UNL     1      23.369  46.322  48.905  1.00  0.00     0.030 A 
HETATM   22  C   UNL     1      23.551  44.967  49.194  1.00  0.00     0.011 A 
BRANCH  20  23
HETATM   23  N   UNL     1      23.620  48.646  49.402  1.00  0.00    -0.309 N 
HETATM   24  C   UNL     1      22.475  49.388  49.417  1.00  0.00     0.321 C 
HETATM   25  N   UNL     1      21.300  48.715  49.556  1.00  0.00    -0.339 N 
HETATM   26  O   UNL     1      22.554  50.601  49.241  1.00  0.00    -0.247 OA
HETATM   27  H   UNL     1      21.342  47.772  49.196  1.00  0.00     0.164 HD
HETATM   28  H   UNL     1      24.401  49.202  49.074  1.00  0.00     0.170 HD
BRANCH  25  29
HETATM   29  C   UNL     1      19.985  49.342  49.486  1.00  0.00     0.078 C 
HETATM   30  C   UNL     1      19.399  49.357  48.076  1.00  0.00     0.032 C 
HETATM   31  C   UNL     1      19.014  48.733  50.493  1.00  0.00     0.032 C 
ENDBRANCH  25  29
ENDBRANCH  20  23
ENDBRANCH   1  17
TORSDOF 5
ENDMDL
MODEL 4
REMARK VINA RESULT:      -8.8      3.520      5.569
REMARK  5 active torsions:
REMARK  status: ('A' for Active; 'I' for Inactive)
REMARK    1  A    between atoms: C_9  and  C_10 
REMARK       I    between atoms: C_10  and  N_11 
REMARK    2  A    between atoms: N_11  and  C_12 
REMARK    3  A    between atoms: C_12  and  C_13 
REMARK    4  A    between atoms: C_16  and  N_17 
REMARK       I    between atoms: N_17  and  C_18 
REMARK       I    between atoms: C_18  and  N_19 
REMARK    5  A    between atoms: N_19  and  C_20 
ROOT
HETATM    1  C   UNL     1      25.633  46.915  52.209  1.00  0.00     0.161 C 
ENDROOT
BRANCH   1   2
HETATM    2  N   UNL     1      26.652  46.508  53.137  1.00  0.00    -0.351 N 
HETATM    3  C   UNL     1      26.602  46.790  54.481  1.00  0.00     0.273 C 
HETATM    4  O   UNL     1      25.678  47.402  55.007  1.00  0.00    -0.266 OA
HETATM    5  H   UNL     1      27.467  45.986  52.826  1.00  0.00     0.163 HD
BRANCH   3   6
HETATM    6  C   UNL     1      27.776  46.285  55.212  1.00  0.00     0.157 A 
HETATM    7  C   UNL     1      28.602  45.172  54.874  1.00  0.00     0.029 A 
HETATM    8  C   UNL     1      28.647  44.217  53.839  1.00  0.00     0.023 A 
HETATM    9  C   UNL     1      29.557  45.112  55.882  1.00  0.00     0.063 A 
HETATM   10  C   UNL     1      29.647  43.230  53.851  1.00  0.00    -0.061 A 
HETATM   11  C   UNL     1      29.720  42.206  52.757  1.00  0.00     0.048 C 
HETATM   12  C   UNL     1      30.592  43.208  54.887  1.00  0.00     0.009 A 
HETATM   13  C   UNL     1      30.566  44.147  55.923  1.00  0.00     0.032 A 
HETATM   14  N   UNL     1      29.260  46.147  56.723  1.00  0.00    -0.277 N 
HETATM   15  H   UNL     1      29.750  46.407  57.571  1.00  0.00     0.189 HD
HETATM   16  N   UNL     1      28.195  46.878  56.354  1.00  0.00    -0.168 NA
ENDBRANCH   3   6
ENDBRANCH   1   2
BRANCH   1  17
HETATM   17  C   UNL     1      25.189  45.737  51.385  1.00  0.00    -0.040 A 
HETATM   18  C   UNL     1      24.963  44.489  51.977  1.00  0.00     0.011 A 
HETATM   19  C   UNL     1      24.642  43.375  51.192  1.00  0.00     0.030 A 
HETATM   20  C   UNL     1      24.569  43.484  49.801  1.00  0.00     0.036 A 
HETATM   21  C   UNL     1      24.743  44.742  49.215  1.00  0.00     0.030 A 
HETATM   22  C   UNL     1      25.063  45.856  49.995  1.00  0.00     0.011 A 
BRANCH  20  23
HETATM   23  N   UNL     1      24.302  42.410  48.934  1.00  0.00    -0.309 N 
HETATM   24  C   UNL     1      25.069  41.386  48.461  1.00  0.00     0.321 C 
HETATM   25  N   UNL     1      26.416  41.486  48.637  1.00  0.00    -0.339 N 
HETATM   26  O   UNL     1      24.524  40.470  47.853  1.00  0.00    -0.247 OA
HETATM   27  H   UNL     1      26.737  42.443  48.678  1.00  0.00     0.164 HD
HETATM   28  H   UNL     1      23.361  42.351  48.563  1.00  0.00     0.170 HD
BRANCH  25  29
HETATM   29  C   UNL     1      27.383  40.536  48.101  1.00  0.00     0.078 C 
HETATM   30  C   UNL     1      27.920  40.931  46.727  1.00  0.00     0.032 C 
HETATM   31  C   UNL     1      28.514  40.261  49.089  1.00  0.00     0.032 C 
ENDBRANCH  25  29
ENDBRANCH  20  23
ENDBRANCH   1  17
TORSDOF 5
ENDMDL
MODEL 5
REMARK VINA RESULT:      -8.7      1.920      9.791
REMARK  5 active torsions:
REMARK  status: ('A' for Active; 'I' for Inactive)
REMARK    1  A    between atoms: C_9  and  C_10 
REMARK       I    between atoms: C_10  and  N_11 
REMARK    2  A    between atoms: N_11  and  C_12 
REMARK    3  A    between atoms: C_12  and  C_13 
REMARK    4  A    between atoms: C_16  and  N_17 
REMARK       I    between atoms: N_17  and  C_18 
REMARK       I    between atoms: C_18  and  N_19 
REMARK    5  A    between atoms: N_19  and  C_20 
ROOT
HETATM    1  C   UNL     1      25.839  48.120  49.253  1.00  0.00     0.161 C 
ENDROOT
BRANCH   1   2
HETATM    2  N   UNL     1      24.513  48.575  49.569  1.00  0.00    -0.351 N 
HETATM    3  C   UNL     1      23.771  49.372  48.731  1.00  0.00     0.273 C 
HETATM    4  O   UNL     1      24.171  49.754  47.635  1.00  0.00    -0.266 OA
HETATM    5  H   UNL     1      24.066  48.318  50.445  1.00  0.00     0.163 HD
BRANCH   3   6
HETATM    6  C   UNL     1      22.455  49.718  49.293  1.00  0.00     0.157 A 
HETATM    7  C   UNL     1      21.243  48.972  49.201  1.00  0.00     0.029 A 
HETATM    8  C   UNL     1      20.842  47.753  48.620  1.00  0.00     0.023 A 
HETATM    9  C   UNL     1      20.300  49.730  49.884  1.00  0.00     0.063 A 
HETATM   10  C   UNL     1      19.506  47.336  48.741  1.00  0.00    -0.061 A 
HETATM   11  C   UNL     1      19.055  46.037  48.136  1.00  0.00     0.048 C 
HETATM   12  C   UNL     1      18.587  48.131  49.440  1.00  0.00     0.009 A 
HETATM   13  C   UNL     1      18.965  49.344  50.025  1.00  0.00     0.032 A 
HETATM   14  N   UNL     1      20.974  50.833  50.326  1.00  0.00    -0.277 N 
HETATM   15  H   UNL     1      20.599  51.605  50.864  1.00  0.00     0.189 HD
HETATM   16  N   UNL     1      22.275  50.863  49.992  1.00  0.00    -0.168 NA
ENDBRANCH   3   6
ENDBRANCH   1   2
BRANCH   1  17
HETATM   17  C   UNL     1      26.213  46.966  50.142  1.00  0.00    -0.040 A 
HETATM   18  C   UNL     1      26.970  45.895  49.651  1.00  0.00     0.011 A 
HETATM   19  C   UNL     1      27.234  44.780  50.454  1.00  0.00     0.030 A 
HETATM   20  C   UNL     1      26.722  44.703  51.751  1.00  0.00     0.036 A 
HETATM   21  C   UNL     1      26.009  45.794  52.260  1.00  0.00     0.030 A 
HETATM   22  C   UNL     1      25.745  46.910  51.460  1.00  0.00     0.011 A 
BRANCH  20  23
HETATM   23  N   UNL     1      26.895  43.602  52.609  1.00  0.00    -0.309 N 
HETATM   24  C   UNL     1      27.583  43.434  53.775  1.00  0.00     0.321 C 
HETATM   25  N   UNL     1      28.480  44.402  54.113  1.00  0.00    -0.339 N 
HETATM   26  O   UNL     1      27.411  42.404  54.421  1.00  0.00    -0.247 OA
HETATM   27  H   UNL     1      28.863  44.880  53.310  1.00  0.00     0.164 HD
HETATM   28  H   UNL     1      26.432  42.742  52.342  1.00  0.00     0.170 HD
BRANCH  25  29
HETATM   29  C   UNL     1      29.370  44.325  55.266  1.00  0.00     0.078 C 
HETATM   30  C   UNL     1      30.618  43.483  55.009  1.00  0.00     0.032 C 
HETATM   31  C   UNL     1      29.725  45.711  55.799  1.00  0.00     0.032 C 
ENDBRANCH  25  29
ENDBRANCH  20  23
ENDBRANCH   1  17
TORSDOF 5
ENDMDL
MODEL 6
REMARK VINA RESULT:      -8.7      3.958      6.720
REMARK  5 active torsions:
REMARK  status: ('A' for Active; 'I' for Inactive)
REMARK    1  A    between atoms: C_9  and  C_10 
REMARK       I    between atoms: C_10  and  N_11 
REMARK    2  A    between atoms: N_11  and  C_12 
REMARK    3  A    between atoms: C_12  and  C_13 
REMARK    4  A    between atoms: C_16  and  N_17 
REMARK       I    between atoms: N_17  and  C_18 
REMARK       I    between atoms: C_18  and  N_19 
REMARK    5  A    between atoms: N_19  and  C_20 
ROOT
HETATM    1  C   UNL     1      24.387  44.700  51.709  1.00  0.00     0.161 C 
ENDROOT
BRANCH   1   2
HETATM    2  N   UNL     1      25.233  45.163  52.775  1.00  0.00    -0.351 N 
HETATM    3  C   UNL     1      25.562  46.485  52.954  1.00  0.00     0.273 C 
HETATM    4  O   UNL     1      25.153  47.386  52.228  1.00  0.00    -0.266 OA
HETATM    5  H   UNL     1      25.629  44.514  53.450  1.00  0.00     0.163 HD
BRANCH   3   6
HETATM    6  C   UNL     1      26.459  46.697  54.102  1.00  0.00     0.157 A 
HETATM    7  C   UNL     1      27.578  45.904  54.493  1.00  0.00     0.029 A 
HETATM    8  C   UNL     1      28.219  44.745  54.013  1.00  0.00     0.023 A 
HETATM    9  C   UNL     1      28.075  46.519  55.635  1.00  0.00     0.063 A 
HETATM   10  C   UNL     1      29.336  44.238  54.698  1.00  0.00    -0.061 A 
HETATM   11  C   UNL     1      30.040  43.007  54.203  1.00  0.00     0.048 C 
HETATM   12  C   UNL     1      29.805  44.890  55.846  1.00  0.00     0.009 A 
HETATM   13  C   UNL     1      29.184  46.043  56.339  1.00  0.00     0.032 A 
HETATM   14  N   UNL     1      27.262  47.596  55.849  1.00  0.00    -0.277 N 
HETATM   15  H   UNL     1      27.329  48.274  56.599  1.00  0.00     0.189 HD
HETATM   16  N   UNL     1      26.277  47.739  54.946  1.00  0.00    -0.168 NA
ENDBRANCH   3   6
ENDBRANCH   1   2
BRANCH   1  17
HETATM   17  C   UNL     1      25.153  43.764  50.814  1.00  0.00    -0.040 A 
HETATM   18  C   UNL     1      26.540  43.623  50.938  1.00  0.00     0.011 A 
HETATM   19  C   UNL     1      27.259  42.824  50.042  1.00  0.00     0.030 A 
HETATM   20  C   UNL     1      26.609  42.176  48.990  1.00  0.00     0.036 A 
HETATM   21  C   UNL     1      25.217  42.275  48.896  1.00  0.00     0.030 A 
HETATM   22  C   UNL     1      24.495  43.071  49.791  1.00  0.00     0.011 A 
BRANCH  20  23
HETATM   23  N   UNL     1      27.257  41.395  48.016  1.00  0.00    -0.309 N 
HETATM   24  C   UNL     1      27.753  40.125  48.025  1.00  0.00     0.321 C 
HETATM   25  N   UNL     1      27.888  39.519  49.237  1.00  0.00    -0.339 N 
HETATM   26  O   UNL     1      28.109  39.620  46.964  1.00  0.00    -0.247 OA
HETATM   27  H   UNL     1      28.038  40.175  49.990  1.00  0.00     0.164 HD
HETATM   28  H   UNL     1      27.404  41.829  47.113  1.00  0.00     0.170 HD
BRANCH  25  29
HETATM   29  C   UNL     1      28.499  38.209  49.433  1.00  0.00     0.078 C 
HETATM   30  C   UNL     1      29.543  38.191  50.548  1.00  0.00     0.032 C 
HETATM   31  C   UNL     1      27.448  37.120  49.629  1.00  0.00     0.032 C 
ENDBRANCH  25  29
ENDBRANCH  20  23
ENDBRANCH   1  17
TORSDOF 5
ENDMDL
MODEL 7
REMARK VINA RESULT:      -8.5      4.171      6.812
REMARK  5 active torsions:
REMARK  status: ('A' for Active; 'I' for Inactive)
REMARK    1  A    between atoms: C_9  and  C_10 
REMARK       I    between atoms: C_10  and  N_11 
REMARK    2  A    between atoms: N_11  and  C_12 
REMARK    3  A    between atoms: C_12  and  C_13 
REMARK    4  A    between atoms: C_16  and  N_17 
REMARK       I    between atoms: N_17  and  C_18 
REMARK       I    between atoms: C_18  and  N_19 
REMARK    5  A    between atoms: N_19  and  C_20 
ROOT
HETATM    1  C   UNL     1      24.469  44.829  51.025  1.00  0.00     0.161 C 
ENDROOT
BRANCH   1   2
HETATM    2  N   UNL     1      25.118  45.354  52.195  1.00  0.00    -0.351 N 
HETATM    3  C   UNL     1      25.440  46.681  52.344  1.00  0.00     0.273 C 
HETATM    4  O   UNL     1      25.190  47.535  51.499  1.00  0.00    -0.266 OA
HETATM    5  H   UNL     1      25.370  44.748  52.971  1.00  0.00     0.163 HD
BRANCH   3   6
HETATM    6  C   UNL     1      26.119  46.961  53.621  1.00  0.00     0.157 A 
HETATM    7  C   UNL     1      27.182  46.224  54.223  1.00  0.00     0.029 A 
HETATM    8  C   UNL     1      27.936  45.080  53.898  1.00  0.00     0.023 A 
HETATM    9  C   UNL     1      27.453  46.890  55.412  1.00  0.00     0.063 A 
HETATM   10  C   UNL     1      28.937  44.637  54.781  1.00  0.00    -0.061 A 
HETATM   11  C   UNL     1      29.758  43.424  54.454  1.00  0.00     0.048 C 
HETATM   12  C   UNL     1      29.179  45.340  55.969  1.00  0.00     0.009 A 
HETATM   13  C   UNL     1      28.442  46.479  56.310  1.00  0.00     0.032 A 
HETATM   14  N   UNL     1      26.579  47.938  55.447  1.00  0.00    -0.277 N 
HETATM   15  H   UNL     1      26.492  48.639  56.174  1.00  0.00     0.189 HD
HETATM   16  N   UNL     1      25.758  48.016  54.386  1.00  0.00    -0.168 NA
ENDBRANCH   3   6
ENDBRANCH   1   2
BRANCH   1  17
HETATM   17  C   UNL     1      24.995  43.453  50.718  1.00  0.00    -0.040 A 
HETATM   18  C   UNL     1      24.330  42.613  49.816  1.00  0.00     0.011 A 
HETATM   19  C   UNL     1      24.770  41.302  49.606  1.00  0.00     0.030 A 
HETATM   20  C   UNL     1      25.863  40.797  50.315  1.00  0.00     0.036 A 
HETATM   21  C   UNL     1      26.558  41.651  51.178  1.00  0.00     0.030 A 
HETATM   22  C   UNL     1      26.122  42.963  51.389  1.00  0.00     0.011 A 
BRANCH  20  23
HETATM   23  N   UNL     1      26.342  39.480  50.204  1.00  0.00    -0.309 N 
HETATM   24  C   UNL     1      27.020  38.819  49.223  1.00  0.00     0.321 C 
HETATM   25  N   UNL     1      27.078  39.413  47.999  1.00  0.00    -0.339 N 
HETATM   26  O   UNL     1      27.482  37.708  49.467  1.00  0.00    -0.247 OA
HETATM   27  H   UNL     1      26.286  40.012  47.815  1.00  0.00     0.164 HD
HETATM   28  H   UNL     1      26.167  38.867  50.992  1.00  0.00     0.170 HD
BRANCH  25  29
HETATM   29  C   UNL     1      27.669  38.795  46.817  1.00  0.00     0.078 C 
HETATM   30  C   UNL     1      26.837  37.642  46.260  1.00  0.00     0.032 C 
HETATM   31  C   UNL     1      27.992  39.828  45.741  1.00  0.00     0.032 C 
ENDBRANCH  25  29
ENDBRANCH  20  23
ENDBRANCH   1  17
TORSDOF 5
ENDMDL
MODEL 8
REMARK VINA RESULT:      -8.4      2.674     10.540
REMARK  5 active torsions:
REMARK  status: ('A' for Active; 'I' for Inactive)
REMARK    1  A    between atoms: C_9  and  C_10 
REMARK       I    between atoms: C_10  and  N_11 
REMARK    2  A    between atoms: N_11  and  C_12 
REMARK    3  A    between atoms: C_12  and  C_13 
REMARK    4  A    between atoms: C_16  and  N_17 
REMARK       I    between atoms: N_17  and  C_18 
REMARK       I    between atoms: C_18  and  N_19 
REMARK    5  A    between atoms: N_19  and  C_20 
ROOT
HETATM    1  C   UNL     1      24.167  47.949  49.581  1.00  0.00     0.161 C 
ENDROOT
BRANCH   1   2
HETATM    2  N   UNL     1      22.731  47.923  49.536  1.00  0.00    -0.351 N 
HETATM    3  C   UNL     1      22.020  47.532  48.427  1.00  0.00     0.273 C 
HETATM    4  O   UNL     1      22.548  47.161  47.384  1.00  0.00    -0.266 OA
HETATM    5  H   UNL     1      22.176  48.199  50.342  1.00  0.00     0.163 HD
BRANCH   3   6
HETATM    6  C   UNL     1      20.563  47.615  48.627  1.00  0.00     0.157 A 
HETATM    7  C   UNL     1      19.750  48.787  48.637  1.00  0.00     0.029 A 
HETATM    8  C   UNL     1      19.959  50.170  48.476  1.00  0.00     0.023 A 
HETATM    9  C   UNL     1      18.460  48.327  48.873  1.00  0.00     0.063 A 
HETATM   10  C   UNL     1      18.866  51.050  48.561  1.00  0.00    -0.061 A 
HETATM   11  C   UNL     1      19.061  52.528  48.386  1.00  0.00     0.048 C 
HETATM   12  C   UNL     1      17.581  50.543  48.799  1.00  0.00     0.009 A 
HETATM   13  C   UNL     1      17.351  49.173  48.960  1.00  0.00     0.032 A 
HETATM   14  N   UNL     1      18.573  46.971  48.982  1.00  0.00    -0.277 N 
HETATM   15  H   UNL     1      17.828  46.306  49.156  1.00  0.00     0.189 HD
HETATM   16  N   UNL     1      19.824  46.502  48.839  1.00  0.00    -0.168 NA
ENDBRANCH   3   6
ENDBRANCH   1   2
BRANCH   1  17
HETATM   17  C   UNL     1      24.674  46.856  50.482  1.00  0.00    -0.040 A 
HETATM   18  C   UNL     1      24.268  45.529  50.302  1.00  0.00     0.011 A 
HETATM   19  C   UNL     1      24.667  44.533  51.200  1.00  0.00     0.030 A 
HETATM   20  C   UNL     1      25.454  44.850  52.309  1.00  0.00     0.036 A 
HETATM   21  C   UNL     1      25.902  46.167  52.461  1.00  0.00     0.030 A 
HETATM   22  C   UNL     1      25.506  47.164  51.565  1.00  0.00     0.011 A 
BRANCH  20  23
HETATM   23  N   UNL     1      25.860  43.925  53.287  1.00  0.00    -0.309 N 
HETATM   24  C   UNL     1      27.019  43.234  53.486  1.00  0.00     0.321 C 
HETATM   25  N   UNL     1      27.912  43.210  52.459  1.00  0.00    -0.339 N 
HETATM   26  O   UNL     1      27.170  42.623  54.540  1.00  0.00    -0.247 OA
HETATM   27  H   UNL     1      27.474  43.302  51.554  1.00  0.00     0.164 HD
HETATM   28  H   UNL     1      25.182  43.699  54.005  1.00  0.00     0.170 HD
BRANCH  25  29
HETATM   29  C   UNL     1      29.147  42.433  52.468  1.00  0.00     0.078 C 
HETATM   30  C   UNL     1      30.146  42.901  53.524  1.00  0.00     0.032 C 
HETATM   31  C   UNL     1      28.872  40.936  52.577  1.00  0.00     0.032 C 
ENDBRANCH  25  29
ENDBRANCH  20  23
ENDBRANCH   1  17
TORSDOF 5
ENDMDL
MODEL 9
REMARK VINA RESULT:      -8.4      3.412      6.354
REMARK  5 active torsions:
REMARK  status: ('A' for Active; 'I' for Inactive)
REMARK    1  A    between atoms: C_9  and  C_10 
REMARK       I    between atoms: C_10  and  N_11 
REMARK    2  A    between atoms: N_11  and  C_12 
REMARK    3  A    between atoms: C_12  and  C_13 
REMARK    4  A    between atoms: C_16  and  N_17 
REMARK       I    between atoms: N_17  and  C_18 
REMARK       I    between atoms: C_18  and  N_19 
REMARK    5  A    between atoms: N_19  and  C_20 
ROOT
HETATM    1  C   UNL     1      22.921  49.461  48.666  1.00  0.00     0.161 C 
ENDROOT
BRANCH   1   2
HETATM    2  N   UNL     1      23.226  48.308  49.469  1.00  0.00    -0.351 N 
HETATM    3  C   UNL     1      24.505  47.958  49.826  1.00  0.00     0.273 C 
HETATM    4  O   UNL     1      25.497  48.603  49.502  1.00  0.00    -0.266 OA
HETATM    5  H   UNL     1      22.489  47.697  49.809  1.00  0.00     0.163 HD
BRANCH   3   6
HETATM    6  C   UNL     1      24.553  46.725  50.631  1.00  0.00     0.157 A 
HETATM    7  C   UNL     1      25.261  46.505  51.849  1.00  0.00     0.029 A 
HETATM    8  C   UNL     1      26.094  47.267  52.691  1.00  0.00     0.023 A 
HETATM    9  C   UNL     1      24.988  45.187  52.192  1.00  0.00     0.063 A 
HETATM   10  C   UNL     1      26.631  46.678  53.850  1.00  0.00    -0.061 A 
HETATM   11  C   UNL     1      27.517  47.471  54.766  1.00  0.00     0.048 C 
HETATM   12  C   UNL     1      26.328  45.345  54.158  1.00  0.00     0.009 A 
HETATM   13  C   UNL     1      25.502  44.572  53.336  1.00  0.00     0.032 A 
HETATM   14  N   UNL     1      24.168  44.719  51.204  1.00  0.00    -0.277 N 
HETATM   15  H   UNL     1      23.770  43.790  51.128  1.00  0.00     0.189 HD
HETATM   16  N   UNL     1      23.882  45.615  50.246  1.00  0.00    -0.168 NA
ENDBRANCH   3   6
ENDBRANCH   1   2
BRANCH   1  17
HETATM   17  C   UNL     1      21.540  49.963  48.989  1.00  0.00    -0.040 A 
HETATM   18  C   UNL     1      20.576  49.111  49.541  1.00  0.00     0.011 A 
HETATM   19  C   UNL     1      19.267  49.558  49.751  1.00  0.00     0.030 A 
HETATM   20  C   UNL     1      18.891  50.853  49.388  1.00  0.00     0.036 A 
HETATM   21  C   UNL     1      19.867  51.720  48.884  1.00  0.00     0.030 A 
HETATM   22  C   UNL     1      21.176  51.277  48.674  1.00  0.00     0.011 A 
BRANCH  20  23
HETATM   23  N   UNL     1      17.589  51.368  49.517  1.00  0.00    -0.309 N 
HETATM   24  C   UNL     1      16.436  51.162  48.817  1.00  0.00     0.321 C 
HETATM   25  N   UNL     1      16.542  50.528  47.617  1.00  0.00    -0.339 N 
HETATM   26  O   UNL     1      15.384  51.608  49.266  1.00  0.00    -0.247 OA
HETATM   27  H   UNL     1      17.438  50.672  47.174  1.00  0.00     0.164 HD
HETATM   28  H   UNL     1      17.437  52.031  50.268  1.00  0.00     0.170 HD
BRANCH  25  29
HETATM   29  C   UNL     1      15.427  50.324  46.699  1.00  0.00     0.078 C 
HETATM   30  C   UNL     1      15.764  50.679  45.252  1.00  0.00     0.032 C 
HETATM   31  C   UNL     1      14.852  48.915  46.813  1.00  0.00     0.032 C 
ENDBRANCH  25  29
ENDBRANCH  20  23
ENDBRANCH   1  17
TORSDOF 5
ENDMDL
MODEL 10
REMARK VINA RESULT:      -8.2      5.452      9.195
REMARK  5 active torsions:
REMARK  status: ('A' for Active; 'I' for Inactive)
REMARK    1  A    between atoms: C_9  and  C_10 
REMARK       I    between atoms: C_10  and  N_11 
REMARK    2  A    between atoms: N_11  and  C_12 
REMARK    3  A    between atoms: C_12  and  C_13 
REMARK    4  A    between atoms: C_16  and  N_17 
REMARK       I    between atoms: N_17  and  C_18 
REMARK       I    between atoms: C_18  and  N_19 
REMARK    5  A    between atoms: N_19  and  C_20 
ROOT
HETATM    1  C   UNL     1      19.209  49.188  47.643  1.00  0.00     0.161 C 
ENDROOT
BRANCH   1   2
HETATM    2  N   UNL     1      20.617  49.471  47.690  1.00  0.00    -0.351 N 
HETATM    3  C   UNL     1      21.547  48.582  48.171  1.00  0.00     0.273 C 
HETATM    4  O   UNL     1      21.259  47.466  48.592  1.00  0.00    -0.266 OA
HETATM    5  H   UNL     1      20.984  50.360  47.362  1.00  0.00     0.163 HD
BRANCH   3   6
HETATM    6  C   UNL     1      22.918  49.117  48.133  1.00  0.00     0.157 A 
HETATM    7  C   UNL     1      24.063  48.633  48.833  1.00  0.00     0.029 A 
HETATM    8  C   UNL     1      24.338  47.581  49.728  1.00  0.00     0.023 A 
HETATM    9  C   UNL     1      25.097  49.486  48.465  1.00  0.00     0.063 A 
HETATM   10  C   UNL     1      25.641  47.421  50.228  1.00  0.00    -0.061 A 
HETATM   11  C   UNL     1      25.960  46.303  51.178  1.00  0.00     0.048 C 
HETATM   12  C   UNL     1      26.655  48.303  49.830  1.00  0.00     0.009 A 
HETATM   13  C   UNL     1      26.404  49.353  48.941  1.00  0.00     0.032 A 
HETATM   14  N   UNL     1      24.535  50.386  47.605  1.00  0.00    -0.277 N 
HETATM   15  H   UNL     1      24.997  51.158  47.137  1.00  0.00     0.189 HD
HETATM   16  N   UNL     1      23.224  50.198  47.378  1.00  0.00    -0.168 NA
ENDBRANCH   3   6
ENDBRANCH   1   2
BRANCH   1  17
HETATM   17  C   UNL     1      18.449  50.223  48.428  1.00  0.00    -0.040 A 
HETATM   18  C   UNL     1      17.052  50.190  48.500  1.00  0.00     0.011 A 
HETATM   19  C   UNL     1      16.346  51.208  49.151  1.00  0.00     0.030 A 
HETATM   20  C   UNL     1      17.023  52.291  49.717  1.00  0.00     0.036 A 
HETATM   21  C   UNL     1      18.421  52.298  49.690  1.00  0.00     0.030 A 
HETATM   22  C   UNL     1      19.130  51.282  49.042  1.00  0.00     0.011 A 
BRANCH  20  23
HETATM   23  N   UNL     1      16.394  53.380  50.345  1.00  0.00    -0.309 N 
HETATM   24  C   UNL     1      15.348  54.180  49.989  1.00  0.00     0.321 C 
HETATM   25  N   UNL     1      14.933  54.119  48.693  1.00  0.00    -0.339 N 
HETATM   26  O   UNL     1      14.881  54.951  50.822  1.00  0.00    -0.247 OA
HETATM   27  H   UNL     1      15.671  53.859  48.055  1.00  0.00     0.164 HD
HETATM   28  H   UNL     1      16.764  53.658  51.246  1.00  0.00     0.170 HD
BRANCH  25  29
HETATM   29  C   UNL     1      13.903  54.980  48.124  1.00  0.00     0.078 C 
HETATM   30  C   UNL     1      13.949  55.048  46.598  1.00  0.00     0.032 C 
HETATM   31  C   UNL     1      12.512  54.608  48.629  1.00  0.00     0.032 C 
ENDBRANCH  25  29
ENDBRANCH  20  23
ENDBRANCH   1  17
TORSDOF 5
ENDMDL
