MODEL 1
REMARK VINA RESULT:     -10.1      0.000      0.000
REMARK  3 active torsions:
REMARK  status: ('A' for Active; 'I' for Inactive)
REMARK    1  A    between atoms: C_3  and  C_4 
REMARK    2  A    between atoms: C_8  and  C_9 
REMARK       I    between atoms: C_9  and  N_10 
REMARK    3  A    between atoms: N_10  and  N_11 
ROOT
HETATM    1  C   UNL     1      26.608  45.222  50.830  1.00  0.00     0.289 C 
HETATM    2  N   UNL     1      26.620  45.199  52.214  1.00  0.00    -0.241 N 
HETATM    3  O   UNL     1      27.425  44.639  50.122  1.00  0.00    -0.264 OA
HETATM    4  H   UNL     1      25.929  45.724  52.748  1.00  0.00     0.192 HD
ENDROOT
BRANCH   1   5
HETATM    5  C   UNL     1      25.547  46.007  50.248  1.00  0.00     0.121 A 
HETATM    6  N   UNL     1      24.468  45.409  49.662  1.00  0.00    -0.272 N 
HETATM    7  N   UNL     1      23.560  46.267  49.173  1.00  0.00    -0.174 NA
HETATM    8  H   UNL     1      24.302  44.411  49.578  1.00  0.00     0.189 HD
HETATM    9  C   UNL     1      24.077  47.482  49.420  1.00  0.00     0.091 A 
HETATM   10  C   UNL     1      25.311  47.361  50.118  1.00  0.00     0.071 A 
BRANCH   9  11
HETATM   11  C   UNL     1      23.356  48.697  49.032  1.00  0.00     0.016 A 
HETATM   12  C   UNL     1      21.960  48.725  49.219  1.00  0.00     0.015 A 
HETATM   13  C   UNL     1      21.206  49.851  48.883  1.00  0.00     0.001 A 
HETATM   14  C   UNL     1      21.835  50.972  48.351  1.00  0.00     0.002 A 
HETATM   15  C   UNL     1      23.215  50.960  48.148  1.00  0.00     0.025 A 
HETATM   16  C   UNL     1      23.976  49.830  48.481  1.00  0.00     0.046 A 
HETATM   17 CL   UNL     1      25.669  49.910  48.128  1.00  0.00    -0.083 Cl
ENDBRANCH   9  11
ENDBRANCH   1   5
BRANCH   2  18
HETATM   18  N   UNL     1      27.590  44.508  52.888  1.00  0.00    -0.165 NA
HETATM   19  C   UNL     1      28.093  45.085  53.932  1.00  0.00     0.157 A 
HETATM   20  C   UNL     1      27.742  46.454  54.525  1.00  0.00     0.277 A 
HETATM   21  C   UNL     1      29.137  44.536  54.787  1.00  0.00     0.027 A 
HETATM   22  O   UNL     1      26.902  47.204  54.077  1.00  0.00    -0.266 OA
HETATM   23  N   UNL     1      28.564  46.604  55.621  1.00  0.00    -0.321 N 
HETATM   24  C   UNL     1      29.381  45.487  55.778  1.00  0.00     0.048 A 
HETATM   25  H   UNL     1      28.558  47.422  56.213  1.00  0.00     0.169 HD
HETATM   26  C   UNL     1      30.328  45.274  56.755  1.00  0.00     0.030 A 
HETATM   27  C   UNL     1      31.034  44.063  56.713  1.00  0.00     0.002 A 
HETATM   28  C   UNL     1      30.781  43.106  55.708  1.00  0.00     0.001 A 
HETATM   29  C   UNL     1      29.817  43.338  54.724  1.00  0.00     0.016 A 
ENDBRANCH   2  18
TORSDOF 3
ENDMDL
MODEL 2
REMARK VINA RESULT:     -10.1      2.591      9.427
REMARK  3 active torsions:
REMARK  status: ('A' for Active; 'I' for Inactive)
REMARK    1  A    between atoms: C_3  and  C_4 
REMARK    2  A    between atoms: C_8  and  C_9 
REMARK       I    between atoms: C_9  and  N_10 
REMARK    3  A    between atoms: N_10  and  N_11 
ROOT
HETATM    1  C   UNL     1      26.108  47.124  53.195  1.00  0.00     0.289 C 
HETATM    2  N   UNL     1      26.132  47.018  51.814  1.00  0.00    -0.241 N 
HETATM    3  O   UNL     1      25.401  47.915  53.815  1.00  0.00    -0.264 OA
HETATM    4  H   UNL     1      26.759  46.360  51.355  1.00  0.00     0.192 HD
ENDROOT
BRANCH   1   5
HETATM    5  C   UNL     1      27.000  46.225  53.885  1.00  0.00     0.121 A 
HETATM    6  N   UNL     1      26.885  44.872  53.744  1.00  0.00    -0.272 N 
HETATM    7  N   UNL     1      27.788  44.165  54.439  1.00  0.00    -0.174 NA
HETATM    8  H   UNL     1      26.203  44.379  53.174  1.00  0.00     0.189 HD
HETATM    9  C   UNL     1      28.512  45.091  55.090  1.00  0.00     0.091 A 
HETATM   10  C   UNL     1      28.065  46.398  54.746  1.00  0.00     0.071 A 
BRANCH   9  11
HETATM   11  C   UNL     1      29.622  44.700  55.961  1.00  0.00     0.016 A 
HETATM   12  C   UNL     1      30.526  43.730  55.485  1.00  0.00     0.015 A 
HETATM   13  C   UNL     1      31.614  43.314  56.255  1.00  0.00     0.001 A 
HETATM   14  C   UNL     1      31.819  43.859  57.518  1.00  0.00     0.002 A 
HETATM   15  C   UNL     1      30.929  44.813  58.012  1.00  0.00     0.025 A 
HETATM   16  C   UNL     1      29.833  45.232  57.244  1.00  0.00     0.046 A 
HETATM   17 CL   UNL     1      28.764  46.375  57.986  1.00  0.00    -0.083 Cl
ENDBRANCH   9  11
ENDBRANCH   1   5
BRANCH   2  18
HETATM   18  N   UNL     1      25.348  47.833  51.042  1.00  0.00    -0.165 NA
HETATM   19  C   UNL     1      24.450  47.251  50.314  1.00  0.00     0.157 A 
HETATM   20  C   UNL     1      24.141  45.755  50.198  1.00  0.00     0.277 A 
HETATM   21  C   UNL     1      23.519  47.921  49.416  1.00  0.00     0.027 A 
HETATM   22  O   UNL     1      24.718  44.882  50.811  1.00  0.00    -0.266 OA
HETATM   23  N   UNL     1      23.112  45.659  49.286  1.00  0.00    -0.321 N 
HETATM   24  C   UNL     1      22.745  46.922  48.827  1.00  0.00     0.048 A 
HETATM   25  H   UNL     1      22.696  44.783  49.006  1.00  0.00     0.169 HD
HETATM   26  C   UNL     1      21.760  47.226  47.913  1.00  0.00     0.030 A 
HETATM   27  C   UNL     1      21.568  48.580  47.601  1.00  0.00     0.002 A 
HETATM   28  C   UNL     1      22.355  49.585  48.202  1.00  0.00     0.001 A 
HETATM   29  C   UNL     1      23.350  49.259  49.127  1.00  0.00     0.016 A 
ENDBRANCH   2  18
TORSDOF 3
ENDMDL
MODEL 3
REMARK VINA RESULT:      -9.9      2.419      9.114
REMARK  3 active torsions:
REMARK  status: ('A' for Active; 'I' for Inactive)
REMARK    1  A    between atoms: C_3  and  C_4 
REMARK    2  A    between atoms: C_8  and  C_9 
REMARK       I    between atoms: C_9  and  N_10 
REMARK    3  A    between atoms: N_10  and  N_11 
ROOT
HETATM    1  C   UNL     1      25.237  44.923  51.797  1.00  0.00     0.289 C 
HETATM    2  N   UNL     1      25.288  45.958  50.879  1.00  0.00    -0.241 N 
HETATM    3  O   UNL     1      24.221  44.284  52.062  1.00  0.00    -0.264 OA
HETATM    4  H   UNL     1      26.155  46.469  50.720  1.00  0.00     0.192 HD
ENDROOT
BRANCH   1   5
HETATM    5  C   UNL     1      26.488  44.635  52.454  1.00  0.00     0.121 A 
HETATM    6  N   UNL     1      27.498  43.993  51.795  1.00  0.00    -0.272 N 
HETATM    7  N   UNL     1      28.603  43.803  52.531  1.00  0.00    -0.174 NA
HETATM    8  H   UNL     1      27.482  43.669  50.832  1.00  0.00     0.189 HD
HETATM    9  C   UNL     1      28.299  44.314  53.735  1.00  0.00     0.091 A 
HETATM   10  C   UNL     1      26.989  44.871  53.718  1.00  0.00     0.071 A 
BRANCH   9  11
HETATM   11  C   UNL     1      29.276  44.300  54.826  1.00  0.00     0.016 A 
HETATM   12  C   UNL     1      30.108  43.170  54.953  1.00  0.00     0.015 A 
HETATM   13  C   UNL     1      31.070  43.088  55.962  1.00  0.00     0.001 A 
HETATM   14  C   UNL     1      31.218  44.135  56.865  1.00  0.00     0.002 A 
HETATM   15  C   UNL     1      30.396  45.259  56.762  1.00  0.00     0.025 A 
HETATM   16  C   UNL     1      29.426  45.344  55.753  1.00  0.00     0.046 A 
HETATM   17 CL   UNL     1      28.426  46.757  55.764  1.00  0.00    -0.083 Cl
ENDBRANCH   9  11
ENDBRANCH   1   5
BRANCH   2  18
HETATM   18  N   UNL     1      24.161  46.344  50.205  1.00  0.00    -0.165 NA
HETATM   19  C   UNL     1      24.203  47.498  49.620  1.00  0.00     0.157 A 
HETATM   20  C   UNL     1      25.359  48.502  49.576  1.00  0.00     0.277 A 
HETATM   21  C   UNL     1      23.119  48.105  48.859  1.00  0.00     0.027 A 
HETATM   22  O   UNL     1      26.439  48.333  50.101  1.00  0.00    -0.266 OA
HETATM   23  N   UNL     1      24.895  49.570  48.839  1.00  0.00    -0.321 N 
HETATM   24  C   UNL     1      23.587  49.343  48.418  1.00  0.00     0.048 A 
HETATM   25  H   UNL     1      25.446  50.394  48.645  1.00  0.00     0.169 HD
HETATM   26  C   UNL     1      22.793  50.180  47.665  1.00  0.00     0.030 A 
HETATM   27  C   UNL     1      21.499  49.735  47.359  1.00  0.00     0.002 A 
HETATM   28  C   UNL     1      21.033  48.482  47.808  1.00  0.00     0.001 A 
HETATM   29  C   UNL     1      21.851  47.645  48.572  1.00  0.00     0.016 A 
ENDBRANCH   2  18
TORSDOF 3
ENDMDL
MODEL 4
REMARK VINA RESULT:      -9.7      2.870      9.187
REMARK  3 active torsions:
REMARK  status: ('A' for Active; 'I' for Inactive)
REMARK    1  A    between atoms: C_3  and  C_4 
REMARK    2  A    between atoms: C_8  and  C_9 
REMARK       I    between atoms: C_9  and  N_10 
REMARK    3  A    between atoms: N_10  and  N_11 
ROOT
HETATM    1  C   UNL     1      25.645  44.786  52.765  1.00  0.00     0.289 C 
HETATM    2  N   UNL     1      25.869  45.163  51.451  1.00  0.00    -0.241 N 
HETATM    3  O   UNL     1      24.631  44.212  53.156  1.00  0.00    -0.264 OA
HETATM    4  H   UNL     1      26.719  45.660  51.192  1.00  0.00     0.192 HD
ENDROOT
BRANCH   1   5
HETATM    5  C   UNL     1      26.706  45.127  53.680  1.00  0.00     0.121 A 
HETATM    6  N   UNL     1      27.067  46.428  53.887  1.00  0.00    -0.272 N 
HETATM    7  N   UNL     1      28.063  46.591  54.771  1.00  0.00    -0.174 NA
HETATM    8  H   UNL     1      26.655  47.247  53.449  1.00  0.00     0.189 HD
HETATM    9  C   UNL     1      28.392  45.342  55.141  1.00  0.00     0.091 A 
HETATM   10  C   UNL     1      27.544  44.396  54.498  1.00  0.00     0.071 A 
BRANCH   9  11
HETATM   11  C   UNL     1      29.454  45.105  56.122  1.00  0.00     0.016 A 
HETATM   12  C   UNL     1      29.459  45.890  57.292  1.00  0.00     0.015 A 
HETATM   13  C   UNL     1      30.434  45.716  58.277  1.00  0.00     0.001 A 
HETATM   14  C   UNL     1      31.424  44.753  58.110  1.00  0.00     0.002 A 
HETATM   15  C   UNL     1      31.441  43.973  56.953  1.00  0.00     0.025 A 
HETATM   16  C   UNL     1      30.467  44.146  55.960  1.00  0.00     0.046 A 
HETATM   17 CL   UNL     1      30.627  43.164  54.543  1.00  0.00    -0.083 Cl
ENDBRANCH   9  11
ENDBRANCH   1   5
BRANCH   2  18
HETATM   18  N   UNL     1      24.927  44.917  50.489  1.00  0.00    -0.165 NA
HETATM   19  C   UNL     1      24.329  45.949  49.987  1.00  0.00     0.157 A 
HETATM   20  C   UNL     1      24.538  47.429  50.326  1.00  0.00     0.277 A 
HETATM   21  C   UNL     1      23.294  45.917  48.962  1.00  0.00     0.027 A 
HETATM   22  O   UNL     1      25.334  47.844  51.141  1.00  0.00    -0.266 OA
HETATM   23  N   UNL     1      23.654  48.120  49.525  1.00  0.00    -0.321 N 
HETATM   24  C   UNL     1      22.925  47.242  48.727  1.00  0.00     0.048 A 
HETATM   25  H   UNL     1      23.565  49.126  49.534  1.00  0.00     0.169 HD
HETATM   26  C   UNL     1      21.953  47.560  47.804  1.00  0.00     0.030 A 
HETATM   27  C   UNL     1      21.352  46.499  47.112  1.00  0.00     0.002 A 
HETATM   28  C   UNL     1      21.731  45.162  47.355  1.00  0.00     0.001 A 
HETATM   29  C   UNL     1      22.718  44.856  48.294  1.00  0.00     0.016 A 
ENDBRANCH   2  18
TORSDOF 3
ENDMDL
MODEL 5
REMARK VINA RESULT:      -9.6      2.573      8.994
REMARK  3 active torsions:
REMARK  status: ('A' for Active; 'I' for Inactive)
REMARK    1  A    between atoms: C_3  and  C_4 
REMARK    2  A    between atoms: C_8  and  C_9 
REMARK       I    between atoms: C_9  and  N_10 
REMARK    3  A    between atoms: N_10  and  N_11 
ROOT
HETATM    1  C   UNL     1      27.215  43.536  51.277  1.00  0.00     0.289 C 
HETATM    2  N   UNL     1      26.099  44.319  51.524  1.00  0.00    -0.241 N 
HETATM    3  O   UNL     1      27.380  42.871  50.257  1.00  0.00    -0.264 OA
HETATM    4  H   UNL     1      26.007  44.829  52.401  1.00  0.00     0.192 HD
ENDROOT
BRANCH   1   5
HETATM    5  C   UNL     1      28.200  43.540  52.329  1.00  0.00     0.121 A 
HETATM    6  N   UNL     1      29.382  42.870  52.190  1.00  0.00    -0.272 N 
HETATM    7  N   UNL     1      30.202  42.971  53.247  1.00  0.00    -0.174 NA
HETATM    8  H   UNL     1      29.680  42.330  51.382  1.00  0.00     0.189 HD
HETATM    9  C   UNL     1      29.519  43.715  54.133  1.00  0.00     0.091 A 
HETATM   10  C   UNL     1      28.269  44.114  53.582  1.00  0.00     0.071 A 
BRANCH   9  11
HETATM   11  C   UNL     1      30.101  44.056  55.433  1.00  0.00     0.016 A 
HETATM   12  C   UNL     1      30.932  43.104  56.055  1.00  0.00     0.015 A 
HETATM   13  C   UNL     1      31.531  43.361  57.290  1.00  0.00     0.001 A 
HETATM   14  C   UNL     1      31.308  44.576  57.929  1.00  0.00     0.002 A 
HETATM   15  C   UNL     1      30.478  45.528  57.334  1.00  0.00     0.025 A 
HETATM   16  C   UNL     1      29.873  45.273  56.095  1.00  0.00     0.046 A 
HETATM   17 CL   UNL     1      28.818  46.503  55.486  1.00  0.00    -0.083 Cl
ENDBRANCH   9  11
ENDBRANCH   1   5
BRANCH   2  18
HETATM   18  N   UNL     1      25.080  44.382  50.612  1.00  0.00    -0.165 NA
HETATM   19  C   UNL     1      24.691  45.565  50.260  1.00  0.00     0.157 A 
HETATM   20  C   UNL     1      25.225  46.922  50.728  1.00  0.00     0.277 A 
HETATM   21  C   UNL     1      23.622  45.862  49.315  1.00  0.00     0.027 A 
HETATM   22  O   UNL     1      26.131  47.071  51.520  1.00  0.00    -0.266 OA
HETATM   23  N   UNL     1      24.470  47.866  50.066  1.00  0.00    -0.321 N 
HETATM   24  C   UNL     1      23.532  47.251  49.240  1.00  0.00     0.048 A 
HETATM   25  H   UNL     1      24.596  48.861  50.181  1.00  0.00     0.169 HD
HETATM   26  C   UNL     1      22.604  47.864  48.426  1.00  0.00     0.030 A 
HETATM   27  C   UNL     1      21.758  47.034  47.677  1.00  0.00     0.002 A 
HETATM   28  C   UNL     1      21.855  45.629  47.759  1.00  0.00     0.001 A 
HETATM   29  C   UNL     1      22.801  45.024  48.589  1.00  0.00     0.016 A 
ENDBRANCH   2  18
TORSDOF 3
ENDMDL
MODEL 6
REMARK VINA RESULT:      -9.3      2.138      2.922
REMARK  3 active torsions:
REMARK  status: ('A' for Active; 'I' for Inactive)
REMARK    1  A    between atoms: C_3  and  C_4 
REMARK    2  A    between atoms: C_8  and  C_9 
REMARK       I    between atoms: C_9  and  N_10 
REMARK    3  A    between atoms: N_10  and  N_11 
ROOT
HETATM    1  C   UNL     1      25.844  47.428  49.610  1.00  0.00     0.289 C 
HETATM    2  N   UNL     1      25.408  46.447  50.485  1.00  0.00    -0.241 N 
HETATM    3  O   UNL     1      27.006  47.548  49.230  1.00  0.00    -0.264 OA
HETATM    4  H   UNL     1      24.435  46.413  50.784  1.00  0.00     0.192 HD
ENDROOT
BRANCH   1   5
HETATM    5  C   UNL     1      24.818  48.337  49.162  1.00  0.00     0.121 A 
HETATM    6  N   UNL     1      25.139  49.526  48.571  1.00  0.00    -0.272 N 
HETATM    7  N   UNL     1      24.080  50.262  48.201  1.00  0.00    -0.174 NA
HETATM    8  H   UNL     1      26.074  49.879  48.392  1.00  0.00     0.189 HD
HETATM    9  C   UNL     1      23.016  49.541  48.590  1.00  0.00     0.091 A 
HETATM   10  C   UNL     1      23.438  48.313  49.174  1.00  0.00     0.071 A 
BRANCH   9  11
HETATM   11  C   UNL     1      21.654  50.020  48.346  1.00  0.00     0.016 A 
HETATM   12  C   UNL     1      21.306  51.296  48.832  1.00  0.00     0.015 A 
HETATM   13  C   UNL     1      20.030  51.825  48.629  1.00  0.00     0.001 A 
HETATM   14  C   UNL     1      19.075  51.087  47.938  1.00  0.00     0.002 A 
HETATM   15  C   UNL     1      19.397  49.817  47.458  1.00  0.00     0.025 A 
HETATM   16  C   UNL     1      20.676  49.280  47.662  1.00  0.00     0.046 A 
HETATM   17 CL   UNL     1      20.939  47.672  47.075  1.00  0.00    -0.083 Cl
ENDBRANCH   9  11
ENDBRANCH   1   5
BRANCH   2  18
HETATM   18  N   UNL     1      26.290  45.536  51.001  1.00  0.00    -0.165 NA
HETATM   19  C   UNL     1      26.629  45.696  52.240  1.00  0.00     0.157 A 
HETATM   20  C   UNL     1      26.169  46.779  53.221  1.00  0.00     0.277 A 
HETATM   21  C   UNL     1      27.556  44.852  52.983  1.00  0.00     0.027 A 
HETATM   22  O   UNL     1      25.384  47.663  52.953  1.00  0.00    -0.266 OA
HETATM   23  N   UNL     1      26.827  46.512  54.402  1.00  0.00    -0.321 N 
HETATM   24  C   UNL     1      27.638  45.388  54.268  1.00  0.00     0.048 A 
HETATM   25  H   UNL     1      26.721  47.070  55.237  1.00  0.00     0.169 HD
HETATM   26  C   UNL     1      28.445  44.818  55.229  1.00  0.00     0.030 A 
HETATM   27  C   UNL     1      29.176  43.679  54.863  1.00  0.00     0.002 A 
HETATM   28  C   UNL     1      29.087  43.143  53.561  1.00  0.00     0.001 A 
HETATM   29  C   UNL     1      28.264  43.733  52.598  1.00  0.00     0.016 A 
ENDBRANCH   2  18
TORSDOF 3
ENDMDL
MODEL 7
REMARK VINA RESULT:      -9.2      1.734      2.196
REMARK  3 active torsions:
REMARK  status: ('A' for Active; 'I' for Inactive)
REMARK    1  A    between atoms: C_3  and  C_4 
REMARK    2  A    between atoms: C_8  and  C_9 
REMARK       I    between atoms: C_9  and  N_10 
REMARK    3  A    between atoms: N_10  and  N_11 
ROOT
HETATM    1  C   UNL     1      27.149  43.849  51.488  1.00  0.00     0.289 C 
HETATM    2  N   UNL     1      27.613  44.594  52.559  1.00  0.00    -0.241 N 
HETATM    3  O   UNL     1      27.530  42.711  51.222  1.00  0.00    -0.264 OA
HETATM    4  H   UNL     1      27.277  45.544  52.715  1.00  0.00     0.192 HD
ENDROOT
BRANCH   1   5
HETATM    5  C   UNL     1      26.164  44.513  50.671  1.00  0.00     0.121 A 
HETATM    6  N   UNL     1      25.880  44.071  49.410  1.00  0.00    -0.272 N 
HETATM    7  N   UNL     1      24.937  44.783  48.775  1.00  0.00    -0.174 NA
HETATM    8  H   UNL     1      26.301  43.276  48.939  1.00  0.00     0.189 HD
HETATM    9  C   UNL     1      24.606  45.754  49.642  1.00  0.00     0.091 A 
HETATM   10  C   UNL     1      25.336  45.602  50.855  1.00  0.00     0.071 A 
BRANCH   9  11
HETATM   11  C   UNL     1      23.582  46.745  49.305  1.00  0.00     0.016 A 
HETATM   12  C   UNL     1      23.872  48.102  49.545  1.00  0.00     0.015 A 
HETATM   13  C   UNL     1      22.949  49.105  49.240  1.00  0.00     0.001 A 
HETATM   14  C   UNL     1      21.716  48.769  48.691  1.00  0.00     0.002 A 
HETATM   15  C   UNL     1      21.406  47.429  48.457  1.00  0.00     0.025 A 
HETATM   16  C   UNL     1      22.328  46.418  48.764  1.00  0.00     0.046 A 
HETATM   17 CL   UNL     1      21.807  44.790  48.486  1.00  0.00    -0.083 Cl
ENDBRANCH   9  11
ENDBRANCH   1   5
BRANCH   2  18
HETATM   18  N   UNL     1      28.568  44.085  53.397  1.00  0.00    -0.165 NA
HETATM   19  C   UNL     1      28.799  44.750  54.483  1.00  0.00     0.157 A 
HETATM   20  C   UNL     1      28.138  46.046  54.965  1.00  0.00     0.277 A 
HETATM   21  C   UNL     1      29.774  44.396  55.506  1.00  0.00     0.027 A 
HETATM   22  O   UNL     1      27.266  46.639  54.367  1.00  0.00    -0.266 OA
HETATM   23  N   UNL     1      28.744  46.346  56.166  1.00  0.00    -0.321 N 
HETATM   24  C   UNL     1      29.700  45.385  56.486  1.00  0.00     0.048 A 
HETATM   25  H   UNL     1      28.510  47.157  56.720  1.00  0.00     0.169 HD
HETATM   26  C   UNL     1      30.506  45.346  57.603  1.00  0.00     0.030 A 
HETATM   27  C   UNL     1      31.401  44.272  57.713  1.00  0.00     0.002 A 
HETATM   28  C   UNL     1      31.469  43.275  56.717  1.00  0.00     0.001 A 
HETATM   29  C   UNL     1      30.645  43.329  55.591  1.00  0.00     0.016 A 
ENDBRANCH   2  18
TORSDOF 3
ENDMDL
MODEL 8
REMARK VINA RESULT:      -9.1      4.442      9.012
REMARK  3 active torsions:
REMARK  status: ('A' for Active; 'I' for Inactive)
REMARK    1  A    between atoms: C_3  and  C_4 
REMARK    2  A    between atoms: C_8  and  C_9 
REMARK       I    between atoms: C_9  and  N_10 
REMARK    3  A    between atoms: N_10  and  N_11 
ROOT
HETATM    1  C   UNL     1      25.966  44.914  52.327  1.00  0.00     0.289 C 
HETATM    2  N   UNL     1      25.479  43.617  52.339  1.00  0.00    -0.241 N 
HETATM    3  O   UNL     1      25.665  45.757  51.486  1.00  0.00    -0.264 OA
HETATM    4  H   UNL     1      25.786  42.954  53.049  1.00  0.00     0.192 HD
ENDROOT
BRANCH   1   5
HETATM    5  C   UNL     1      26.886  45.223  53.394  1.00  0.00     0.121 A 
HETATM    6  N   UNL     1      26.999  46.495  53.880  1.00  0.00    -0.272 N 
HETATM    7  N   UNL     1      27.888  46.628  54.875  1.00  0.00    -0.174 NA
HETATM    8  H   UNL     1      26.481  47.311  53.566  1.00  0.00     0.189 HD
HETATM    9  C   UNL     1      28.404  45.398  55.032  1.00  0.00     0.091 A 
HETATM   10  C   UNL     1      27.781  44.482  54.138  1.00  0.00     0.071 A 
BRANCH   9  11
HETATM   11  C   UNL     1      29.422  45.136  56.053  1.00  0.00     0.016 A 
HETATM   12  C   UNL     1      29.395  45.913  57.227  1.00  0.00     0.015 A 
HETATM   13  C   UNL     1      30.326  45.715  58.249  1.00  0.00     0.001 A 
HETATM   14  C   UNL     1      31.305  44.735  58.115  1.00  0.00     0.002 A 
HETATM   15  C   UNL     1      31.355  43.962  56.954  1.00  0.00     0.025 A 
HETATM   16  C   UNL     1      30.423  44.160  55.924  1.00  0.00     0.046 A 
HETATM   17 CL   UNL     1      30.623  43.183  54.508  1.00  0.00    -0.083 Cl
ENDBRANCH   9  11
ENDBRANCH   1   5
BRANCH   2  18
HETATM   18  N   UNL     1      24.616  43.192  51.365  1.00  0.00    -0.165 NA
HETATM   19  C   UNL     1      25.085  42.348  50.503  1.00  0.00     0.157 A 
HETATM   20  C   UNL     1      26.494  41.751  50.425  1.00  0.00     0.277 A 
HETATM   21  C   UNL     1      24.347  41.775  49.386  1.00  0.00     0.027 A 
HETATM   22  O   UNL     1      27.391  41.997  51.203  1.00  0.00    -0.266 OA
HETATM   23  N   UNL     1      26.484  40.922  49.325  1.00  0.00    -0.321 N 
HETATM   24  C   UNL     1      25.232  40.932  48.714  1.00  0.00     0.048 A 
HETATM   25  H   UNL     1      27.287  40.390  49.021  1.00  0.00     0.169 HD
HETATM   26  C   UNL     1      24.842  40.232  47.594  1.00  0.00     0.030 A 
HETATM   27  C   UNL     1      23.519  40.400  47.160  1.00  0.00     0.002 A 
HETATM   28  C   UNL     1      22.629  41.254  47.845  1.00  0.00     0.001 A 
HETATM   29  C   UNL     1      23.042  41.957  48.979  1.00  0.00     0.016 A 
ENDBRANCH   2  18
TORSDOF 3
ENDMDL
MODEL 9
REMARK VINA RESULT:      -9.0      5.681      9.583
REMARK  3 active torsions:
REMARK  status: ('A' for Active; 'I' for Inactive)
REMARK    1  A    between atoms: C_3  and  C_4 
REMARK    2  A    between atoms: C_8  and  C_9 
REMARK       I    between atoms: C_9  and  N_10 
REMARK    3  A    between atoms: N_10  and  N_11 
ROOT
HETATM    1  C   UNL     1      27.141  41.947  50.493  1.00  0.00     0.289 C 
HETATM    2  N   UNL     1      28.198  41.435  49.759  1.00  0.00    -0.241 N 
HETATM    3  O   UNL     1      25.977  41.976  50.100  1.00  0.00    -0.264 OA
HETATM    4  H   UNL     1      29.147  41.461  50.128  1.00  0.00     0.192 HD
ENDROOT
BRANCH   1   5
HETATM    5  C   UNL     1      27.502  42.470  51.787  1.00  0.00     0.121 A 
HETATM    6  N   UNL     1      26.560  42.664  52.757  1.00  0.00    -0.272 N 
HETATM    7  N   UNL     1      27.046  43.148  53.909  1.00  0.00    -0.174 NA
HETATM    8  H   UNL     1      25.565  42.473  52.680  1.00  0.00     0.189 HD
HETATM    9  C   UNL     1      28.360  43.308  53.681  1.00  0.00     0.091 A 
HETATM   10  C   UNL     1      28.690  42.867  52.368  1.00  0.00     0.071 A 
BRANCH   9  11
HETATM   11  C   UNL     1      29.248  43.818  54.728  1.00  0.00     0.016 A 
HETATM   12  C   UNL     1      30.232  42.950  55.240  1.00  0.00     0.015 A 
HETATM   13  C   UNL     1      31.121  43.367  56.233  1.00  0.00     0.001 A 
HETATM   14  C   UNL     1      31.041  44.662  56.735  1.00  0.00     0.002 A 
HETATM   15  C   UNL     1      30.066  45.533  56.248  1.00  0.00     0.025 A 
HETATM   16  C   UNL     1      29.169  45.118  55.254  1.00  0.00     0.046 A 
HETATM   17 CL   UNL     1      27.965  46.266  54.774  1.00  0.00    -0.083 Cl
ENDBRANCH   9  11
ENDBRANCH   1   5
BRANCH   2  18
HETATM   18  N   UNL     1      27.990  40.929  48.504  1.00  0.00    -0.165 NA
HETATM   19  C   UNL     1      28.290  39.683  48.325  1.00  0.00     0.157 A 
HETATM   20  C   UNL     1      28.851  38.683  49.341  1.00  0.00     0.277 A 
HETATM   21  C   UNL     1      28.157  38.947  47.074  1.00  0.00     0.027 A 
HETATM   22  O   UNL     1      29.089  38.940  50.502  1.00  0.00    -0.266 OA
HETATM   23  N   UNL     1      29.005  37.500  48.651  1.00  0.00    -0.321 N 
HETATM   24  C   UNL     1      28.601  37.650  47.326  1.00  0.00     0.048 A 
HETATM   25  H   UNL     1      29.364  36.654  49.069  1.00  0.00     0.169 HD
HETATM   26  C   UNL     1      28.609  36.692  46.336  1.00  0.00     0.030 A 
HETATM   27  C   UNL     1      28.151  37.075  45.067  1.00  0.00     0.002 A 
HETATM   28  C   UNL     1      27.703  38.391  44.820  1.00  0.00     0.001 A 
HETATM   29  C   UNL     1      27.703  39.350  45.835  1.00  0.00     0.016 A 
ENDBRANCH   2  18
TORSDOF 3
ENDMDL
MODEL 10
REMARK VINA RESULT:      -9.0      6.227      9.747
REMARK  3 active torsions:
REMARK  status: ('A' for Active; 'I' for Inactive)
REMARK    1  A    between atoms: C_3  and  C_4 
REMARK    2  A    between atoms: C_8  and  C_9 
REMARK       I    between atoms: C_9  and  N_10 
REMARK    3  A    between atoms: N_10  and  N_11 
ROOT
HETATM    1  C   UNL     1      29.014  39.837  51.293  1.00  0.00     0.289 C 
HETATM    2  N   UNL     1      28.487  40.185  50.060  1.00  0.00    -0.241 N 
HETATM    3  O   UNL     1      29.560  38.762  51.532  1.00  0.00    -0.264 OA
HETATM    4  H   UNL     1      28.023  41.082  49.928  1.00  0.00     0.192 HD
ENDROOT
BRANCH   1   5
HETATM    5  C   UNL     1      28.871  40.843  52.316  1.00  0.00     0.121 A 
HETATM    6  N   UNL     1      27.728  40.935  53.058  1.00  0.00    -0.272 N 
HETATM    7  N   UNL     1      27.744  41.913  53.976  1.00  0.00    -0.174 NA
HETATM    8  H   UNL     1      26.906  40.344  52.979  1.00  0.00     0.189 HD
HETATM    9  C   UNL     1      28.937  42.509  53.813  1.00  0.00     0.091 A 
HETATM   10  C   UNL     1      29.685  41.848  52.798  1.00  0.00     0.071 A 
BRANCH   9  11
HETATM   11  C   UNL     1      29.334  43.639  54.657  1.00  0.00     0.016 A 
HETATM   12  C   UNL     1      30.445  43.470  55.506  1.00  0.00     0.015 A 
HETATM   13  C   UNL     1      30.889  44.504  56.333  1.00  0.00     0.001 A 
HETATM   14  C   UNL     1      30.227  45.728  56.328  1.00  0.00     0.002 A 
HETATM   15  C   UNL     1      29.117  45.910  55.503  1.00  0.00     0.025 A 
HETATM   16  C   UNL     1      28.666  44.874  54.673  1.00  0.00     0.046 A 
HETATM   17 CL   UNL     1      27.244  45.198  53.740  1.00  0.00    -0.083 Cl
ENDBRANCH   9  11
ENDBRANCH   1   5
BRANCH   2  18
HETATM   18  N   UNL     1      28.538  39.307  49.011  1.00  0.00    -0.165 NA
HETATM   19  C   UNL     1      28.108  39.742  47.870  1.00  0.00     0.157 A 
HETATM   20  C   UNL     1      27.544  41.125  47.530  1.00  0.00     0.277 A 
HETATM   21  C   UNL     1      28.064  38.977  46.631  1.00  0.00     0.027 A 
HETATM   22  O   UNL     1      27.432  42.037  48.321  1.00  0.00    -0.266 OA
HETATM   23  N   UNL     1      27.221  41.074  46.192  1.00  0.00    -0.321 N 
HETATM   24  C   UNL     1      27.523  39.822  45.662  1.00  0.00     0.048 A 
HETATM   25  H   UNL     1      26.821  41.851  45.685  1.00  0.00     0.169 HD
HETATM   26  C   UNL     1      27.340  39.396  44.364  1.00  0.00     0.030 A 
HETATM   27  C   UNL     1      27.722  38.082  44.059  1.00  0.00     0.002 A 
HETATM   28  C   UNL     1      28.269  37.234  45.045  1.00  0.00     0.001 A 
HETATM   29  C   UNL     1      28.447  37.681  46.356  1.00  0.00     0.016 A 
ENDBRANCH   2  18
TORSDOF 3
ENDMDL
