MODEL 1
REMARK VINA RESULT:      -9.3      0.000      0.000
REMARK  4 active torsions:
REMARK  status: ('A' for Active; 'I' for Inactive)
REMARK    1  A    between atoms: C_9  and  C_10 
REMARK       I    between atoms: C_10  and  N_11 
REMARK    2  A    between atoms: N_11  and  C_12 
REMARK    3  A    between atoms: C_12  and  C_13 
REMARK    4  A    between atoms: C_14  and  O_15 
ROOT
HETATM    1  C   UNL     1      25.210  45.840  52.605  1.00  0.00     0.273 C 
HETATM    2  N   UNL     1      25.145  46.717  51.547  1.00  0.00    -0.347 N 
HETATM    3  O   UNL     1      24.638  44.756  52.644  1.00  0.00    -0.266 OA
HETATM    4  H   UNL     1      25.758  47.522  51.640  1.00  0.00     0.163 HD
ENDROOT
BRANCH   1   5
HETATM    5  C   UNL     1      26.070  46.327  53.698  1.00  0.00     0.157 A 
HETATM    6  C   UNL     1      27.253  45.714  54.206  1.00  0.00     0.029 A 
HETATM    7  C   UNL     1      27.992  44.547  53.926  1.00  0.00     0.023 A 
HETATM    8  C   UNL     1      27.695  46.559  55.215  1.00  0.00     0.063 A 
HETATM    9  C   UNL     1      29.152  44.266  54.667  1.00  0.00    -0.061 A 
HETATM   10  C   UNL     1      29.953  43.027  54.386  1.00  0.00     0.048 C 
HETATM   11  C   UNL     1      29.564  45.148  55.676  1.00  0.00     0.009 A 
HETATM   12  C   UNL     1      28.845  46.312  55.971  1.00  0.00     0.032 A 
HETATM   13  N   UNL     1      26.790  47.584  55.250  1.00  0.00    -0.277 N 
HETATM   14  H   UNL     1      26.798  48.386  55.868  1.00  0.00     0.189 HD
HETATM   15  N   UNL     1      25.796  47.481  54.350  1.00  0.00    -0.168 NA
ENDBRANCH   1   5
BRANCH   2  16
HETATM   16  C   UNL     1      24.489  46.505  50.263  1.00  0.00     0.116 C 
HETATM   17  C   UNL     1      25.117  45.405  49.406  1.00  0.00     0.037 C 
BRANCH  16  18
HETATM   18  C   UNL     1      24.286  47.789  49.468  1.00  0.00    -0.002 A 
HETATM   19  C   UNL     1      25.376  48.647  49.205  1.00  0.00     0.076 A 
HETATM   20  C   UNL     1      25.173  49.829  48.484  1.00  0.00     0.038 A 
HETATM   21  C   UNL     1      23.897  50.180  48.035  1.00  0.00     0.009 A 
HETATM   22  C   UNL     1      22.804  49.359  48.305  1.00  0.00    -0.061 A 
HETATM   23  C   UNL     1      21.424  49.727  47.845  1.00  0.00     0.048 C 
HETATM   24  C   UNL     1      23.005  48.176  49.028  1.00  0.00     0.018 A 
BRANCH  19  25
HETATM   25  O   UNL     1      26.593  48.241  49.690  1.00  0.00    -0.355 OA
HETATM   26  C   UNL     1      27.752  48.877  49.167  1.00  0.00     0.210 C 
ENDBRANCH  19  25
ENDBRANCH  16  18
ENDBRANCH   2  16
TORSDOF 4
ENDMDL
MODEL 2
REMARK VINA RESULT:      -8.9      1.826      7.548
REMARK  4 active torsions:
REMARK  status: ('A' for Active; 'I' for Inactive)
REMARK    1  A    between atoms: C_9  and  C_10 
REMARK       I    between atoms: C_10  and  N_11 
REMARK    2  A    between atoms: N_11  and  C_12 
REMARK    3  A    between atoms: C_12  and  C_13 
REMARK    4  A    between atoms: C_14  and  O_15 
ROOT
HETATM    1  C   UNL     1      26.778  46.211  50.123  1.00  0.00     0.273 C 
HETATM    2  N   UNL     1      26.397  46.228  51.444  1.00  0.00    -0.347 N 
HETATM    3  O   UNL     1      27.214  45.225  49.538  1.00  0.00    -0.266 OA
HETATM    4  H   UNL     1      25.966  47.099  51.739  1.00  0.00     0.163 HD
ENDROOT
BRANCH   1   5
HETATM    5  C   UNL     1      26.586  47.511  49.456  1.00  0.00     0.157 A 
HETATM    6  C   UNL     1      25.349  48.163  49.175  1.00  0.00     0.029 A 
HETATM    7  C   UNL     1      23.983  47.880  49.376  1.00  0.00     0.023 A 
HETATM    8  C   UNL     1      25.701  49.354  48.553  1.00  0.00     0.063 A 
HETATM    9  C   UNL     1      23.014  48.802  48.946  1.00  0.00    -0.061 A 
HETATM   10  C   UNL     1      21.553  48.519  49.148  1.00  0.00     0.048 C 
HETATM   11  C   UNL     1      23.413  49.993  48.324  1.00  0.00     0.009 A 
HETATM   12  C   UNL     1      24.764  50.294  48.114  1.00  0.00     0.032 A 
HETATM   13  N   UNL     1      27.068  49.344  48.501  1.00  0.00    -0.277 N 
HETATM   14  H   UNL     1      27.671  50.059  48.111  1.00  0.00     0.189 HD
HETATM   15  N   UNL     1      27.638  48.250  49.036  1.00  0.00    -0.168 NA
ENDBRANCH   1   5
BRANCH   2  16
HETATM   16  C   UNL     1      26.340  45.097  52.361  1.00  0.00     0.116 C 
HETATM   17  C   UNL     1      24.938  44.772  52.880  1.00  0.00     0.037 C 
BRANCH  16  18
HETATM   18  C   UNL     1      27.351  45.188  53.498  1.00  0.00    -0.002 A 
HETATM   19  C   UNL     1      27.405  46.336  54.317  1.00  0.00     0.076 A 
HETATM   20  C   UNL     1      28.346  46.412  55.350  1.00  0.00     0.038 A 
HETATM   21  C   UNL     1      29.250  45.368  55.568  1.00  0.00     0.009 A 
HETATM   22  C   UNL     1      29.230  44.237  54.755  1.00  0.00    -0.061 A 
HETATM   23  C   UNL     1      30.202  43.113  54.965  1.00  0.00     0.048 C 
HETATM   24  C   UNL     1      28.289  44.160  53.720  1.00  0.00     0.018 A 
BRANCH  19  25
HETATM   25  O   UNL     1      26.496  47.323  54.031  1.00  0.00    -0.355 OA
HETATM   26  C   UNL     1      26.168  48.234  55.073  1.00  0.00     0.210 C 
ENDBRANCH  19  25
ENDBRANCH  16  18
ENDBRANCH   2  16
TORSDOF 4
ENDMDL
MODEL 3
REMARK VINA RESULT:      -8.7      2.187      7.710
REMARK  4 active torsions:
REMARK  status: ('A' for Active; 'I' for Inactive)
REMARK    1  A    between atoms: C_9  and  C_10 
REMARK       I    between atoms: C_10  and  N_11 
REMARK    2  A    between atoms: N_11  and  C_12 
REMARK    3  A    between atoms: C_12  and  C_13 
REMARK    4  A    between atoms: C_14  and  O_15 
ROOT
HETATM    1  C   UNL     1      26.908  45.619  50.148  1.00  0.00     0.273 C 
HETATM    2  N   UNL     1      26.585  45.639  51.485  1.00  0.00    -0.347 N 
HETATM    3  O   UNL     1      27.146  44.601  49.506  1.00  0.00    -0.266 OA
HETATM    4  H   UNL     1      26.323  46.557  51.833  1.00  0.00     0.163 HD
ENDROOT
BRANCH   1   5
HETATM    5  C   UNL     1      26.920  46.962  49.543  1.00  0.00     0.157 A 
HETATM    6  C   UNL     1      25.798  47.810  49.300  1.00  0.00     0.029 A 
HETATM    7  C   UNL     1      24.405  47.733  49.498  1.00  0.00     0.023 A 
HETATM    8  C   UNL     1      26.330  48.960  48.731  1.00  0.00     0.063 A 
HETATM    9  C   UNL     1      23.590  48.812  49.118  1.00  0.00    -0.061 A 
HETATM   10  C   UNL     1      22.103  48.749  49.317  1.00  0.00     0.048 C 
HETATM   11  C   UNL     1      24.168  49.954  48.547  1.00  0.00     0.009 A 
HETATM   12  C   UNL     1      25.549  50.052  48.342  1.00  0.00     0.032 A 
HETATM   13  N   UNL     1      27.679  48.741  48.669  1.00  0.00    -0.277 N 
HETATM   14  H   UNL     1      28.385  49.371  48.308  1.00  0.00     0.189 HD
HETATM   15  N   UNL     1      28.074  47.549  49.150  1.00  0.00    -0.168 NA
ENDBRANCH   1   5
BRANCH   2  16
HETATM   16  C   UNL     1      26.367  44.493  52.358  1.00  0.00     0.116 C 
HETATM   17  C   UNL     1      25.272  44.695  53.406  1.00  0.00     0.037 C 
BRANCH  16  18
HETATM   18  C   UNL     1      27.649  43.955  52.982  1.00  0.00    -0.002 A 
HETATM   19  C   UNL     1      28.229  42.759  52.506  1.00  0.00     0.076 A 
HETATM   20  C   UNL     1      29.400  42.270  53.097  1.00  0.00     0.038 A 
HETATM   21  C   UNL     1      29.994  42.943  54.167  1.00  0.00     0.009 A 
HETATM   22  C   UNL     1      29.423  44.112  54.669  1.00  0.00    -0.061 A 
HETATM   23  C   UNL     1      30.037  44.840  55.828  1.00  0.00     0.048 C 
HETATM   24  C   UNL     1      28.251  44.603  54.080  1.00  0.00     0.018 A 
BRANCH  19  25
HETATM   25  O   UNL     1      27.581  42.149  51.463  1.00  0.00    -0.355 OA
HETATM   26  C   UNL     1      28.136  40.938  50.965  1.00  0.00     0.210 C 
ENDBRANCH  19  25
ENDBRANCH  16  18
ENDBRANCH   2  16
TORSDOF 4
ENDMDL
MODEL 4
REMARK VINA RESULT:      -8.5      1.899      7.485
REMARK  4 active torsions:
REMARK  status: ('A' for Active; 'I' for Inactive)
REMARK    1  A    between atoms: C_9  and  C_10 
REMARK       I    between atoms: C_10  and  N_11 
REMARK    2  A    between atoms: N_11  and  C_12 
REMARK    3  A    between atoms: C_12  and  C_13 
REMARK    4  A    between atoms: C_14  and  O_15 
ROOT
HETATM    1  C   UNL     1      25.981  46.758  49.852  1.00  0.00     0.273 C 
HETATM    2  N   UNL     1      26.048  46.848  51.223  1.00  0.00    -0.347 N 
HETATM    3  O   UNL     1      26.095  45.714  49.219  1.00  0.00    -0.266 OA
HETATM    4  H   UNL     1      25.833  47.772  51.588  1.00  0.00     0.163 HD
ENDROOT
BRANCH   1   5
HETATM    5  C   UNL     1      25.732  48.059  49.206  1.00  0.00     0.157 A 
HETATM    6  C   UNL     1      24.472  48.697  49.008  1.00  0.00     0.029 A 
HETATM    7  C   UNL     1      23.125  48.397  49.295  1.00  0.00     0.023 A 
HETATM    8  C   UNL     1      24.769  49.894  48.370  1.00  0.00     0.063 A 
HETATM    9  C   UNL     1      22.119  49.309  48.933  1.00  0.00    -0.061 A 
HETATM   10  C   UNL     1      20.678  49.007  49.227  1.00  0.00     0.048 C 
HETATM   11  C   UNL     1      22.463  50.506  48.292  1.00  0.00     0.009 A 
HETATM   12  C   UNL     1      23.794  50.825  47.997  1.00  0.00     0.032 A 
HETATM   13  N   UNL     1      26.129  49.901  48.230  1.00  0.00    -0.277 N 
HETATM   14  H   UNL     1      26.698  50.624  47.807  1.00  0.00     0.189 HD
HETATM   15  N   UNL     1      26.746  48.812  48.723  1.00  0.00    -0.168 NA
ENDBRANCH   1   5
BRANCH   2  16
HETATM   16  C   UNL     1      26.163  45.751  52.176  1.00  0.00     0.116 C 
HETATM   17  C   UNL     1      24.879  44.942  52.367  1.00  0.00     0.037 C 
BRANCH  16  18
HETATM   18  C   UNL     1      26.767  46.169  53.511  1.00  0.00    -0.002 A 
HETATM   19  C   UNL     1      27.745  45.366  54.135  1.00  0.00     0.076 A 
HETATM   20  C   UNL     1      28.284  45.755  55.367  1.00  0.00     0.038 A 
HETATM   21  C   UNL     1      27.849  46.923  55.997  1.00  0.00     0.009 A 
HETATM   22  C   UNL     1      26.866  47.718  55.409  1.00  0.00    -0.061 A 
HETATM   23  C   UNL     1      26.375  48.968  56.078  1.00  0.00     0.048 C 
HETATM   24  C   UNL     1      26.325  47.329  54.177  1.00  0.00     0.018 A 
BRANCH  19  25
HETATM   25  O   UNL     1      28.110  44.227  53.461  1.00  0.00    -0.355 OA
HETATM   26  C   UNL     1      27.849  42.980  54.093  1.00  0.00     0.210 C 
ENDBRANCH  19  25
ENDBRANCH  16  18
ENDBRANCH   2  16
TORSDOF 4
ENDMDL
MODEL 5
REMARK VINA RESULT:      -8.4      1.988      3.403
REMARK  4 active torsions:
REMARK  status: ('A' for Active; 'I' for Inactive)
REMARK    1  A    between atoms: C_9  and  C_10 
REMARK       I    between atoms: C_10  and  N_11 
REMARK    2  A    between atoms: N_11  and  C_12 
REMARK    3  A    between atoms: C_12  and  C_13 
REMARK    4  A    between atoms: C_14  and  O_15 
ROOT
HETATM    1  C   UNL     1      25.593  44.446  52.090  1.00  0.00     0.273 C 
HETATM    2  N   UNL     1      25.583  45.152  50.910  1.00  0.00    -0.347 N 
HETATM    3  O   UNL     1      24.645  44.377  52.866  1.00  0.00    -0.266 OA
HETATM    4  H   UNL     1      26.416  45.020  50.343  1.00  0.00     0.163 HD
ENDROOT
BRANCH   1   5
HETATM    5  C   UNL     1      26.869  43.749  52.328  1.00  0.00     0.157 A 
HETATM    6  C   UNL     1      27.823  44.019  53.354  1.00  0.00     0.029 A 
HETATM    7  C   UNL     1      27.939  44.937  54.416  1.00  0.00     0.023 A 
HETATM    8  C   UNL     1      28.836  43.090  53.159  1.00  0.00     0.063 A 
HETATM    9  C   UNL     1      29.069  44.894  55.249  1.00  0.00    -0.061 A 
HETATM   10  C   UNL     1      29.214  45.865  56.385  1.00  0.00     0.048 C 
HETATM   11  C   UNL     1      30.069  43.939  55.018  1.00  0.00     0.009 A 
HETATM   12  C   UNL     1      29.974  43.017  53.969  1.00  0.00     0.032 A 
HETATM   13  N   UNL     1      28.447  42.352  52.075  1.00  0.00    -0.277 N 
HETATM   14  H   UNL     1      28.946  41.581  51.648  1.00  0.00     0.189 HD
HETATM   15  N   UNL     1      27.265  42.718  51.547  1.00  0.00    -0.168 NA
ENDBRANCH   1   5
BRANCH   2  16
HETATM   16  C   UNL     1      24.456  45.854  50.310  1.00  0.00     0.116 C 
HETATM   17  C   UNL     1      23.656  45.024  49.304  1.00  0.00     0.037 C 
BRANCH  16  18
HETATM   18  C   UNL     1      24.825  47.219  49.742  1.00  0.00    -0.002 A 
HETATM   19  C   UNL     1      23.826  48.070  49.222  1.00  0.00     0.076 A 
HETATM   20  C   UNL     1      24.180  49.317  48.693  1.00  0.00     0.038 A 
HETATM   21  C   UNL     1      25.516  49.721  48.656  1.00  0.00     0.009 A 
HETATM   22  C   UNL     1      26.520  48.885  49.140  1.00  0.00    -0.061 A 
HETATM   23  C   UNL     1      27.962  49.296  49.095  1.00  0.00     0.048 C 
HETATM   24  C   UNL     1      26.168  47.637  49.670  1.00  0.00     0.018 A 
BRANCH  19  25
HETATM   25  O   UNL     1      22.540  47.597  49.282  1.00  0.00    -0.355 OA
HETATM   26  C   UNL     1      21.555  48.276  48.512  1.00  0.00     0.210 C 
ENDBRANCH  19  25
ENDBRANCH  16  18
ENDBRANCH   2  16
TORSDOF 4
ENDMDL
MODEL 6
REMARK VINA RESULT:      -8.3      2.648      4.020
REMARK  4 active torsions:
REMARK  status: ('A' for Active; 'I' for Inactive)
REMARK    1  A    between atoms: C_9  and  C_10 
REMARK       I    between atoms: C_10  and  N_11 
REMARK    2  A    between atoms: N_11  and  C_12 
REMARK    3  A    between atoms: C_12  and  C_13 
REMARK    4  A    between atoms: C_14  and  O_15 
ROOT
HETATM    1  C   UNL     1      27.357  43.918  52.675  1.00  0.00     0.273 C 
HETATM    2  N   UNL     1      27.371  43.799  51.305  1.00  0.00    -0.347 N 
HETATM    3  O   UNL     1      26.377  44.252  53.334  1.00  0.00    -0.266 OA
HETATM    4  H   UNL     1      28.236  43.418  50.932  1.00  0.00     0.163 HD
ENDROOT
BRANCH   1   5
HETATM    5  C   UNL     1      28.652  43.578  53.291  1.00  0.00     0.157 A 
HETATM    6  C   UNL     1      29.185  44.080  54.515  1.00  0.00     0.029 A 
HETATM    7  C   UNL     1      28.767  44.989  55.507  1.00  0.00     0.023 A 
HETATM    8  C   UNL     1      30.414  43.451  54.660  1.00  0.00     0.063 A 
HETATM    9  C   UNL     1      29.596  45.238  56.614  1.00  0.00    -0.061 A 
HETATM   10  C   UNL     1      29.170  46.205  57.681  1.00  0.00     0.048 C 
HETATM   11  C   UNL     1      30.829  44.580  56.722  1.00  0.00     0.009 A 
HETATM   12  C   UNL     1      31.264  43.673  55.748  1.00  0.00     0.032 A 
HETATM   13  N   UNL     1      30.539  42.645  53.562  1.00  0.00    -0.277 N 
HETATM   14  H   UNL     1      31.315  42.035  53.336  1.00  0.00     0.189 HD
HETATM   15  N   UNL     1      29.497  42.693  52.714  1.00  0.00    -0.168 NA
ENDBRANCH   1   5
BRANCH   2  16
HETATM   16  C   UNL     1      26.242  43.942  50.395  1.00  0.00     0.116 C 
HETATM   17  C   UNL     1      26.367  43.136  49.101  1.00  0.00     0.037 C 
BRANCH  16  18
HETATM   18  C   UNL     1      25.867  45.392  50.118  1.00  0.00    -0.002 A 
HETATM   19  C   UNL     1      24.513  45.795  50.131  1.00  0.00     0.076 A 
HETATM   20  C   UNL     1      24.181  47.128  49.863  1.00  0.00     0.038 A 
HETATM   21  C   UNL     1      25.174  48.064  49.563  1.00  0.00     0.009 A 
HETATM   22  C   UNL     1      26.514  47.681  49.521  1.00  0.00    -0.061 A 
HETATM   23  C   UNL     1      27.593  48.668  49.186  1.00  0.00     0.048 C 
HETATM   24  C   UNL     1      26.848  46.347  49.788  1.00  0.00     0.018 A 
BRANCH  19  25
HETATM   25  O   UNL     1      23.596  44.817  50.419  1.00  0.00    -0.355 OA
HETATM   26  C   UNL     1      22.720  44.412  49.375  1.00  0.00     0.210 C 
ENDBRANCH  19  25
ENDBRANCH  16  18
ENDBRANCH   2  16
TORSDOF 4
ENDMDL
MODEL 7
REMARK VINA RESULT:      -8.0      5.091      7.565
REMARK  4 active torsions:
REMARK  status: ('A' for Active; 'I' for Inactive)
REMARK    1  A    between atoms: C_9  and  C_10 
REMARK       I    between atoms: C_10  and  N_11 
REMARK    2  A    between atoms: N_11  and  C_12 
REMARK    3  A    between atoms: C_12  and  C_13 
REMARK    4  A    between atoms: C_14  and  O_15 
ROOT
HETATM    1  C   UNL     1      28.151  43.476  51.919  1.00  0.00     0.273 C 
HETATM    2  N   UNL     1      28.170  42.144  51.576  1.00  0.00    -0.347 N 
HETATM    3  O   UNL     1      27.626  44.358  51.247  1.00  0.00    -0.266 OA
HETATM    4  H   UNL     1      28.560  41.538  52.293  1.00  0.00     0.163 HD
ENDROOT
BRANCH   1   5
HETATM    5  C   UNL     1      28.816  43.743  53.206  1.00  0.00     0.157 A 
HETATM    6  C   UNL     1      28.518  44.787  54.132  1.00  0.00     0.029 A 
HETATM    7  C   UNL     1      27.601  45.856  54.196  1.00  0.00     0.023 A 
HETATM    8  C   UNL     1      29.408  44.605  55.182  1.00  0.00     0.063 A 
HETATM    9  C   UNL     1      27.607  46.708  55.313  1.00  0.00    -0.061 A 
HETATM   10  C   UNL     1      26.641  47.854  55.401  1.00  0.00     0.048 C 
HETATM   11  C   UNL     1      28.522  46.488  56.352  1.00  0.00     0.009 A 
HETATM   12  C   UNL     1      29.441  45.433  56.308  1.00  0.00     0.032 A 
HETATM   13  N   UNL     1      30.154  43.512  54.838  1.00  0.00    -0.277 N 
HETATM   14  H   UNL     1      30.904  43.090  55.372  1.00  0.00     0.189 HD
HETATM   15  N   UNL     1      29.827  42.963  53.654  1.00  0.00    -0.168 NA
ENDBRANCH   1   5
BRANCH   2  16
HETATM   16  C   UNL     1      27.509  41.515  50.440  1.00  0.00     0.116 C 
HETATM   17  C   UNL     1      26.026  41.211  50.659  1.00  0.00     0.037 C 
BRANCH  16  18
HETATM   18  C   UNL     1      28.256  40.301  49.901  1.00  0.00    -0.002 A 
HETATM   19  C   UNL     1      28.460  40.147  48.512  1.00  0.00     0.076 A 
HETATM   20  C   UNL     1      29.138  39.021  48.029  1.00  0.00     0.038 A 
HETATM   21  C   UNL     1      29.599  38.036  48.906  1.00  0.00     0.009 A 
HETATM   22  C   UNL     1      29.385  38.157  50.278  1.00  0.00    -0.061 A 
HETATM   23  C   UNL     1      29.860  37.103  51.233  1.00  0.00     0.048 C 
HETATM   24  C   UNL     1      28.707  39.283  50.763  1.00  0.00     0.018 A 
BRANCH  19  25
HETATM   25  O   UNL     1      27.966  41.148  47.716  1.00  0.00    -0.355 OA
HETATM   26  C   UNL     1      28.041  40.962  46.308  1.00  0.00     0.210 C 
ENDBRANCH  19  25
ENDBRANCH  16  18
ENDBRANCH   2  16
TORSDOF 4
ENDMDL
MODEL 8
REMARK VINA RESULT:      -8.0      2.767      8.530
REMARK  4 active torsions:
REMARK  status: ('A' for Active; 'I' for Inactive)
REMARK    1  A    between atoms: C_9  and  C_10 
REMARK       I    between atoms: C_10  and  N_11 
REMARK    2  A    between atoms: N_11  and  C_12 
REMARK    3  A    between atoms: C_12  and  C_13 
REMARK    4  A    between atoms: C_14  and  O_15 
ROOT
HETATM    1  C   UNL     1      23.713  48.971  49.018  1.00  0.00     0.273 C 
HETATM    2  N   UNL     1      24.418  47.875  49.456  1.00  0.00    -0.347 N 
HETATM    3  O   UNL     1      24.051  50.135  49.209  1.00  0.00    -0.266 OA
HETATM    4  H   UNL     1      24.049  46.987  49.126  1.00  0.00     0.163 HD
ENDROOT
BRANCH   1   5
HETATM    5  C   UNL     1      22.502  48.607  48.262  1.00  0.00     0.157 A 
HETATM    6  C   UNL     1      21.335  49.404  48.064  1.00  0.00     0.029 A 
HETATM    7  C   UNL     1      20.903  50.686  48.457  1.00  0.00     0.023 A 
HETATM    8  C   UNL     1      20.494  48.624  47.281  1.00  0.00     0.063 A 
HETATM    9  C   UNL     1      19.639  51.146  48.051  1.00  0.00    -0.061 A 
HETATM   10  C   UNL     1      19.157  52.508  48.460  1.00  0.00     0.048 C 
HETATM   11  C   UNL     1      18.821  50.327  47.260  1.00  0.00     0.009 A 
HETATM   12  C   UNL     1      19.231  49.050  46.859  1.00  0.00     0.032 A 
HETATM   13  N   UNL     1      21.176  47.459  47.067  1.00  0.00    -0.277 N 
HETATM   14  H   UNL     1      20.864  46.656  46.534  1.00  0.00     0.189 HD
HETATM   15  N   UNL     1      22.392  47.410  47.641  1.00  0.00    -0.168 NA
ENDBRANCH   1   5
BRANCH   2  16
HETATM   16  C   UNL     1      25.712  47.866  50.126  1.00  0.00     0.116 C 
HETATM   17  C   UNL     1      26.876  48.349  49.259  1.00  0.00     0.037 C 
BRANCH  16  18
HETATM   18  C   UNL     1      26.033  46.541  50.807  1.00  0.00    -0.002 A 
HETATM   19  C   UNL     1      26.043  46.446  52.215  1.00  0.00     0.076 A 
HETATM   20  C   UNL     1      26.351  45.226  52.829  1.00  0.00     0.038 A 
HETATM   21  C   UNL     1      26.668  44.102  52.061  1.00  0.00     0.009 A 
HETATM   22  C   UNL     1      26.688  44.182  50.670  1.00  0.00    -0.061 A 
HETATM   23  C   UNL     1      27.041  42.990  49.829  1.00  0.00     0.048 C 
HETATM   24  C   UNL     1      26.381  45.402  50.054  1.00  0.00     0.018 A 
BRANCH  19  25
HETATM   25  O   UNL     1      25.736  47.594  52.899  1.00  0.00    -0.355 OA
HETATM   26  C   UNL     1      26.007  47.619  54.295  1.00  0.00     0.210 C 
ENDBRANCH  19  25
ENDBRANCH  16  18
ENDBRANCH   2  16
TORSDOF 4
ENDMDL
MODEL 9
REMARK VINA RESULT:      -7.8      2.165      7.852
REMARK  4 active torsions:
REMARK  status: ('A' for Active; 'I' for Inactive)
REMARK    1  A    between atoms: C_9  and  C_10 
REMARK       I    between atoms: C_10  and  N_11 
REMARK    2  A    between atoms: N_11  and  C_12 
REMARK    3  A    between atoms: C_12  and  C_13 
REMARK    4  A    between atoms: C_14  and  O_15 
ROOT
HETATM    1  C   UNL     1      25.471  44.799  53.636  1.00  0.00     0.273 C 
HETATM    2  N   UNL     1      26.713  45.387  53.597  1.00  0.00    -0.347 N 
HETATM    3  O   UNL     1      24.806  44.647  54.655  1.00  0.00    -0.266 OA
HETATM    4  H   UNL     1      27.078  45.521  52.658  1.00  0.00     0.163 HD
ENDROOT
BRANCH   1   5
HETATM    5  C   UNL     1      24.996  44.380  52.305  1.00  0.00     0.157 A 
HETATM    6  C   UNL     1      24.640  45.223  51.211  1.00  0.00     0.029 A 
HETATM    7  C   UNL     1      24.590  46.610  50.972  1.00  0.00     0.023 A 
HETATM    8  C   UNL     1      24.271  44.355  50.191  1.00  0.00     0.063 A 
HETATM    9  C   UNL     1      24.172  47.084  49.717  1.00  0.00    -0.061 A 
HETATM   10  C   UNL     1      24.109  48.559  49.443  1.00  0.00     0.048 C 
HETATM   11  C   UNL     1      23.809  46.173  48.715  1.00  0.00     0.009 A 
HETATM   12  C   UNL     1      23.851  44.790  48.931  1.00  0.00     0.032 A 
HETATM   13  N   UNL     1      24.420  43.100  50.713  1.00  0.00    -0.277 N 
HETATM   14  H   UNL     1      24.241  42.218  50.248  1.00  0.00     0.189 HD
HETATM   15  N   UNL     1      24.857  43.073  51.985  1.00  0.00    -0.168 NA
ENDBRANCH   1   5
BRANCH   2  16
HETATM   16  C   UNL     1      27.426  46.018  54.700  1.00  0.00     0.116 C 
HETATM   17  C   UNL     1      27.740  47.499  54.486  1.00  0.00     0.037 C 
BRANCH  16  18
HETATM   18  C   UNL     1      28.659  45.242  55.147  1.00  0.00    -0.002 A 
HETATM   19  C   UNL     1      29.207  44.235  54.324  1.00  0.00     0.076 A 
HETATM   20  C   UNL     1      30.333  43.521  54.752  1.00  0.00     0.038 A 
HETATM   21  C   UNL     1      30.911  43.783  55.996  1.00  0.00     0.009 A 
HETATM   22  C   UNL     1      30.371  44.756  56.835  1.00  0.00    -0.061 A 
HETATM   23  C   UNL     1      30.969  45.040  58.181  1.00  0.00     0.048 C 
HETATM   24  C   UNL     1      29.244  45.470  56.408  1.00  0.00     0.018 A 
BRANCH  19  25
HETATM   25  O   UNL     1      28.575  44.027  53.124  1.00  0.00    -0.355 OA
HETATM   26  C   UNL     1      28.789  42.779  52.478  1.00  0.00     0.210 C 
ENDBRANCH  19  25
ENDBRANCH  16  18
ENDBRANCH   2  16
TORSDOF 4
ENDMDL
MODEL 10
REMARK VINA RESULT:      -7.7      1.737      2.411
REMARK  4 active torsions:
REMARK  status: ('A' for Active; 'I' for Inactive)
REMARK    1  A    between atoms: C_9  and  C_10 
REMARK       I    between atoms: C_10  and  N_11 
REMARK    2  A    between atoms: N_11  and  C_12 
REMARK    3  A    between atoms: C_12  and  C_13 
REMARK    4  A    between atoms: C_14  and  O_15 
ROOT
HETATM    1  C   UNL     1      25.340  44.847  51.836  1.00  0.00     0.273 C 
HETATM    2  N   UNL     1      25.289  45.476  50.614  1.00  0.00    -0.347 N 
HETATM    3  O   UNL     1      24.404  44.791  52.627  1.00  0.00    -0.266 OA
HETATM    4  H   UNL     1      26.121  45.341  50.045  1.00  0.00     0.163 HD
ENDROOT
BRANCH   1   5
HETATM    5  C   UNL     1      26.645  44.216  52.100  1.00  0.00     0.157 A 
HETATM    6  C   UNL     1      27.505  44.445  53.214  1.00  0.00     0.029 A 
HETATM    7  C   UNL     1      27.483  45.260  54.363  1.00  0.00     0.023 A 
HETATM    8  C   UNL     1      28.595  43.609  53.008  1.00  0.00     0.063 A 
HETATM    9  C   UNL     1      28.555  45.210  55.270  1.00  0.00    -0.061 A 
HETATM   10  C   UNL     1      28.553  46.071  56.500  1.00  0.00     0.048 C 
HETATM   11  C   UNL     1      29.635  44.351  55.024  1.00  0.00     0.009 A 
HETATM   12  C   UNL     1      29.678  43.533  53.889  1.00  0.00     0.032 A 
HETATM   13  N   UNL     1      28.334  42.958  51.834  1.00  0.00    -0.277 N 
HETATM   14  H   UNL     1      28.915  42.268  51.374  1.00  0.00     0.189 HD
HETATM   15  N   UNL     1      27.167  43.296  51.257  1.00  0.00    -0.168 NA
ENDBRANCH   1   5
BRANCH   2  16
HETATM   16  C   UNL     1      24.129  46.094  49.985  1.00  0.00     0.116 C 
HETATM   17  C   UNL     1      23.466  45.242  48.903  1.00  0.00     0.037 C 
BRANCH  16  18
HETATM   18  C   UNL     1      24.389  47.515  49.500  1.00  0.00    -0.002 A 
HETATM   19  C   UNL     1      25.704  47.946  49.223  1.00  0.00     0.076 A 
HETATM   20  C   UNL     1      25.930  49.258  48.789  1.00  0.00     0.038 A 
HETATM   21  C   UNL     1      24.868  50.154  48.645  1.00  0.00     0.009 A 
HETATM   22  C   UNL     1      23.565  49.755  48.938  1.00  0.00    -0.061 A 
HETATM   23  C   UNL     1      22.413  50.707  48.803  1.00  0.00     0.048 C 
HETATM   24  C   UNL     1      23.337  48.443  49.372  1.00  0.00     0.018 A 
BRANCH  19  25
HETATM   25  O   UNL     1      26.694  47.014  49.401  1.00  0.00    -0.355 OA
HETATM   26  C   UNL     1      28.014  47.377  49.016  1.00  0.00     0.210 C 
ENDBRANCH  19  25
ENDBRANCH  16  18
ENDBRANCH   2  16
TORSDOF 4
ENDMDL
