MODEL 1
REMARK VINA RESULT:     -10.1      0.000      0.000
REMARK  7 active torsions:
REMARK  status: ('A' for Active; 'I' for Inactive)
REMARK    1  A    between atoms: C_2  and  O_3 
REMARK    2  A    between atoms: O_3  and  C_4 
REMARK    3  A    between atoms: C_9  and  C_10 
REMARK       I    between atoms: C_10  and  N_11 
REMARK    4  A    between atoms: N_11  and  C_12 
REMARK    5  A    between atoms: C_12  and  C_13 
REMARK    6  A    between atoms: C_14  and  C_15 
REMARK    7  A    between atoms: C_15  and  N_16 
ROOT
HETATM    1  C   UNL     1      25.331  45.437  52.349  1.00  0.00     0.276 C 
HETATM    2  N   UNL     1      25.285  46.692  51.762  1.00  0.00    -0.351 N 
HETATM    3  O   UNL     1      24.451  44.607  52.122  1.00  0.00    -0.265 OA
HETATM    4  H   UNL     1      26.105  47.276  51.882  1.00  0.00     0.163 HD
ENDROOT
BRANCH   2   5
HETATM    5  C   UNL     1      24.542  46.872  50.540  1.00  0.00     0.162 C 
BRANCH   5   6
HETATM    6  C   UNL     1      25.125  47.970  49.686  1.00  0.00    -0.033 A 
HETATM    7  C   UNL     1      24.349  48.746  48.794  1.00  0.00    -0.025 A 
HETATM    8  C   UNL     1      24.986  49.755  48.041  1.00  0.00     0.009 A 
HETATM    9  C   UNL     1      26.355  49.987  48.159  1.00  0.00     0.001 A 
HETATM   10  C   UNL     1      27.113  49.225  49.039  1.00  0.00     0.001 A 
HETATM   11  C   UNL     1      26.503  48.231  49.799  1.00  0.00     0.009 A 
BRANCH   7  12
HETATM   12  C   UNL     1      22.861  48.549  48.605  1.00  0.00     0.274 C 
BRANCH  12  13
HETATM   13  N   UNL     1      22.031  49.272  49.645  1.00  0.00    -0.067 N 
HETATM   14  H   UNL     1      22.314  48.906  50.562  1.00  0.00     0.280 HD
HETATM   15  C   UNL     1      20.549  49.076  49.469  1.00  0.00     0.235 C 
HETATM   16  C   UNL     1      20.148  50.155  48.484  1.00  0.00     0.029 C 
HETATM   17  C   UNL     1      21.154  51.283  48.672  1.00  0.00     0.029 C 
HETATM   18  C   UNL     1      22.196  50.769  49.651  1.00  0.00     0.235 C 
ENDBRANCH  12  13
ENDBRANCH   7  12
ENDBRANCH   5   6
ENDBRANCH   2   5
BRANCH   1  19
HETATM   19  C   UNL     1      26.493  45.191  53.174  1.00  0.00     0.150 A 
HETATM   20  O   UNL     1      27.084  43.966  53.038  1.00  0.00    -0.304 OA
HETATM   21  C   UNL     1      28.194  43.954  53.818  1.00  0.00     0.087 A 
HETATM   22  C   UNL     1      28.316  45.157  54.498  1.00  0.00     0.009 A 
HETATM   23  C   UNL     1      29.094  42.898  53.923  1.00  0.00     0.041 A 
HETATM   24  C   UNL     1      29.410  45.312  55.372  1.00  0.00     0.051 A 
HETATM   25  C   UNL     1      27.207  45.964  54.084  1.00  0.00    -0.009 A 
HETATM   26  C   UNL     1      30.330  44.260  55.524  1.00  0.00     0.069 A 
HETATM   27  C   UNL     1      30.178  43.078  54.793  1.00  0.00     0.039 A 
HETATM   28  C   UNL     1      26.903  47.335  54.566  1.00  0.00     0.052 C 
BRANCH  26  29
HETATM   29  O   UNL     1      31.340  44.520  56.412  1.00  0.00    -0.351 OA
BRANCH  29  30
HETATM   30  C   UNL     1      31.127  44.125  57.768  1.00  0.00     0.171 C 
HETATM   31  C   UNL     1      30.613  45.331  58.535  1.00  0.00     0.034 C 
ENDBRANCH  29  30
ENDBRANCH  26  29
ENDBRANCH   1  19
TORSDOF 7
ENDMDL
MODEL 2
REMARK VINA RESULT:      -9.7      0.965      1.224
REMARK  7 active torsions:
REMARK  status: ('A' for Active; 'I' for Inactive)
REMARK    1  A    between atoms: C_2  and  O_3 
REMARK    2  A    between atoms: O_3  and  C_4 
REMARK    3  A    between atoms: C_9  and  C_10 
REMARK       I    between atoms: C_10  and  N_11 
REMARK    4  A    between atoms: N_11  and  C_12 
REMARK    5  A    between atoms: C_12  and  C_13 
REMARK    6  A    between atoms: C_14  and  C_15 
REMARK    7  A    between atoms: C_15  and  N_16 
ROOT
HETATM    1  C   UNL     1      25.118  45.293  51.956  1.00  0.00     0.276 C 
HETATM    2  N   UNL     1      25.199  46.588  51.466  1.00  0.00    -0.351 N 
HETATM    3  O   UNL     1      24.108  44.615  51.767  1.00  0.00    -0.265 OA
HETATM    4  H   UNL     1      26.104  47.041  51.538  1.00  0.00     0.163 HD
ENDROOT
BRANCH   2   5
HETATM    5  C   UNL     1      24.376  46.972  50.347  1.00  0.00     0.162 C 
BRANCH   5   6
HETATM    6  C   UNL     1      25.003  48.085  49.546  1.00  0.00    -0.033 A 
HETATM    7  C   UNL     1      24.245  49.037  48.824  1.00  0.00    -0.025 A 
HETATM    8  C   UNL     1      24.924  50.044  48.108  1.00  0.00     0.009 A 
HETATM    9  C   UNL     1      26.316  50.108  48.098  1.00  0.00     0.001 A 
HETATM   10  C   UNL     1      27.057  49.174  48.810  1.00  0.00     0.001 A 
HETATM   11  C   UNL     1      26.407  48.176  49.532  1.00  0.00     0.009 A 
BRANCH   7  12
HETATM   12  C   UNL     1      22.732  49.028  48.781  1.00  0.00     0.274 C 
BRANCH  12  13
HETATM   13  N   UNL     1      22.138  50.409  48.604  1.00  0.00    -0.067 N 
HETATM   14  H   UNL     1      22.891  51.019  48.264  1.00  0.00     0.280 HD
HETATM   15  C   UNL     1      21.570  50.984  49.875  1.00  0.00     0.235 C 
HETATM   16  C   UNL     1      20.156  50.445  49.925  1.00  0.00     0.029 C 
HETATM   17  C   UNL     1      19.749  50.212  48.476  1.00  0.00     0.029 C 
HETATM   18  C   UNL     1      20.986  50.478  47.634  1.00  0.00     0.235 C 
ENDBRANCH  12  13
ENDBRANCH   7  12
ENDBRANCH   5   6
ENDBRANCH   2   5
BRANCH   1  19
HETATM   19  C   UNL     1      26.306  44.820  52.631  1.00  0.00     0.150 A 
HETATM   20  O   UNL     1      26.966  43.780  52.038  1.00  0.00    -0.304 OA
HETATM   21  C   UNL     1      28.087  43.537  52.761  1.00  0.00     0.087 A 
HETATM   22  C   UNL     1      28.149  44.390  53.853  1.00  0.00     0.009 A 
HETATM   23  C   UNL     1      29.050  42.579  52.458  1.00  0.00     0.041 A 
HETATM   24  C   UNL     1      29.246  44.262  54.728  1.00  0.00     0.051 A 
HETATM   25  C   UNL     1      26.988  45.224  53.774  1.00  0.00    -0.009 A 
HETATM   26  C   UNL     1      30.229  43.292  54.469  1.00  0.00     0.069 A 
HETATM   27  C   UNL     1      30.135  42.476  53.338  1.00  0.00     0.039 A 
HETATM   28  C   UNL     1      26.611  46.282  54.745  1.00  0.00     0.052 C 
BRANCH  26  29
HETATM   29  O   UNL     1      31.237  43.250  55.397  1.00  0.00    -0.351 OA
BRANCH  29  30
HETATM   30  C   UNL     1      31.162  44.183  56.476  1.00  0.00     0.171 C 
HETATM   31  C   UNL     1      31.952  43.619  57.643  1.00  0.00     0.034 C 
ENDBRANCH  29  30
ENDBRANCH  26  29
ENDBRANCH   1  19
TORSDOF 7
ENDMDL
MODEL 3
REMARK VINA RESULT:      -9.3      0.934      1.743
REMARK  7 active torsions:
REMARK  status: ('A' for Active; 'I' for Inactive)
REMARK    1  A    between atoms: C_2  and  O_3 
REMARK    2  A    between atoms: O_3  and  C_4 
REMARK    3  A    between atoms: C_9  and  C_10 
REMARK       I    between atoms: C_10  and  N_11 
REMARK    4  A    between atoms: N_11  and  C_12 
REMARK    5  A    between atoms: C_12  and  C_13 
REMARK    6  A    between atoms: C_14  and  C_15 
REMARK    7  A    between atoms: C_15  and  N_16 
ROOT
HETATM    1  C   UNL     1      25.325  45.474  52.205  1.00  0.00     0.276 C 
HETATM    2  N   UNL     1      25.290  46.752  51.668  1.00  0.00    -0.351 N 
HETATM    3  O   UNL     1      24.393  44.691  52.019  1.00  0.00    -0.265 OA
HETATM    4  H   UNL     1      26.142  47.296  51.744  1.00  0.00     0.163 HD
ENDROOT
BRANCH   2   5
HETATM    5  C   UNL     1      24.463  47.011  50.516  1.00  0.00     0.162 C 
BRANCH   5   6
HETATM    6  C   UNL     1      25.046  48.089  49.638  1.00  0.00    -0.033 A 
HETATM    7  C   UNL     1      24.251  48.996  48.899  1.00  0.00    -0.025 A 
HETATM    8  C   UNL     1      24.892  49.973  48.109  1.00  0.00     0.009 A 
HETATM    9  C   UNL     1      26.281  50.050  48.044  1.00  0.00     0.001 A 
HETATM   10  C   UNL     1      27.060  49.160  48.773  1.00  0.00     0.001 A 
HETATM   11  C   UNL     1      26.448  48.193  49.567  1.00  0.00     0.009 A 
BRANCH   7  12
HETATM   12  C   UNL     1      22.739  48.970  48.914  1.00  0.00     0.274 C 
BRANCH  12  13
HETATM   13  N   UNL     1      22.122  50.343  48.746  1.00  0.00    -0.067 N 
HETATM   14  H   UNL     1      22.881  50.983  48.485  1.00  0.00     0.280 HD
HETATM   15  C   UNL     1      21.450  50.853  49.994  1.00  0.00     0.235 C 
HETATM   16  C   UNL     1      20.050  50.279  49.921  1.00  0.00     0.029 C 
HETATM   17  C   UNL     1      19.755  50.094  48.438  1.00  0.00     0.029 C 
HETATM   18  C   UNL     1      21.041  50.423  47.699  1.00  0.00     0.235 C 
ENDBRANCH  12  13
ENDBRANCH   7  12
ENDBRANCH   5   6
ENDBRANCH   2   5
BRANCH   1  19
HETATM   19  C   UNL     1      26.536  45.148  52.926  1.00  0.00     0.150 A 
HETATM   20  O   UNL     1      26.956  46.065  53.849  1.00  0.00    -0.304 OA
HETATM   21  C   UNL     1      28.044  45.551  54.475  1.00  0.00     0.087 A 
HETATM   22  C   UNL     1      28.364  44.311  53.941  1.00  0.00     0.009 A 
HETATM   23  C   UNL     1      28.741  46.163  55.512  1.00  0.00     0.041 A 
HETATM   24  C   UNL     1      29.485  43.638  54.465  1.00  0.00     0.051 A 
HETATM   25  C   UNL     1      27.386  44.048  52.928  1.00  0.00    -0.009 A 
HETATM   26  C   UNL     1      30.230  44.232  55.498  1.00  0.00     0.069 A 
HETATM   27  C   UNL     1      29.848  45.471  56.022  1.00  0.00     0.039 A 
HETATM   28  C   UNL     1      27.335  42.842  52.063  1.00  0.00     0.052 C 
BRANCH  26  29
HETATM   29  O   UNL     1      31.306  43.492  55.914  1.00  0.00    -0.351 OA
BRANCH  29  30
HETATM   30  C   UNL     1      31.337  43.112  57.290  1.00  0.00     0.171 C 
HETATM   31  C   UNL     1      31.813  44.306  58.099  1.00  0.00     0.034 C 
ENDBRANCH  29  30
ENDBRANCH  26  29
ENDBRANCH   1  19
TORSDOF 7
ENDMDL
MODEL 4
REMARK VINA RESULT:      -8.8      1.916      3.045
REMARK  7 active torsions:
REMARK  status: ('A' for Active; 'I' for Inactive)
REMARK    1  A    between atoms: C_2  and  O_3 
REMARK    2  A    between atoms: O_3  and  C_4 
REMARK    3  A    between atoms: C_9  and  C_10 
REMARK       I    between atoms: C_10  and  N_11 
REMARK    4  A    between atoms: N_11  and  C_12 
REMARK    5  A    between atoms: C_12  and  C_13 
REMARK    6  A    between atoms: C_14  and  C_15 
REMARK    7  A    between atoms: C_15  and  N_16 
ROOT
HETATM    1  C   UNL     1      24.571  45.251  51.062  1.00  0.00     0.276 C 
HETATM    2  N   UNL     1      24.256  46.484  50.512  1.00  0.00    -0.351 N 
HETATM    3  O   UNL     1      23.987  44.233  50.692  1.00  0.00    -0.265 OA
HETATM    4  H   UNL     1      24.863  47.257  50.760  1.00  0.00     0.163 HD
ENDROOT
BRANCH   2   5
HETATM    5  C   UNL     1      23.648  46.539  49.206  1.00  0.00     0.162 C 
BRANCH   5   6
HETATM    6  C   UNL     1      23.408  47.958  48.758  1.00  0.00    -0.033 A 
HETATM    7  C   UNL     1      22.245  48.360  48.060  1.00  0.00    -0.025 A 
HETATM    8  C   UNL     1      22.111  49.714  47.687  1.00  0.00     0.009 A 
HETATM    9  C   UNL     1      23.102  50.646  47.989  1.00  0.00     0.001 A 
HETATM   10  C   UNL     1      24.240  50.249  48.677  1.00  0.00     0.001 A 
HETATM   11  C   UNL     1      24.389  48.920  49.064  1.00  0.00     0.009 A 
BRANCH   7  12
HETATM   12  C   UNL     1      21.132  47.405  47.690  1.00  0.00     0.274 C 
BRANCH  12  13
HETATM   13  N   UNL     1      20.359  46.903  48.891  1.00  0.00    -0.067 N 
HETATM   14  H   UNL     1      20.956  47.049  49.714  1.00  0.00     0.280 HD
HETATM   15  C   UNL     1      19.989  45.447  48.798  1.00  0.00     0.235 C 
HETATM   16  C   UNL     1      18.683  45.445  48.031  1.00  0.00     0.029 C 
HETATM   17  C   UNL     1      18.031  46.791  48.321  1.00  0.00     0.029 C 
HETATM   18  C   UNL     1      19.040  47.594  49.124  1.00  0.00     0.235 C 
ENDBRANCH  12  13
ENDBRANCH   7  12
ENDBRANCH   5   6
ENDBRANCH   2   5
BRANCH   1  19
HETATM   19  C   UNL     1      25.646  45.272  52.030  1.00  0.00     0.150 A 
HETATM   20  O   UNL     1      25.817  46.441  52.719  1.00  0.00    -0.304 OA
HETATM   21  C   UNL     1      26.803  46.242  53.629  1.00  0.00     0.087 A 
HETATM   22  C   UNL     1      27.308  44.955  53.517  1.00  0.00     0.009 A 
HETATM   23  C   UNL     1      27.246  47.182  54.555  1.00  0.00     0.041 A 
HETATM   24  C   UNL     1      28.357  44.582  54.380  1.00  0.00     0.051 A 
HETATM   25  C   UNL     1      26.559  44.322  52.473  1.00  0.00    -0.009 A 
HETATM   26  C   UNL     1      28.849  45.509  55.315  1.00  0.00     0.069 A 
HETATM   27  C   UNL     1      28.285  46.785  55.407  1.00  0.00     0.039 A 
HETATM   28  C   UNL     1      26.760  42.937  51.978  1.00  0.00     0.052 C 
BRANCH  26  29
HETATM   29  O   UNL     1      29.879  45.038  56.086  1.00  0.00    -0.351 OA
BRANCH  29  30
HETATM   30  C   UNL     1      30.601  43.913  55.584  1.00  0.00     0.171 C 
HETATM   31  C   UNL     1      31.396  43.313  56.731  1.00  0.00     0.034 C 
ENDBRANCH  29  30
ENDBRANCH  26  29
ENDBRANCH   1  19
TORSDOF 7
ENDMDL
MODEL 5
REMARK VINA RESULT:      -8.8      2.930     10.124
REMARK  7 active torsions:
REMARK  status: ('A' for Active; 'I' for Inactive)
REMARK    1  A    between atoms: C_2  and  O_3 
REMARK    2  A    between atoms: O_3  and  C_4 
REMARK    3  A    between atoms: C_9  and  C_10 
REMARK       I    between atoms: C_10  and  N_11 
REMARK    4  A    between atoms: N_11  and  C_12 
REMARK    5  A    between atoms: C_12  and  C_13 
REMARK    6  A    between atoms: C_14  and  C_15 
REMARK    7  A    between atoms: C_15  and  N_16 
ROOT
HETATM    1  C   UNL     1      24.849  47.387  50.128  1.00  0.00     0.276 C 
HETATM    2  N   UNL     1      24.628  46.711  51.318  1.00  0.00    -0.351 N 
HETATM    3  O   UNL     1      25.964  47.388  49.606  1.00  0.00    -0.265 OA
HETATM    4  H   UNL     1      23.664  46.637  51.621  1.00  0.00     0.163 HD
ENDROOT
BRANCH   2   5
HETATM    5  C   UNL     1      25.502  45.624  51.684  1.00  0.00     0.162 C 
BRANCH   5   6
HETATM    6  C   UNL     1      26.263  45.920  52.952  1.00  0.00    -0.033 A 
HETATM    7  C   UNL     1      26.850  44.911  53.751  1.00  0.00    -0.025 A 
HETATM    8  C   UNL     1      27.546  45.290  54.919  1.00  0.00     0.009 A 
HETATM    9  C   UNL     1      27.655  46.628  55.291  1.00  0.00     0.001 A 
HETATM   10  C   UNL     1      27.080  47.616  54.502  1.00  0.00     0.001 A 
HETATM   11  C   UNL     1      26.396  47.266  53.341  1.00  0.00     0.009 A 
BRANCH   7  12
HETATM   12  C   UNL     1      26.768  43.438  53.416  1.00  0.00     0.274 C 
BRANCH  12  13
HETATM   13  N   UNL     1      27.661  43.044  52.259  1.00  0.00    -0.067 N 
HETATM   14  H   UNL     1      27.258  43.463  51.413  1.00  0.00     0.280 HD
HETATM   15  C   UNL     1      27.772  41.555  52.070  1.00  0.00     0.235 C 
HETATM   16  C   UNL     1      28.897  41.147  52.999  1.00  0.00     0.029 C 
HETATM   17  C   UNL     1      29.796  42.371  53.124  1.00  0.00     0.029 C 
HETATM   18  C   UNL     1      29.092  43.497  52.386  1.00  0.00     0.235 C 
ENDBRANCH  12  13
ENDBRANCH   7  12
ENDBRANCH   5   6
ENDBRANCH   2   5
BRANCH   1  19
HETATM   19  C   UNL     1      23.679  48.017  49.558  1.00  0.00     0.150 A 
HETATM   20  O   UNL     1      23.512  49.346  49.834  1.00  0.00    -0.304 OA
HETATM   21  C   UNL     1      22.421  49.775  49.151  1.00  0.00     0.087 A 
HETATM   22  C   UNL     1      21.846  48.723  48.454  1.00  0.00     0.009 A 
HETATM   23  C   UNL     1      21.943  51.081  49.135  1.00  0.00     0.041 A 
HETATM   24  C   UNL     1      20.686  48.987  47.699  1.00  0.00     0.051 A 
HETATM   25  C   UNL     1      22.661  47.575  48.720  1.00  0.00    -0.009 A 
HETATM   26  C   UNL     1      20.158  50.290  47.675  1.00  0.00     0.069 A 
HETATM   27  C   UNL     1      20.792  51.322  48.372  1.00  0.00     0.039 A 
HETATM   28  C   UNL     1      22.423  46.203  48.205  1.00  0.00     0.052 C 
BRANCH  26  29
HETATM   29  O   UNL     1      19.020  50.421  46.922  1.00  0.00    -0.351 OA
BRANCH  29  30
HETATM   30  C   UNL     1      17.889  51.016  47.559  1.00  0.00     0.171 C 
HETATM   31  C   UNL     1      17.032  49.902  48.134  1.00  0.00     0.034 C 
ENDBRANCH  29  30
ENDBRANCH  26  29
ENDBRANCH   1  19
TORSDOF 7
ENDMDL
MODEL 6
REMARK VINA RESULT:      -8.4      2.483      5.006
REMARK  7 active torsions:
REMARK  status: ('A' for Active; 'I' for Inactive)
REMARK    1  A    between atoms: C_2  and  O_3 
REMARK    2  A    between atoms: O_3  and  C_4 
REMARK    3  A    between atoms: C_9  and  C_10 
REMARK       I    between atoms: C_10  and  N_11 
REMARK    4  A    between atoms: N_11  and  C_12 
REMARK    5  A    between atoms: C_12  and  C_13 
REMARK    6  A    between atoms: C_14  and  C_15 
REMARK    7  A    between atoms: C_15  and  N_16 
ROOT
HETATM    1  C   UNL     1      23.977  47.946  49.776  1.00  0.00     0.276 C 
HETATM    2  N   UNL     1      22.791  47.381  49.332  1.00  0.00    -0.351 N 
HETATM    3  O   UNL     1      24.257  49.113  49.499  1.00  0.00    -0.265 OA
HETATM    4  H   UNL     1      22.560  46.467  49.705  1.00  0.00     0.163 HD
ENDROOT
BRANCH   2   5
HETATM    5  C   UNL     1      21.681  48.240  49.001  1.00  0.00     0.162 C 
BRANCH   5   6
HETATM    6  C   UNL     1      20.432  47.450  48.702  1.00  0.00    -0.033 A 
HETATM    7  C   UNL     1      19.130  47.943  48.953  1.00  0.00    -0.025 A 
HETATM    8  C   UNL     1      18.023  47.129  48.635  1.00  0.00     0.009 A 
HETATM    9  C   UNL     1      18.195  45.859  48.088  1.00  0.00     0.001 A 
HETATM   10  C   UNL     1      19.474  45.379  47.840  1.00  0.00     0.001 A 
HETATM   11  C   UNL     1      20.582  46.170  48.137  1.00  0.00     0.009 A 
BRANCH   7  12
HETATM   12  C   UNL     1      18.864  49.307  49.550  1.00  0.00     0.274 C 
BRANCH  12  13
HETATM   13  N   UNL     1      18.641  50.378  48.504  1.00  0.00    -0.067 N 
HETATM   14  H   UNL     1      19.040  50.027  47.625  1.00  0.00     0.280 HD
HETATM   15  C   UNL     1      19.284  51.695  48.849  1.00  0.00     0.235 C 
HETATM   16  C   UNL     1      18.252  52.398  49.705  1.00  0.00     0.029 C 
HETATM   17  C   UNL     1      16.902  51.849  49.261  1.00  0.00     0.029 C 
HETATM   18  C   UNL     1      17.197  50.737  48.268  1.00  0.00     0.235 C 
ENDBRANCH  12  13
ENDBRANCH   7  12
ENDBRANCH   5   6
ENDBRANCH   2   5
BRANCH   1  19
HETATM   19  C   UNL     1      24.790  47.085  50.606  1.00  0.00     0.150 A 
HETATM   20  O   UNL     1      25.138  47.580  51.832  1.00  0.00    -0.304 OA
HETATM   21  C   UNL     1      25.817  46.608  52.492  1.00  0.00     0.087 A 
HETATM   22  C   UNL     1      25.951  45.486  51.688  1.00  0.00     0.009 A 
HETATM   23  C   UNL     1      26.307  46.707  53.790  1.00  0.00     0.041 A 
HETATM   24  C   UNL     1      26.650  44.380  52.211  1.00  0.00     0.051 A 
HETATM   25  C   UNL     1      25.286  45.795  50.457  1.00  0.00    -0.009 A 
HETATM   26  C   UNL     1      27.180  44.447  53.511  1.00  0.00     0.069 A 
HETATM   27  C   UNL     1      26.992  45.592  54.291  1.00  0.00     0.039 A 
HETATM   28  C   UNL     1      25.186  44.901  49.276  1.00  0.00     0.052 C 
BRANCH  26  29
HETATM   29  O   UNL     1      27.853  43.320  53.903  1.00  0.00    -0.351 OA
BRANCH  29  30
HETATM   30  C   UNL     1      29.230  43.475  54.246  1.00  0.00     0.171 C 
HETATM   31  C   UNL     1      30.065  42.936  53.099  1.00  0.00     0.034 C 
ENDBRANCH  29  30
ENDBRANCH  26  29
ENDBRANCH   1  19
TORSDOF 7
ENDMDL
MODEL 7
REMARK VINA RESULT:      -8.4      3.685      9.956
REMARK  7 active torsions:
REMARK  status: ('A' for Active; 'I' for Inactive)
REMARK    1  A    between atoms: C_2  and  O_3 
REMARK    2  A    between atoms: O_3  and  C_4 
REMARK    3  A    between atoms: C_9  and  C_10 
REMARK       I    between atoms: C_10  and  N_11 
REMARK    4  A    between atoms: N_11  and  C_12 
REMARK    5  A    between atoms: C_12  and  C_13 
REMARK    6  A    between atoms: C_14  and  C_15 
REMARK    7  A    between atoms: C_15  and  N_16 
ROOT
HETATM    1  C   UNL     1      26.336  45.762  49.720  1.00  0.00     0.276 C 
HETATM    2  N   UNL     1      26.093  44.654  50.518  1.00  0.00    -0.351 N 
HETATM    3  O   UNL     1      27.440  45.928  49.200  1.00  0.00    -0.265 OA
HETATM    4  H   UNL     1      25.131  44.507  50.803  1.00  0.00     0.163 HD
ENDROOT
BRANCH   2   5
HETATM    5  C   UNL     1      26.901  43.472  50.350  1.00  0.00     0.162 C 
BRANCH   5   6
HETATM    6  C   UNL     1      27.536  43.038  51.647  1.00  0.00    -0.033 A 
HETATM    7  C   UNL     1      27.846  41.690  51.940  1.00  0.00    -0.025 A 
HETATM    8  C   UNL     1      28.443  41.385  53.181  1.00  0.00     0.009 A 
HETATM    9  C   UNL     1      28.721  42.383  54.112  1.00  0.00     0.001 A 
HETATM   10  C   UNL     1      28.417  43.706  53.821  1.00  0.00     0.001 A 
HETATM   11  C   UNL     1      27.836  44.032  52.598  1.00  0.00     0.009 A 
BRANCH   7  12
HETATM   12  C   UNL     1      27.569  40.551  50.983  1.00  0.00     0.274 C 
BRANCH  12  13
HETATM   13  N   UNL     1      28.791  40.129  50.195  1.00  0.00    -0.067 N 
HETATM   14  H   UNL     1      29.584  40.672  50.557  1.00  0.00     0.280 HD
HETATM   15  C   UNL     1      28.661  40.368  48.715  1.00  0.00     0.235 C 
HETATM   16  C   UNL     1      27.970  39.123  48.199  1.00  0.00     0.029 C 
HETATM   17  C   UNL     1      28.350  38.007  49.164  1.00  0.00     0.029 C 
HETATM   18  C   UNL     1      29.127  38.663  50.293  1.00  0.00     0.235 C 
ENDBRANCH  12  13
ENDBRANCH   7  12
ENDBRANCH   5   6
ENDBRANCH   2   5
BRANCH   1  19
HETATM   19  C   UNL     1      25.199  46.633  49.522  1.00  0.00     0.150 A 
HETATM   20  O   UNL     1      25.463  47.974  49.484  1.00  0.00    -0.304 OA
HETATM   21  C   UNL     1      24.301  48.616  49.208  1.00  0.00     0.087 A 
HETATM   22  C   UNL     1      23.262  47.704  49.101  1.00  0.00     0.009 A 
HETATM   23  C   UNL     1      24.159  49.991  49.043  1.00  0.00     0.041 A 
HETATM   24  C   UNL     1      21.972  48.202  48.833  1.00  0.00     0.051 A 
HETATM   25  C   UNL     1      23.843  46.411  49.310  1.00  0.00    -0.009 A 
HETATM   26  C   UNL     1      21.782  49.587  48.682  1.00  0.00     0.069 A 
HETATM   27  C   UNL     1      22.868  50.463  48.770  1.00  0.00     0.039 A 
HETATM   28  C   UNL     1      23.110  45.120  49.312  1.00  0.00     0.052 C 
BRANCH  26  29
HETATM   29  O   UNL     1      20.483  49.954  48.442  1.00  0.00    -0.351 OA
BRANCH  29  30
HETATM   30  C   UNL     1      20.189  51.350  48.476  1.00  0.00     0.171 C 
HETATM   31  C   UNL     1      19.380  51.631  49.731  1.00  0.00     0.034 C 
ENDBRANCH  29  30
ENDBRANCH  26  29
ENDBRANCH   1  19
TORSDOF 7
ENDMDL
MODEL 8
REMARK VINA RESULT:      -8.2      3.345     10.023
REMARK  7 active torsions:
REMARK  status: ('A' for Active; 'I' for Inactive)
REMARK    1  A    between atoms: C_2  and  O_3 
REMARK    2  A    between atoms: O_3  and  C_4 
REMARK    3  A    between atoms: C_9  and  C_10 
REMARK       I    between atoms: C_10  and  N_11 
REMARK    4  A    between atoms: N_11  and  C_12 
REMARK    5  A    between atoms: C_12  and  C_13 
REMARK    6  A    between atoms: C_14  and  C_15 
REMARK    7  A    between atoms: C_15  and  N_16 
ROOT
HETATM    1  C   UNL     1      24.544  48.231  49.568  1.00  0.00     0.276 C 
HETATM    2  N   UNL     1      24.559  47.129  50.410  1.00  0.00    -0.351 N 
HETATM    3  O   UNL     1      25.597  48.734  49.176  1.00  0.00    -0.265 OA
HETATM    4  H   UNL     1      23.666  46.684  50.586  1.00  0.00     0.163 HD
ENDROOT
BRANCH   2   5
HETATM    5  C   UNL     1      25.719  46.273  50.430  1.00  0.00     0.162 C 
BRANCH   5   6
HETATM    6  C   UNL     1      26.166  45.966  51.836  1.00  0.00    -0.033 A 
HETATM    7  C   UNL     1      26.684  44.708  52.224  1.00  0.00    -0.025 A 
HETATM    8  C   UNL     1      27.079  44.521  53.565  1.00  0.00     0.009 A 
HETATM    9  C   UNL     1      26.961  45.545  54.502  1.00  0.00     0.001 A 
HETATM   10  C   UNL     1      26.456  46.781  54.117  1.00  0.00     0.001 A 
HETATM   11  C   UNL     1      26.068  46.991  52.796  1.00  0.00     0.009 A 
BRANCH   7  12
HETATM   12  C   UNL     1      26.835  43.546  51.267  1.00  0.00     0.274 C 
BRANCH  12  13
HETATM   13  N   UNL     1      25.770  42.486  51.450  1.00  0.00    -0.067 N 
HETATM   14  H   UNL     1      25.738  42.262  52.451  1.00  0.00     0.280 HD
HETATM   15  C   UNL     1      26.038  41.228  50.668  1.00  0.00     0.235 C 
HETATM   16  C   UNL     1      25.444  41.507  49.303  1.00  0.00     0.029 C 
HETATM   17  C   UNL     1      24.321  42.510  49.537  1.00  0.00     0.029 C 
HETATM   18  C   UNL     1      24.391  42.898  51.004  1.00  0.00     0.235 C 
ENDBRANCH  12  13
ENDBRANCH   7  12
ENDBRANCH   5   6
ENDBRANCH   2   5
BRANCH   1  19
HETATM   19  C   UNL     1      23.227  48.676  49.170  1.00  0.00     0.150 A 
HETATM   20  O   UNL     1      22.864  49.931  49.573  1.00  0.00    -0.304 OA
HETATM   21  C   UNL     1      21.647  50.201  49.038  1.00  0.00     0.087 A 
HETATM   22  C   UNL     1      21.189  49.111  48.313  1.00  0.00     0.009 A 
HETATM   23  C   UNL     1      20.952  51.398  49.180  1.00  0.00     0.041 A 
HETATM   24  C   UNL     1      19.925  49.211  47.700  1.00  0.00     0.051 A 
HETATM   25  C   UNL     1      22.214  48.114  48.401  1.00  0.00    -0.009 A 
HETATM   26  C   UNL     1      19.180  50.395  47.838  1.00  0.00     0.069 A 
HETATM   27  C   UNL     1      19.700  51.477  48.555  1.00  0.00     0.039 A 
HETATM   28  C   UNL     1      22.160  46.758  47.797  1.00  0.00     0.052 C 
BRANCH  26  29
HETATM   29  O   UNL     1      17.960  50.369  47.214  1.00  0.00    -0.351 OA
BRANCH  29  30
HETATM   30  C   UNL     1      17.080  49.299  47.559  1.00  0.00     0.171 C 
HETATM   31  C   UNL     1      15.709  49.889  47.837  1.00  0.00     0.034 C 
ENDBRANCH  29  30
ENDBRANCH  26  29
ENDBRANCH   1  19
TORSDOF 7
ENDMDL
MODEL 9
REMARK VINA RESULT:      -8.1     11.757     13.645
REMARK  7 active torsions:
REMARK  status: ('A' for Active; 'I' for Inactive)
REMARK    1  A    between atoms: C_2  and  O_3 
REMARK    2  A    between atoms: O_3  and  C_4 
REMARK    3  A    between atoms: C_9  and  C_10 
REMARK       I    between atoms: C_10  and  N_11 
REMARK    4  A    between atoms: N_11  and  C_12 
REMARK    5  A    between atoms: C_12  and  C_13 
REMARK    6  A    between atoms: C_14  and  C_15 
REMARK    7  A    between atoms: C_15  and  N_16 
ROOT
HETATM    1  C   UNL     1      31.525  49.908  42.749  1.00  0.00     0.276 C 
HETATM    2  N   UNL     1      30.533  50.814  42.403  1.00  0.00    -0.351 N 
HETATM    3  O   UNL     1      31.262  48.714  42.887  1.00  0.00    -0.265 OA
HETATM    4  H   UNL     1      30.840  51.752  42.173  1.00  0.00     0.163 HD
ENDROOT
BRANCH   2   5
HETATM    5  C   UNL     1      29.351  50.340  41.727  1.00  0.00     0.162 C 
BRANCH   5   6
HETATM    6  C   UNL     1      29.070  51.129  40.473  1.00  0.00    -0.033 A 
HETATM    7  C   UNL     1      28.559  50.542  39.292  1.00  0.00    -0.025 A 
HETATM    8  C   UNL     1      28.325  51.366  38.171  1.00  0.00     0.009 A 
HETATM    9  C   UNL     1      28.594  52.733  38.211  1.00  0.00     0.001 A 
HETATM   10  C   UNL     1      29.092  53.306  39.374  1.00  0.00     0.001 A 
HETATM   11  C   UNL     1      29.322  52.514  40.496  1.00  0.00     0.009 A 
BRANCH   7  12
HETATM   12  C   UNL     1      28.250  49.067  39.169  1.00  0.00     0.274 C 
BRANCH  12  13
HETATM   13  N   UNL     1      29.286  48.309  38.365  1.00  0.00    -0.067 N 
HETATM   14  H   UNL     1      29.319  48.741  37.434  1.00  0.00     0.280 HD
HETATM   15  C   UNL     1      28.977  46.843  38.221  1.00  0.00     0.235 C 
HETATM   16  C   UNL     1      29.569  46.216  39.467  1.00  0.00     0.029 C 
HETATM   17  C   UNL     1      30.721  47.123  39.879  1.00  0.00     0.029 C 
HETATM   18  C   UNL     1      30.673  48.327  38.954  1.00  0.00     0.235 C 
ENDBRANCH  12  13
ENDBRANCH   7  12
ENDBRANCH   5   6
ENDBRANCH   2   5
BRANCH   1  19
HETATM   19  C   UNL     1      32.851  50.473  42.869  1.00  0.00     0.150 A 
HETATM   20  O   UNL     1      33.784  50.024  41.976  1.00  0.00    -0.304 OA
HETATM   21  C   UNL     1      34.927  50.722  42.187  1.00  0.00     0.087 A 
HETATM   22  C   UNL     1      34.763  51.605  43.244  1.00  0.00     0.009 A 
HETATM   23  C   UNL     1      36.101  50.588  41.452  1.00  0.00     0.041 A 
HETATM   24  C   UNL     1      35.863  52.403  43.614  1.00  0.00     0.051 A 
HETATM   25  C   UNL     1      33.412  51.442  43.694  1.00  0.00    -0.009 A 
HETATM   26  C   UNL     1      37.074  52.282  42.911  1.00  0.00     0.069 A 
HETATM   27  C   UNL     1      37.180  51.397  41.834  1.00  0.00     0.039 A 
HETATM   28  C   UNL     1      32.781  52.165  44.827  1.00  0.00     0.052 C 
BRANCH  26  29
HETATM   29  O   UNL     1      38.076  53.095  43.372  1.00  0.00    -0.351 OA
BRANCH  29  30
HETATM   30  C   UNL     1      37.692  54.176  44.223  1.00  0.00     0.171 C 
HETATM   31  C   UNL     1      38.523  54.095  45.491  1.00  0.00     0.034 C 
ENDBRANCH  29  30
ENDBRANCH  26  29
ENDBRANCH   1  19
TORSDOF 7
ENDMDL
MODEL 10
REMARK VINA RESULT:      -8.1      3.421     10.582
REMARK  7 active torsions:
REMARK  status: ('A' for Active; 'I' for Inactive)
REMARK    1  A    between atoms: C_2  and  O_3 
REMARK    2  A    between atoms: O_3  and  C_4 
REMARK    3  A    between atoms: C_9  and  C_10 
REMARK       I    between atoms: C_10  and  N_11 
REMARK    4  A    between atoms: N_11  and  C_12 
REMARK    5  A    between atoms: C_12  and  C_13 
REMARK    6  A    between atoms: C_14  and  C_15 
REMARK    7  A    between atoms: C_15  and  N_16 
ROOT
HETATM    1  C   UNL     1      23.895  48.318  49.614  1.00  0.00     0.276 C 
HETATM    2  N   UNL     1      23.749  47.191  50.408  1.00  0.00    -0.351 N 
HETATM    3  O   UNL     1      25.011  48.785  49.389  1.00  0.00    -0.265 OA
HETATM    4  H   UNL     1      22.822  46.781  50.442  1.00  0.00     0.163 HD
ENDROOT
BRANCH   2   5
HETATM    5  C   UNL     1      24.859  46.282  50.553  1.00  0.00     0.162 C 
BRANCH   5   6
HETATM    6  C   UNL     1      24.451  44.853  50.299  1.00  0.00    -0.033 A 
HETATM    7  C   UNL     1      25.131  43.746  50.857  1.00  0.00    -0.025 A 
HETATM    8  C   UNL     1      24.669  42.446  50.562  1.00  0.00     0.009 A 
HETATM    9  C   UNL     1      23.569  42.243  49.732  1.00  0.00     0.001 A 
HETATM   10  C   UNL     1      22.901  43.332  49.187  1.00  0.00     0.001 A 
HETATM   11  C   UNL     1      23.334  44.625  49.473  1.00  0.00     0.009 A 
BRANCH   7  12
HETATM   12  C   UNL     1      26.336  43.886  51.761  1.00  0.00     0.274 C 
BRANCH  12  13
HETATM   13  N   UNL     1      26.045  43.511  53.199  1.00  0.00    -0.067 N 
HETATM   14  H   UNL     1      25.469  42.661  53.176  1.00  0.00     0.280 HD
HETATM   15  C   UNL     1      25.314  44.585  53.960  1.00  0.00     0.235 C 
HETATM   16  C   UNL     1      26.415  45.485  54.480  1.00  0.00     0.029 C 
HETATM   17  C   UNL     1      27.645  44.597  54.620  1.00  0.00     0.029 C 
HETATM   18  C   UNL     1      27.266  43.245  54.039  1.00  0.00     0.235 C 
ENDBRANCH  12  13
ENDBRANCH   7  12
ENDBRANCH   5   6
ENDBRANCH   2   5
BRANCH   1  19
HETATM   19  C   UNL     1      22.665  48.835  49.056  1.00  0.00     0.150 A 
HETATM   20  O   UNL     1      22.257  50.056  49.517  1.00  0.00    -0.304 OA
HETATM   21  C   UNL     1      21.146  50.408  48.824  1.00  0.00     0.087 A 
HETATM   22  C   UNL     1      20.798  49.405  47.932  1.00  0.00     0.009 A 
HETATM   23  C   UNL     1      20.450  51.605  48.970  1.00  0.00     0.041 A 
HETATM   24  C   UNL     1      19.650  49.598  47.137  1.00  0.00     0.051 A 
HETATM   25  C   UNL     1      21.783  48.377  48.084  1.00  0.00    -0.009 A 
HETATM   26  C   UNL     1      18.907  50.784  47.270  1.00  0.00     0.069 A 
HETATM   27  C   UNL     1      19.317  51.778  48.164  1.00  0.00     0.039 A 
HETATM   28  C   UNL     1      21.812  47.087  47.348  1.00  0.00     0.052 C 
BRANCH  26  29
HETATM   29  O   UNL     1      17.805  50.851  46.459  1.00  0.00    -0.351 OA
BRANCH  29  30
HETATM   30  C   UNL     1      17.061  52.070  46.477  1.00  0.00     0.171 C 
HETATM   31  C   UNL     1      17.118  52.678  45.087  1.00  0.00     0.034 C 
ENDBRANCH  29  30
ENDBRANCH  26  29
ENDBRANCH   1  19
TORSDOF 7
ENDMDL
