MODEL 1
REMARK VINA RESULT:      -9.1      0.000      0.000
REMARK  8 active torsions:
REMARK  status: ('A' for Active; 'I' for Inactive)
REMARK    1  A    between atoms: C_2  and  C_3 
REMARK    2  A    between atoms: C_3  and  C_4 
REMARK       I    between atoms: C_4  and  N_5 
REMARK    3  A    between atoms: N_8  and  C_9 
REMARK    4  A    between atoms: C_12  and  N_13 
REMARK    5  A    between atoms: N_13  and  C_14 
REMARK    6  A    between atoms: C_14  and  N_15 
REMARK       I    between atoms: N_15  and  C_16 
REMARK    7  A    between atoms: C_16  and  C_17 
REMARK    8  A    between atoms: C_18  and  O_19 
ROOT
HETATM    1  C   UNL     1      24.672  45.861  50.083  1.00  0.00     0.030 A 
HETATM    2  C   UNL     1      23.696  45.134  49.386  1.00  0.00     0.031 A 
HETATM    3  C   UNL     1      22.597  45.755  48.781  1.00  0.00     0.032 A 
HETATM    4  C   UNL     1      22.434  47.135  48.855  1.00  0.00     0.034 A 
HETATM    5  C   UNL     1      23.427  47.893  49.470  1.00  0.00     0.032 A 
HETATM    6  C   UNL     1      24.514  47.257  50.092  1.00  0.00     0.031 A 
ENDROOT
BRANCH   4   7
HETATM    7  N   UNL     1      21.322  47.787  48.280  1.00  0.00    -0.333 N 
HETATM    8  H   UNL     1      21.529  48.613  47.733  1.00  0.00     0.168 HD
BRANCH   7   9
HETATM    9  C   UNL     1      19.989  47.640  48.674  1.00  0.00     0.179 C 
HETATM   10  S   UNL     1      18.781  46.987  47.712  1.00  0.00    -0.040 SA
BRANCH   9  11
HETATM   11  N   UNL     1      19.825  48.090  49.996  1.00  0.00    -0.299 N 
HETATM   12  C   UNL     1      19.072  49.111  50.577  1.00  0.00     0.260 C 
HETATM   13  O   UNL     1      18.723  49.026  51.751  1.00  0.00    -0.267 OA
HETATM   14  H   UNL     1      20.121  47.433  50.703  1.00  0.00     0.171 HD
BRANCH  12  15
HETATM   15  C   UNL     1      18.798  50.336  49.795  1.00  0.00     0.067 A 
HETATM   16  C   UNL     1      19.844  51.113  49.278  1.00  0.00     0.084 A 
HETATM   17  C   UNL     1      19.538  52.280  48.567  1.00  0.00     0.039 A 
HETATM   18  C   UNL     1      18.206  52.640  48.342  1.00  0.00     0.026 A 
HETATM   19  C   UNL     1      17.175  51.837  48.827  1.00  0.00     0.035 A 
HETATM   20 CL   UNL     1      15.538  52.286  48.548  1.00  0.00    -0.084 Cl
HETATM   21  C   UNL     1      17.460  50.681  49.545  1.00  0.00     0.043 A 
BRANCH  16  22
HETATM   22  O   UNL     1      21.130  50.751  49.575  1.00  0.00    -0.355 OA
HETATM   23  C   UNL     1      22.089  51.125  48.589  1.00  0.00     0.210 C 
ENDBRANCH  16  22
ENDBRANCH  12  15
ENDBRANCH   9  11
ENDBRANCH   7   9
ENDBRANCH   4   7
BRANCH   1  24
HETATM   24  N   UNL     1      25.699  45.245  50.807  1.00  0.00    -0.378 N 
HETATM   25  C   UNL     1      26.204  45.942  52.008  1.00  0.00     0.143 C 
HETATM   26  C   UNL     1      26.943  44.954  52.937  1.00  0.00     0.145 C 
HETATM   27  N   UNL     1      27.956  44.142  52.247  1.00  0.00    -0.349 N 
HETATM   28  C   UNL     1      28.986  43.474  52.905  1.00  0.00     0.219 C 
HETATM   29  C   UNL     1      27.523  43.567  50.970  1.00  0.00     0.145 C 
HETATM   30  O   UNL     1      29.668  42.616  52.342  1.00  0.00    -0.273 OA
HETATM   31  C   UNL     1      26.774  44.553  50.064  1.00  0.00     0.143 C 
BRANCH  28  32
HETATM   32  C   UNL     1      29.240  43.856  54.355  1.00  0.00     0.103 C 
BRANCH  32  33
HETATM   33  C   UNL     1      30.368  43.029  54.975  1.00  0.00     0.005 C 
HETATM   34  C   UNL     1      30.986  43.730  56.172  1.00  0.00     0.005 C 
ENDBRANCH  32  33
ENDBRANCH  28  32
ENDBRANCH   1  24
TORSDOF 8
ENDMDL
MODEL 2
REMARK VINA RESULT:      -8.5      1.901      2.479
REMARK  8 active torsions:
REMARK  status: ('A' for Active; 'I' for Inactive)
REMARK    1  A    between atoms: C_2  and  C_3 
REMARK    2  A    between atoms: C_3  and  C_4 
REMARK       I    between atoms: C_4  and  N_5 
REMARK    3  A    between atoms: N_8  and  C_9 
REMARK    4  A    between atoms: C_12  and  N_13 
REMARK    5  A    between atoms: N_13  and  C_14 
REMARK    6  A    between atoms: C_14  and  N_15 
REMARK       I    between atoms: N_15  and  C_16 
REMARK    7  A    between atoms: C_16  and  C_17 
REMARK    8  A    between atoms: C_18  and  O_19 
ROOT
HETATM    1  C   UNL     1      23.589  44.917  49.539  1.00  0.00     0.030 A 
HETATM    2  C   UNL     1      22.404  44.221  49.265  1.00  0.00     0.031 A 
HETATM    3  C   UNL     1      21.256  44.866  48.788  1.00  0.00     0.032 A 
HETATM    4  C   UNL     1      21.255  46.240  48.571  1.00  0.00     0.034 A 
HETATM    5  C   UNL     1      22.439  46.947  48.757  1.00  0.00     0.032 A 
HETATM    6  C   UNL     1      23.578  46.294  49.256  1.00  0.00     0.031 A 
ENDROOT
BRANCH   4   7
HETATM    7  N   UNL     1      20.105  46.923  48.118  1.00  0.00    -0.333 N 
HETATM    8  H   UNL     1      20.269  47.680  47.467  1.00  0.00     0.168 HD
BRANCH   7   9
HETATM    9  C   UNL     1      18.849  46.914  48.732  1.00  0.00     0.179 C 
HETATM   10  S   UNL     1      17.438  46.389  47.997  1.00  0.00    -0.040 SA
BRANCH   9  11
HETATM   11  N   UNL     1      18.956  47.378  50.055  1.00  0.00    -0.299 N 
HETATM   12  C   UNL     1      18.880  48.644  50.638  1.00  0.00     0.260 C 
HETATM   13  O   UNL     1      18.541  48.759  51.813  1.00  0.00    -0.267 OA
HETATM   14  H   UNL     1      18.848  46.664  50.761  1.00  0.00     0.171 HD
BRANCH  12  15
HETATM   15  C   UNL     1      19.316  49.822  49.859  1.00  0.00     0.067 A 
HETATM   16  C   UNL     1      18.386  50.751  49.372  1.00  0.00     0.084 A 
HETATM   17  C   UNL     1      18.842  51.837  48.615  1.00  0.00     0.039 A 
HETATM   18  C   UNL     1      20.211  52.013  48.387  1.00  0.00     0.026 A 
HETATM   19  C   UNL     1      21.127  51.105  48.913  1.00  0.00     0.035 A 
HETATM   20 CL   UNL     1      22.809  51.325  48.627  1.00  0.00    -0.084 Cl
HETATM   21  C   UNL     1      20.692  50.013  49.656  1.00  0.00     0.043 A 
BRANCH  16  22
HETATM   22  O   UNL     1      17.055  50.504  49.571  1.00  0.00    -0.355 OA
HETATM   23  C   UNL     1      16.262  50.564  48.389  1.00  0.00     0.210 C 
ENDBRANCH  16  22
ENDBRANCH  12  15
ENDBRANCH   9  11
ENDBRANCH   7   9
ENDBRANCH   4   7
BRANCH   1  24
HETATM   24  N   UNL     1      24.698  44.313  50.143  1.00  0.00    -0.378 N 
HETATM   25  C   UNL     1      25.825  45.184  50.536  1.00  0.00     0.143 C 
HETATM   26  C   UNL     1      26.709  44.485  51.591  1.00  0.00     0.145 C 
HETATM   27  N   UNL     1      27.110  43.122  51.214  1.00  0.00    -0.349 N 
HETATM   28  C   UNL     1      28.181  42.446  51.796  1.00  0.00     0.219 C 
HETATM   29  C   UNL     1      26.034  42.287  50.673  1.00  0.00     0.145 C 
HETATM   30  O   UNL     1      28.346  41.235  51.639  1.00  0.00    -0.273 OA
HETATM   31  C   UNL     1      25.151  42.999  49.639  1.00  0.00     0.143 C 
BRANCH  28  32
HETATM   32  C   UNL     1      29.146  43.272  52.631  1.00  0.00     0.103 C 
BRANCH  32  33
HETATM   33  C   UNL     1      29.217  42.779  54.077  1.00  0.00     0.005 C 
HETATM   34  C   UNL     1      30.481  43.256  54.772  1.00  0.00     0.005 C 
ENDBRANCH  32  33
ENDBRANCH  28  32
ENDBRANCH   1  24
TORSDOF 8
ENDMDL
MODEL 3
REMARK VINA RESULT:      -8.2      4.373     10.599
REMARK  8 active torsions:
REMARK  status: ('A' for Active; 'I' for Inactive)
REMARK    1  A    between atoms: C_2  and  C_3 
REMARK    2  A    between atoms: C_3  and  C_4 
REMARK       I    between atoms: C_4  and  N_5 
REMARK    3  A    between atoms: N_8  and  C_9 
REMARK    4  A    between atoms: C_12  and  N_13 
REMARK    5  A    between atoms: N_13  and  C_14 
REMARK    6  A    between atoms: C_14  and  N_15 
REMARK       I    between atoms: N_15  and  C_16 
REMARK    7  A    between atoms: C_16  and  C_17 
REMARK    8  A    between atoms: C_18  and  O_19 
ROOT
HETATM    1  C   UNL     1      23.757  47.635  49.576  1.00  0.00     0.030 A 
HETATM    2  C   UNL     1      24.921  48.102  50.205  1.00  0.00     0.031 A 
HETATM    3  C   UNL     1      25.901  47.230  50.696  1.00  0.00     0.032 A 
HETATM    4  C   UNL     1      25.747  45.852  50.574  1.00  0.00     0.034 A 
HETATM    5  C   UNL     1      24.644  45.361  49.883  1.00  0.00     0.032 A 
HETATM    6  C   UNL     1      23.656  46.243  49.415  1.00  0.00     0.031 A 
ENDROOT
BRANCH   4   7
HETATM    7  N   UNL     1      26.705  44.948  51.084  1.00  0.00    -0.333 N 
HETATM    8  H   UNL     1      27.673  45.224  50.977  1.00  0.00     0.168 HD
BRANCH   7   9
HETATM    9  C   UNL     1      26.489  43.598  51.371  1.00  0.00     0.179 C 
HETATM   10  S   UNL     1      27.103  42.325  50.469  1.00  0.00    -0.040 SA
BRANCH   9  11
HETATM   11  N   UNL     1      25.713  43.471  52.537  1.00  0.00    -0.299 N 
HETATM   12  C   UNL     1      25.707  44.136  53.764  1.00  0.00     0.260 C 
HETATM   13  O   UNL     1      24.678  44.184  54.432  1.00  0.00    -0.267 OA
HETATM   14  H   UNL     1      24.849  42.964  52.414  1.00  0.00     0.171 HD
BRANCH  12  15
HETATM   15  C   UNL     1      26.976  44.683  54.292  1.00  0.00     0.067 A 
HETATM   16  C   UNL     1      27.112  46.049  54.577  1.00  0.00     0.084 A 
HETATM   17  C   UNL     1      28.340  46.526  55.049  1.00  0.00     0.039 A 
HETATM   18  C   UNL     1      29.401  45.644  55.273  1.00  0.00     0.026 A 
HETATM   19  C   UNL     1      29.239  44.282  55.026  1.00  0.00     0.035 A 
HETATM   20 CL   UNL     1      30.549  43.201  55.301  1.00  0.00    -0.084 Cl
HETATM   21  C   UNL     1      28.030  43.792  54.544  1.00  0.00     0.043 A 
BRANCH  16  22
HETATM   22  O   UNL     1      26.065  46.881  54.285  1.00  0.00    -0.355 OA
HETATM   23  C   UNL     1      26.122  48.148  54.935  1.00  0.00     0.210 C 
ENDBRANCH  16  22
ENDBRANCH  12  15
ENDBRANCH   9  11
ENDBRANCH   7   9
ENDBRANCH   4   7
BRANCH   1  24
HETATM   24  N   UNL     1      22.708  48.483  49.204  1.00  0.00    -0.378 N 
HETATM   25  C   UNL     1      21.940  48.134  47.991  1.00  0.00     0.143 C 
HETATM   26  C   UNL     1      20.569  48.843  47.994  1.00  0.00     0.145 C 
HETATM   27  N   UNL     1      20.653  50.288  48.252  1.00  0.00    -0.349 N 
HETATM   28  C   UNL     1      19.635  51.186  47.940  1.00  0.00     0.219 C 
HETATM   29  C   UNL     1      21.537  50.668  49.358  1.00  0.00     0.145 C 
HETATM   30  O   UNL     1      19.628  52.337  48.379  1.00  0.00    -0.273 OA
HETATM   31  C   UNL     1      22.889  49.943  49.354  1.00  0.00     0.143 C 
BRANCH  28  32
HETATM   32  C   UNL     1      18.531  50.686  47.023  1.00  0.00     0.103 C 
BRANCH  32  33
HETATM   33  C   UNL     1      17.204  50.515  47.766  1.00  0.00     0.005 C 
HETATM   34  C   UNL     1      16.052  50.262  46.808  1.00  0.00     0.005 C 
ENDBRANCH  32  33
ENDBRANCH  28  32
ENDBRANCH   1  24
TORSDOF 8
ENDMDL
MODEL 4
REMARK VINA RESULT:      -8.0      2.608      3.621
REMARK  8 active torsions:
REMARK  status: ('A' for Active; 'I' for Inactive)
REMARK    1  A    between atoms: C_2  and  C_3 
REMARK    2  A    between atoms: C_3  and  C_4 
REMARK       I    between atoms: C_4  and  N_5 
REMARK    3  A    between atoms: N_8  and  C_9 
REMARK    4  A    between atoms: C_12  and  N_13 
REMARK    5  A    between atoms: N_13  and  C_14 
REMARK    6  A    between atoms: C_14  and  N_15 
REMARK       I    between atoms: N_15  and  C_16 
REMARK    7  A    between atoms: C_16  and  C_17 
REMARK    8  A    between atoms: C_18  and  O_19 
ROOT
HETATM    1  C   UNL     1      23.409  44.372  49.036  1.00  0.00     0.030 A 
HETATM    2  C   UNL     1      23.622  45.750  49.185  1.00  0.00     0.031 A 
HETATM    3  C   UNL     1      22.616  46.689  48.928  1.00  0.00     0.032 A 
HETATM    4  C   UNL     1      21.353  46.278  48.510  1.00  0.00     0.034 A 
HETATM    5  C   UNL     1      21.087  44.915  48.431  1.00  0.00     0.032 A 
HETATM    6  C   UNL     1      22.109  43.982  48.669  1.00  0.00     0.031 A 
ENDROOT
BRANCH   4   7
HETATM    7  N   UNL     1      20.328  47.203  48.217  1.00  0.00    -0.333 N 
HETATM    8  H   UNL     1      20.619  48.051  47.747  1.00  0.00     0.168 HD
BRANCH   7   9
HETATM    9  C   UNL     1      19.064  47.245  48.812  1.00  0.00     0.179 C 
HETATM   10  S   UNL     1      17.641  46.788  48.053  1.00  0.00    -0.040 SA
BRANCH   9  11
HETATM   11  N   UNL     1      19.172  47.694  50.140  1.00  0.00    -0.299 N 
HETATM   12  C   UNL     1      18.808  48.877  50.787  1.00  0.00     0.260 C 
HETATM   13  O   UNL     1      18.571  48.870  51.991  1.00  0.00    -0.267 OA
HETATM   14  H   UNL     1      19.337  46.965  50.818  1.00  0.00     0.171 HD
BRANCH  12  15
HETATM   15  C   UNL     1      18.820  50.145  50.027  1.00  0.00     0.067 A 
HETATM   16  C   UNL     1      19.984  50.594  49.387  1.00  0.00     0.084 A 
HETATM   17  C   UNL     1      19.957  51.814  48.702  1.00  0.00     0.039 A 
HETATM   18  C   UNL     1      18.772  52.553  48.624  1.00  0.00     0.026 A 
HETATM   19  C   UNL     1      17.612  52.076  49.229  1.00  0.00     0.035 A 
HETATM   20 CL   UNL     1      16.157  52.989  49.131  1.00  0.00    -0.084 Cl
HETATM   21  C   UNL     1      17.623  50.871  49.925  1.00  0.00     0.043 A 
BRANCH  16  22
HETATM   22  O   UNL     1      21.132  49.865  49.542  1.00  0.00    -0.355 OA
HETATM   23  C   UNL     1      22.326  50.644  49.549  1.00  0.00     0.210 C 
ENDBRANCH  16  22
ENDBRANCH  12  15
ENDBRANCH   9  11
ENDBRANCH   7   9
ENDBRANCH   4   7
BRANCH   1  24
HETATM   24  N   UNL     1      24.438  43.432  49.155  1.00  0.00    -0.378 N 
HETATM   25  C   UNL     1      24.085  42.004  49.005  1.00  0.00     0.143 C 
HETATM   26  C   UNL     1      25.340  41.168  48.673  1.00  0.00     0.145 C 
HETATM   27  N   UNL     1      26.467  41.411  49.584  1.00  0.00    -0.349 N 
HETATM   28  C   UNL     1      27.542  40.536  49.729  1.00  0.00     0.219 C 
HETATM   29  C   UNL     1      26.737  42.822  49.872  1.00  0.00     0.145 C 
HETATM   30  O   UNL     1      28.578  40.870  50.308  1.00  0.00    -0.273 OA
HETATM   31  C   UNL     1      25.481  43.647  50.181  1.00  0.00     0.143 C 
BRANCH  28  32
HETATM   32  C   UNL     1      27.380  39.141  49.147  1.00  0.00     0.103 C 
BRANCH  32  33
HETATM   33  C   UNL     1      28.353  38.887  47.993  1.00  0.00     0.005 C 
HETATM   34  C   UNL     1      28.255  37.460  47.481  1.00  0.00     0.005 C 
ENDBRANCH  32  33
ENDBRANCH  28  32
ENDBRANCH   1  24
TORSDOF 8
ENDMDL
MODEL 5
REMARK VINA RESULT:      -7.6     12.975     14.306
REMARK  8 active torsions:
REMARK  status: ('A' for Active; 'I' for Inactive)
REMARK    1  A    between atoms: C_2  and  C_3 
REMARK    2  A    between atoms: C_3  and  C_4 
REMARK       I    between atoms: C_4  and  N_5 
REMARK    3  A    between atoms: N_8  and  C_9 
REMARK    4  A    between atoms: C_12  and  N_13 
REMARK    5  A    between atoms: N_13  and  C_14 
REMARK    6  A    between atoms: C_14  and  N_15 
REMARK       I    between atoms: N_15  and  C_16 
REMARK    7  A    between atoms: C_16  and  C_17 
REMARK    8  A    between atoms: C_18  and  O_19 
ROOT
HETATM    1  C   UNL     1      33.440  51.891  42.064  1.00  0.00     0.030 A 
HETATM    2  C   UNL     1      32.340  51.968  42.930  1.00  0.00     0.031 A 
HETATM    3  C   UNL     1      31.068  52.346  42.484  1.00  0.00     0.032 A 
HETATM    4  C   UNL     1      30.852  52.664  41.146  1.00  0.00     0.034 A 
HETATM    5  C   UNL     1      31.904  52.519  40.247  1.00  0.00     0.032 A 
HETATM    6  C   UNL     1      33.182  52.161  40.709  1.00  0.00     0.031 A 
ENDROOT
BRANCH   4   7
HETATM    7  N   UNL     1      29.588  53.075  40.672  1.00  0.00    -0.333 N 
HETATM    8  H   UNL     1      29.144  53.822  41.191  1.00  0.00     0.168 HD
BRANCH   7   9
HETATM    9  C   UNL     1      28.748  52.342  39.829  1.00  0.00     0.179 C 
HETATM   10  S   UNL     1      28.715  52.490  38.159  1.00  0.00    -0.040 SA
BRANCH   9  11
HETATM   11  N   UNL     1      27.966  51.450  40.584  1.00  0.00    -0.299 N 
HETATM   12  C   UNL     1      28.216  50.202  41.157  1.00  0.00     0.260 C 
HETATM   13  O   UNL     1      27.570  49.834  42.134  1.00  0.00    -0.267 OA
HETATM   14  H   UNL     1      27.137  51.857  40.989  1.00  0.00     0.171 HD
BRANCH  12  15
HETATM   15  C   UNL     1      29.187  49.294  40.509  1.00  0.00     0.067 A 
HETATM   16  C   UNL     1      28.923  48.733  39.251  1.00  0.00     0.084 A 
HETATM   17  C   UNL     1      29.858  47.857  38.688  1.00  0.00     0.039 A 
HETATM   18  C   UNL     1      31.056  47.580  39.353  1.00  0.00     0.026 A 
HETATM   19  C   UNL     1      31.324  48.176  40.584  1.00  0.00     0.035 A 
HETATM   20 CL   UNL     1      32.799  47.831  41.399  1.00  0.00    -0.084 Cl
HETATM   21  C   UNL     1      30.401  49.040  41.165  1.00  0.00     0.043 A 
BRANCH  16  22
HETATM   22  O   UNL     1      27.712  48.988  38.667  1.00  0.00    -0.355 OA
HETATM   23  C   UNL     1      26.858  47.852  38.565  1.00  0.00     0.210 C 
ENDBRANCH  16  22
ENDBRANCH  12  15
ENDBRANCH   9  11
ENDBRANCH   7   9
ENDBRANCH   4   7
BRANCH   1  24
HETATM   24  N   UNL     1      34.742  51.650  42.516  1.00  0.00    -0.378 N 
HETATM   25  C   UNL     1      35.343  50.335  42.210  1.00  0.00     0.143 C 
HETATM   26  C   UNL     1      36.881  50.401  42.325  1.00  0.00     0.145 C 
HETATM   27  N   UNL     1      37.352  50.994  43.585  1.00  0.00    -0.349 N 
HETATM   28  C   UNL     1      38.643  50.825  44.080  1.00  0.00     0.219 C 
HETATM   29  C   UNL     1      36.659  52.221  43.989  1.00  0.00     0.145 C 
HETATM   30  O   UNL     1      39.083  51.518  44.999  1.00  0.00    -0.273 OA
HETATM   31  C   UNL     1      35.133  52.149  43.852  1.00  0.00     0.143 C 
BRANCH  28  32
HETATM   32  C   UNL     1      39.491  49.737  43.439  1.00  0.00     0.103 C 
BRANCH  32  33
HETATM   33  C   UNL     1      39.602  48.499  44.332  1.00  0.00     0.005 C 
HETATM   34  C   UNL     1      40.958  48.416  45.011  1.00  0.00     0.005 C 
ENDBRANCH  32  33
ENDBRANCH  28  32
ENDBRANCH   1  24
TORSDOF 8
ENDMDL
MODEL 6
REMARK VINA RESULT:      -7.4     11.332     13.981
REMARK  8 active torsions:
REMARK  status: ('A' for Active; 'I' for Inactive)
REMARK    1  A    between atoms: C_2  and  C_3 
REMARK    2  A    between atoms: C_3  and  C_4 
REMARK       I    between atoms: C_4  and  N_5 
REMARK    3  A    between atoms: N_8  and  C_9 
REMARK    4  A    between atoms: C_12  and  N_13 
REMARK    5  A    between atoms: N_13  and  C_14 
REMARK    6  A    between atoms: C_14  and  N_15 
REMARK       I    between atoms: N_15  and  C_16 
REMARK    7  A    between atoms: C_16  and  C_17 
REMARK    8  A    between atoms: C_18  and  O_19 
ROOT
HETATM    1  C   UNL     1      28.422  47.592  40.888  1.00  0.00     0.030 A 
HETATM    2  C   UNL     1      28.755  48.558  41.847  1.00  0.00     0.031 A 
HETATM    3  C   UNL     1      30.075  48.977  42.055  1.00  0.00     0.032 A 
HETATM    4  C   UNL     1      31.115  48.436  41.304  1.00  0.00     0.034 A 
HETATM    5  C   UNL     1      30.808  47.536  40.289  1.00  0.00     0.032 A 
HETATM    6  C   UNL     1      29.483  47.106  40.105  1.00  0.00     0.031 A 
ENDROOT
BRANCH   4   7
HETATM    7  N   UNL     1      32.459  48.818  41.509  1.00  0.00    -0.333 N 
HETATM    8  H   UNL     1      33.025  48.168  42.041  1.00  0.00     0.168 HD
BRANCH   7   9
HETATM    9  C   UNL     1      32.974  50.111  41.388  1.00  0.00     0.179 C 
HETATM   10  S   UNL     1      33.406  51.085  42.682  1.00  0.00    -0.040 SA
BRANCH   9  11
HETATM   11  N   UNL     1      33.101  50.454  40.031  1.00  0.00    -0.299 N 
HETATM   12  C   UNL     1      32.364  51.272  39.173  1.00  0.00     0.260 C 
HETATM   13  O   UNL     1      32.904  51.782  38.196  1.00  0.00    -0.267 OA
HETATM   14  H   UNL     1      34.010  50.265  39.633  1.00  0.00     0.171 HD
BRANCH  12  15
HETATM   15  C   UNL     1      30.910  51.424  39.397  1.00  0.00     0.067 A 
HETATM   16  C   UNL     1      30.411  52.405  40.266  1.00  0.00     0.084 A 
HETATM   17  C   UNL     1      29.029  52.494  40.469  1.00  0.00     0.039 A 
HETATM   18  C   UNL     1      28.158  51.644  39.780  1.00  0.00     0.026 A 
HETATM   19  C   UNL     1      28.665  50.702  38.887  1.00  0.00     0.035 A 
HETATM   20 CL   UNL     1      27.590  49.657  38.043  1.00  0.00    -0.084 Cl
HETATM   21  C   UNL     1      30.037  50.590  38.683  1.00  0.00     0.043 A 
BRANCH  16  22
HETATM   22  O   UNL     1      31.306  53.172  40.962  1.00  0.00    -0.355 OA
HETATM   23  C   UNL     1      31.180  54.573  40.734  1.00  0.00     0.210 C 
ENDBRANCH  16  22
ENDBRANCH  12  15
ENDBRANCH   9  11
ENDBRANCH   7   9
ENDBRANCH   4   7
BRANCH   1  24
HETATM   24  N   UNL     1      27.132  47.065  40.762  1.00  0.00    -0.378 N 
HETATM   25  C   UNL     1      25.999  48.014  40.765  1.00  0.00     0.143 C 
HETATM   26  C   UNL     1      24.745  47.362  40.142  1.00  0.00     0.145 C 
HETATM   27  N   UNL     1      24.422  46.046  40.710  1.00  0.00    -0.349 N 
HETATM   28  C   UNL     1      23.171  45.444  40.595  1.00  0.00     0.219 C 
HETATM   29  C   UNL     1      25.565  45.140  40.862  1.00  0.00     0.145 C 
HETATM   30  O   UNL     1      22.995  44.254  40.863  1.00  0.00    -0.273 OA
HETATM   31  C   UNL     1      26.811  45.803  41.464  1.00  0.00     0.143 C 
BRANCH  28  32
HETATM   32  C   UNL     1      22.022  46.325  40.129  1.00  0.00     0.103 C 
BRANCH  32  33
HETATM   33  C   UNL     1      21.219  46.886  41.304  1.00  0.00     0.005 C 
HETATM   34  C   UNL     1      20.531  48.191  40.942  1.00  0.00     0.005 C 
ENDBRANCH  32  33
ENDBRANCH  28  32
ENDBRANCH   1  24
TORSDOF 8
ENDMDL
MODEL 7
REMARK VINA RESULT:      -7.4      6.012     12.257
REMARK  8 active torsions:
REMARK  status: ('A' for Active; 'I' for Inactive)
REMARK    1  A    between atoms: C_2  and  C_3 
REMARK    2  A    between atoms: C_3  and  C_4 
REMARK       I    between atoms: C_4  and  N_5 
REMARK    3  A    between atoms: N_8  and  C_9 
REMARK    4  A    between atoms: C_12  and  N_13 
REMARK    5  A    between atoms: N_13  and  C_14 
REMARK    6  A    between atoms: C_14  and  N_15 
REMARK       I    between atoms: N_15  and  C_16 
REMARK    7  A    between atoms: C_16  and  C_17 
REMARK    8  A    between atoms: C_18  and  O_19 
ROOT
HETATM    1  C   UNL     1      15.949  53.248  50.039  1.00  0.00     0.030 A 
HETATM    2  C   UNL     1      15.104  52.315  49.422  1.00  0.00     0.031 A 
HETATM    3  C   UNL     1      15.601  51.252  48.658  1.00  0.00     0.032 A 
HETATM    4  C   UNL     1      16.972  51.087  48.483  1.00  0.00     0.034 A 
HETATM    5  C   UNL     1      17.839  51.947  49.149  1.00  0.00     0.032 A 
HETATM    6  C   UNL     1      17.329  53.023  49.894  1.00  0.00     0.031 A 
ENDROOT
BRANCH   4   7
HETATM    7  N   UNL     1      17.502  50.042  47.696  1.00  0.00    -0.333 N 
HETATM    8  H   UNL     1      17.811  50.302  46.767  1.00  0.00     0.168 HD
BRANCH   7   9
HETATM    9  C   UNL     1      17.309  48.673  47.908  1.00  0.00     0.179 C 
HETATM   10  S   UNL     1      16.782  47.596  46.737  1.00  0.00    -0.040 SA
BRANCH   9  11
HETATM   11  N   UNL     1      17.652  48.338  49.230  1.00  0.00    -0.299 N 
HETATM   12  C   UNL     1      18.806  48.509  49.996  1.00  0.00     0.260 C 
HETATM   13  O   UNL     1      18.727  48.568  51.220  1.00  0.00    -0.267 OA
HETATM   14  H   UNL     1      16.865  48.134  49.829  1.00  0.00     0.171 HD
BRANCH  12  15
HETATM   15  C   UNL     1      20.123  48.507  49.323  1.00  0.00     0.067 A 
HETATM   16  C   UNL     1      20.614  47.351  48.700  1.00  0.00     0.084 A 
HETATM   17  C   UNL     1      21.878  47.388  48.099  1.00  0.00     0.039 A 
HETATM   18  C   UNL     1      22.619  48.574  48.085  1.00  0.00     0.026 A 
HETATM   19  C   UNL     1      22.100  49.726  48.672  1.00  0.00     0.035 A 
HETATM   20 CL   UNL     1      23.017  51.182  48.654  1.00  0.00    -0.084 Cl
HETATM   21  C   UNL     1      20.852  49.705  49.285  1.00  0.00     0.043 A 
BRANCH  16  22
HETATM   22  O   UNL     1      19.879  46.201  48.791  1.00  0.00    -0.355 OA
HETATM   23  C   UNL     1      20.021  45.322  47.679  1.00  0.00     0.210 C 
ENDBRANCH  16  22
ENDBRANCH  12  15
ENDBRANCH   9  11
ENDBRANCH   7   9
ENDBRANCH   4   7
BRANCH   1  24
HETATM   24  N   UNL     1      15.468  54.390  50.689  1.00  0.00    -0.378 N 
HETATM   25  C   UNL     1      14.394  54.210  51.688  1.00  0.00     0.143 C 
HETATM   26  C   UNL     1      14.325  55.428  52.635  1.00  0.00     0.145 C 
HETATM   27  N   UNL     1      14.277  56.718  51.932  1.00  0.00    -0.349 N 
HETATM   28  C   UNL     1      13.842  57.901  52.525  1.00  0.00     0.219 C 
HETATM   29  C   UNL     1      15.233  56.859  50.831  1.00  0.00     0.145 C 
HETATM   30  O   UNL     1      14.036  58.999  52.002  1.00  0.00    -0.273 OA
HETATM   31  C   UNL     1      15.307  55.635  49.908  1.00  0.00     0.143 C 
BRANCH  28  32
HETATM   32  C   UNL     1      13.107  57.779  53.850  1.00  0.00     0.103 C 
BRANCH  32  33
HETATM   33  C   UNL     1      13.900  58.397  55.004  1.00  0.00     0.005 C 
HETATM   34  C   UNL     1      13.523  57.779  56.339  1.00  0.00     0.005 C 
ENDBRANCH  32  33
ENDBRANCH  28  32
ENDBRANCH   1  24
TORSDOF 8
ENDMDL
MODEL 8
REMARK VINA RESULT:      -7.3      1.623      2.421
REMARK  8 active torsions:
REMARK  status: ('A' for Active; 'I' for Inactive)
REMARK    1  A    between atoms: C_2  and  C_3 
REMARK    2  A    between atoms: C_3  and  C_4 
REMARK       I    between atoms: C_4  and  N_5 
REMARK    3  A    between atoms: N_8  and  C_9 
REMARK    4  A    between atoms: C_12  and  N_13 
REMARK    5  A    between atoms: N_13  and  C_14 
REMARK    6  A    between atoms: C_14  and  N_15 
REMARK       I    between atoms: N_15  and  C_16 
REMARK    7  A    between atoms: C_16  and  C_17 
REMARK    8  A    between atoms: C_18  and  O_19 
ROOT
HETATM    1  C   UNL     1      25.176  45.097  51.040  1.00  0.00     0.030 A 
HETATM    2  C   UNL     1      25.016  46.408  50.569  1.00  0.00     0.031 A 
HETATM    3  C   UNL     1      24.011  46.753  49.657  1.00  0.00     0.032 A 
HETATM    4  C   UNL     1      23.127  45.790  49.181  1.00  0.00     0.034 A 
HETATM    5  C   UNL     1      23.208  44.498  49.691  1.00  0.00     0.032 A 
HETATM    6  C   UNL     1      24.234  44.157  50.588  1.00  0.00     0.031 A 
ENDROOT
BRANCH   4   7
HETATM    7  N   UNL     1      22.121  46.101  48.240  1.00  0.00    -0.333 N 
HETATM    8  H   UNL     1      22.116  45.540  47.397  1.00  0.00     0.168 HD
BRANCH   7   9
HETATM    9  C   UNL     1      21.397  47.295  48.176  1.00  0.00     0.179 C 
HETATM   10  S   UNL     1      19.891  47.529  48.874  1.00  0.00    -0.040 SA
BRANCH   9  11
HETATM   11  N   UNL     1      22.130  48.267  47.473  1.00  0.00    -0.299 N 
HETATM   12  C   UNL     1      22.181  49.661  47.533  1.00  0.00     0.260 C 
HETATM   13  O   UNL     1      23.196  50.253  47.176  1.00  0.00    -0.267 OA
HETATM   14  H   UNL     1      22.937  47.911  46.982  1.00  0.00     0.171 HD
BRANCH  12  15
HETATM   15  C   UNL     1      20.968  50.409  47.925  1.00  0.00     0.067 A 
HETATM   16  C   UNL     1      20.842  50.960  49.208  1.00  0.00     0.084 A 
HETATM   17  C   UNL     1      19.663  51.638  49.544  1.00  0.00     0.039 A 
HETATM   18  C   UNL     1      18.646  51.797  48.598  1.00  0.00     0.026 A 
HETATM   19  C   UNL     1      18.802  51.280  47.313  1.00  0.00     0.035 A 
HETATM   20 CL   UNL     1      17.547  51.477  46.153  1.00  0.00    -0.084 Cl
HETATM   21  C   UNL     1      19.961  50.593  46.965  1.00  0.00     0.043 A 
BRANCH  16  22
HETATM   22  O   UNL     1      21.838  50.727  50.116  1.00  0.00    -0.355 OA
HETATM   23  C   UNL     1      21.569  51.222  51.425  1.00  0.00     0.210 C 
ENDBRANCH  16  22
ENDBRANCH  12  15
ENDBRANCH   9  11
ENDBRANCH   7   9
ENDBRANCH   4   7
BRANCH   1  24
HETATM   24  N   UNL     1      26.255  44.709  51.842  1.00  0.00    -0.378 N 
HETATM   25  C   UNL     1      26.614  45.582  52.980  1.00  0.00     0.143 C 
HETATM   26  C   UNL     1      27.454  44.804  54.016  1.00  0.00     0.145 C 
HETATM   27  N   UNL     1      28.596  44.088  53.430  1.00  0.00    -0.349 N 
HETATM   28  C   UNL     1      29.688  43.642  54.171  1.00  0.00     0.219 C 
HETATM   29  C   UNL     1      28.295  43.339  52.206  1.00  0.00     0.145 C 
HETATM   30  O   UNL     1      30.505  42.844  53.709  1.00  0.00    -0.273 OA
HETATM   31  C   UNL     1      27.444  44.116  51.193  1.00  0.00     0.143 C 
BRANCH  28  32
HETATM   32  C   UNL     1      29.834  44.190  55.582  1.00  0.00     0.103 C 
BRANCH  32  33
HETATM   33  C   UNL     1      31.289  44.170  56.055  1.00  0.00     0.005 C 
HETATM   34  C   UNL     1      31.521  43.102  57.110  1.00  0.00     0.005 C 
ENDBRANCH  32  33
ENDBRANCH  28  32
ENDBRANCH   1  24
TORSDOF 8
ENDMDL
MODEL 9
REMARK VINA RESULT:      -7.1      4.380     11.330
REMARK  8 active torsions:
REMARK  status: ('A' for Active; 'I' for Inactive)
REMARK    1  A    between atoms: C_2  and  C_3 
REMARK    2  A    between atoms: C_3  and  C_4 
REMARK       I    between atoms: C_4  and  N_5 
REMARK    3  A    between atoms: N_8  and  C_9 
REMARK    4  A    between atoms: C_12  and  N_13 
REMARK    5  A    between atoms: N_13  and  C_14 
REMARK    6  A    between atoms: C_14  and  N_15 
REMARK       I    between atoms: N_15  and  C_16 
REMARK    7  A    between atoms: C_16  and  C_17 
REMARK    8  A    between atoms: C_18  and  O_19 
ROOT
HETATM    1  C   UNL     1      22.266  48.043  48.578  1.00  0.00     0.030 A 
HETATM    2  C   UNL     1      23.250  48.806  49.222  1.00  0.00     0.031 A 
HETATM    3  C   UNL     1      24.332  48.216  49.887  1.00  0.00     0.032 A 
HETATM    4  C   UNL     1      24.464  46.831  49.932  1.00  0.00     0.034 A 
HETATM    5  C   UNL     1      23.549  46.049  49.235  1.00  0.00     0.032 A 
HETATM    6  C   UNL     1      22.455  46.650  48.590  1.00  0.00     0.031 A 
ENDROOT
BRANCH   4   7
HETATM    7  N   UNL     1      25.528  46.206  50.619  1.00  0.00    -0.333 N 
HETATM    8  H   UNL     1      26.349  46.778  50.773  1.00  0.00     0.168 HD
BRANCH   7   9
HETATM    9  C   UNL     1      25.711  44.829  50.773  1.00  0.00     0.179 C 
HETATM   10  S   UNL     1      26.573  43.862  49.708  1.00  0.00    -0.040 SA
BRANCH   9  11
HETATM   11  N   UNL     1      25.096  44.390  51.958  1.00  0.00    -0.299 N 
HETATM   12  C   UNL     1      25.563  44.156  53.253  1.00  0.00     0.260 C 
HETATM   13  O   UNL     1      24.794  44.231  54.206  1.00  0.00    -0.267 OA
HETATM   14  H   UNL     1      24.089  44.461  51.961  1.00  0.00     0.171 HD
BRANCH  12  15
HETATM   15  C   UNL     1      26.961  43.712  53.444  1.00  0.00     0.067 A 
HETATM   16  C   UNL     1      27.896  44.529  54.096  1.00  0.00     0.084 A 
HETATM   17  C   UNL     1      29.215  44.080  54.230  1.00  0.00     0.039 A 
HETATM   18  C   UNL     1      29.582  42.816  53.757  1.00  0.00     0.026 A 
HETATM   19  C   UNL     1      28.632  41.997  53.149  1.00  0.00     0.035 A 
HETATM   20 CL   UNL     1      29.089  40.444  52.568  1.00  0.00    -0.084 Cl
HETATM   21  C   UNL     1      27.320  42.432  52.995  1.00  0.00     0.043 A 
BRANCH  16  22
HETATM   22  O   UNL     1      27.504  45.781  54.488  1.00  0.00    -0.355 OA
HETATM   23  C   UNL     1      28.400  46.422  55.391  1.00  0.00     0.210 C 
ENDBRANCH  16  22
ENDBRANCH  12  15
ENDBRANCH   9  11
ENDBRANCH   7   9
ENDBRANCH   4   7
BRANCH   1  24
HETATM   24  N   UNL     1      21.110  48.610  48.029  1.00  0.00    -0.378 N 
HETATM   25  C   UNL     1      20.323  47.786  47.087  1.00  0.00     0.143 C 
HETATM   26  C   UNL     1      18.883  48.330  46.965  1.00  0.00     0.145 C 
HETATM   27  N   UNL     1      18.820  49.773  46.693  1.00  0.00    -0.349 N 
HETATM   28  C   UNL     1      17.692  50.411  46.179  1.00  0.00     0.219 C 
HETATM   29  C   UNL     1      19.712  50.597  47.513  1.00  0.00     0.145 C 
HETATM   30  O   UNL     1      17.580  51.637  46.187  1.00  0.00    -0.273 OA
HETATM   31  C   UNL     1      21.135  50.037  47.642  1.00  0.00     0.143 C 
BRANCH  28  32
HETATM   32  C   UNL     1      16.603  49.524  45.597  1.00  0.00     0.103 C 
BRANCH  32  33
HETATM   33  C   UNL     1      15.415  49.376  46.550  1.00  0.00     0.005 C 
HETATM   34  C   UNL     1      14.135  49.042  45.803  1.00  0.00     0.005 C 
ENDBRANCH  32  33
ENDBRANCH  28  32
ENDBRANCH   1  24
TORSDOF 8
ENDMDL
MODEL 10
REMARK VINA RESULT:      -7.1     20.525     22.958
REMARK  8 active torsions:
REMARK  status: ('A' for Active; 'I' for Inactive)
REMARK    1  A    between atoms: C_2  and  C_3 
REMARK    2  A    between atoms: C_3  and  C_4 
REMARK       I    between atoms: C_4  and  N_5 
REMARK    3  A    between atoms: N_8  and  C_9 
REMARK    4  A    between atoms: C_12  and  N_13 
REMARK    5  A    between atoms: N_13  and  C_14 
REMARK    6  A    between atoms: C_14  and  N_15 
REMARK       I    between atoms: N_15  and  C_16 
REMARK    7  A    between atoms: C_16  and  C_17 
REMARK    8  A    between atoms: C_18  and  O_19 
ROOT
HETATM    1  C   UNL     1      40.905  43.453  65.494  1.00  0.00     0.030 A 
HETATM    2  C   UNL     1      41.004  43.894  64.167  1.00  0.00     0.031 A 
HETATM    3  C   UNL     1      40.885  45.245  63.822  1.00  0.00     0.032 A 
HETATM    4  C   UNL     1      40.660  46.209  64.801  1.00  0.00     0.034 A 
HETATM    5  C   UNL     1      40.638  45.814  66.134  1.00  0.00     0.032 A 
HETATM    6  C   UNL     1      40.736  44.453  66.468  1.00  0.00     0.031 A 
ENDROOT
BRANCH   4   7
HETATM    7  N   UNL     1      40.508  47.575  64.480  1.00  0.00    -0.333 N 
HETATM    8  H   UNL     1      41.306  48.017  64.040  1.00  0.00     0.168 HD
BRANCH   7   9
HETATM    9  C   UNL     1      39.557  48.446  65.020  1.00  0.00     0.179 C 
HETATM   10  S   UNL     1      39.764  49.317  66.437  1.00  0.00    -0.040 SA
BRANCH   9  11
HETATM   11  N   UNL     1      38.426  48.501  64.187  1.00  0.00    -0.299 N 
HETATM   12  C   UNL     1      37.202  47.830  64.182  1.00  0.00     0.260 C 
HETATM   13  O   UNL     1      36.217  48.354  63.668  1.00  0.00    -0.267 OA
HETATM   14  H   UNL     1      38.371  49.327  63.607  1.00  0.00     0.171 HD
BRANCH  12  15
HETATM   15  C   UNL     1      37.138  46.448  64.701  1.00  0.00     0.067 A 
HETATM   16  C   UNL     1      36.906  46.196  66.061  1.00  0.00     0.084 A 
HETATM   17  C   UNL     1      36.880  44.871  66.513  1.00  0.00     0.039 A 
HETATM   18  C   UNL     1      37.042  43.815  65.611  1.00  0.00     0.026 A 
HETATM   19  C   UNL     1      37.230  44.078  64.256  1.00  0.00     0.035 A 
HETATM   20 CL   UNL     1      37.431  42.774  63.151  1.00  0.00    -0.084 Cl
HETATM   21  C   UNL     1      37.271  45.388  63.791  1.00  0.00     0.043 A 
BRANCH  16  22
HETATM   22  O   UNL     1      36.813  47.264  66.912  1.00  0.00    -0.355 OA
HETATM   23  C   UNL     1      35.480  47.602  67.287  1.00  0.00     0.210 C 
ENDBRANCH  16  22
ENDBRANCH  12  15
ENDBRANCH   9  11
ENDBRANCH   7   9
ENDBRANCH   4   7
BRANCH   1  24
HETATM   24  N   UNL     1      40.884  42.097  65.841  1.00  0.00    -0.378 N 
HETATM   25  C   UNL     1      40.111  41.180  64.978  1.00  0.00     0.143 C 
HETATM   26  C   UNL     1      40.574  39.722  65.185  1.00  0.00     0.145 C 
HETATM   27  N   UNL     1      40.623  39.314  66.596  1.00  0.00    -0.349 N 
HETATM   28  C   UNL     1      40.639  37.985  67.013  1.00  0.00     0.219 C 
HETATM   29  C   UNL     1      41.249  40.284  67.499  1.00  0.00     0.145 C 
HETATM   30  O   UNL     1      40.921  37.671  68.171  1.00  0.00    -0.273 OA
HETATM   31  C   UNL     1      40.796  41.732  67.271  1.00  0.00     0.143 C 
BRANCH  28  32
HETATM   32  C   UNL     1      40.284  36.932  65.976  1.00  0.00     0.103 C 
BRANCH  32  33
HETATM   33  C   UNL     1      39.634  35.701  66.610  1.00  0.00     0.005 C 
HETATM   34  C   UNL     1      40.345  34.420  66.207  1.00  0.00     0.005 C 
ENDBRANCH  32  33
ENDBRANCH  28  32
ENDBRANCH   1  24
TORSDOF 8
ENDMDL
