MODEL 1
REMARK VINA RESULT:      -9.0      0.000      0.000
REMARK  7 active torsions:
REMARK  status: ('A' for Active; 'I' for Inactive)
REMARK    1  A    between atoms: C_3  and  O_4 
REMARK    2  A    between atoms: C_8  and  C_9 
REMARK    3  A    between atoms: C_9  and  N_10 
REMARK    4  A    between atoms: C_15  and  O_16 
REMARK    5  A    between atoms: C_18  and  N_19 
REMARK       I    between atoms: N_19  and  C_20 
REMARK    6  A    between atoms: C_20  and  C_21 
REMARK    7  A    between atoms: C_21  and  C_22 
ROOT
HETATM    1  N   UNL     1      20.453  49.440  48.409  1.00  0.00    -0.067 N 
HETATM    2  H   UNL     1      19.485  49.114  48.519  1.00  0.00     0.280 HD
HETATM    3  C   UNL     1      21.134  48.378  47.575  1.00  0.00     0.236 C 
HETATM    4  C   UNL     1      22.643  48.596  47.535  1.00  0.00     0.045 C 
HETATM    5  C   UNL     1      23.278  48.711  48.943  1.00  0.00     0.019 A 
HETATM    6  C   UNL     1      23.333  47.335  49.735  1.00  0.00     0.161 A 
HETATM    7  C   UNL     1      24.827  47.064  50.123  1.00  0.00     0.148 A 
HETATM    8  C   UNL     1      25.576  48.205  49.507  1.00  0.00    -0.026 A 
HETATM    9  C   UNL     1      24.739  49.099  48.839  1.00  0.00    -0.038 A 
HETATM   10  C   UNL     1      26.955  48.393  49.524  1.00  0.00     0.010 A 
HETATM   11  C   UNL     1      27.495  49.503  48.876  1.00  0.00     0.001 A 
HETATM   12  C   UNL     1      26.659  50.408  48.215  1.00  0.00     0.001 A 
HETATM   13  C   UNL     1      25.278  50.210  48.194  1.00  0.00     0.009 A 
HETATM   14  C   UNL     1      22.518  49.795  49.739  1.00  0.00     0.045 C 
HETATM   15  C   UNL     1      21.025  49.514  49.802  1.00  0.00     0.236 C 
ENDROOT
BRANCH   6  16
HETATM   16  O   UNL     1      22.810  46.276  48.904  1.00  0.00    -0.387 OA
HETATM   17  C   UNL     1      23.669  45.138  48.843  1.00  0.00     0.202 C 
ENDBRANCH   6  16
BRANCH   7  18
HETATM   18  N   UNL     1      25.134  46.899  51.538  1.00  0.00    -0.350 N 
HETATM   19  C   UNL     1      25.805  45.829  52.079  1.00  0.00     0.223 C 
HETATM   20  O   UNL     1      26.468  45.055  51.385  1.00  0.00    -0.273 OA
HETATM   21  H   UNL     1      24.513  47.402  52.163  1.00  0.00     0.163 HD
BRANCH  19  22
HETATM   22  C   UNL     1      25.741  45.612  53.589  1.00  0.00     0.148 C 
BRANCH  22  23
HETATM   23  C   UNL     1      27.063  45.618  54.298  1.00  0.00    -0.009 A 
HETATM   24  S   UNL     1      27.663  47.064  54.999  1.00  0.00    -0.106 SA
HETATM   25  C   UNL     1      29.060  46.275  55.588  1.00  0.00     0.050 A 
HETATM   26  C   UNL     1      29.066  44.935  55.273  1.00  0.00     0.008 A 
HETATM   27  C   UNL     1      27.913  44.554  54.529  1.00  0.00     0.015 A 
ENDBRANCH  22  23
ENDBRANCH  19  22
ENDBRANCH   7  18
BRANCH   1  28
HETATM   28  C   UNL     1      20.326  50.799  47.748  1.00  0.00     0.273 C 
BRANCH  28  29
HETATM   29  C   UNL     1      18.922  51.335  47.714  1.00  0.00    -0.031 A 
HETATM   30  C   UNL     1      18.349  51.914  48.855  1.00  0.00     0.018 A 
HETATM   31  C   UNL     1      17.042  52.422  48.826  1.00  0.00    -0.028 A 
HETATM   32  C   UNL     1      16.323  52.383  47.623  1.00  0.00     0.077 A 
HETATM   33  C   UNL     1      16.475  53.072  50.058  1.00  0.00     0.051 C 
HETATM   34  C   UNL     1      16.875  51.821  46.463  1.00  0.00    -0.028 A 
HETATM   35  C   UNL     1      16.128  51.778  45.160  1.00  0.00     0.051 C 
HETATM   36  C   UNL     1      18.174  51.290  46.527  1.00  0.00     0.018 A 
BRANCH  32  37
HETATM   37  O   UNL     1      15.068  52.922  47.634  1.00  0.00    -0.360 OA
HETATM   38  H   UNL     1      15.070  53.787  48.073  1.00  0.00     0.217 HD
ENDBRANCH  32  37
ENDBRANCH  28  29
ENDBRANCH   1  28
TORSDOF 7
ENDMDL
MODEL 2
REMARK VINA RESULT:      -8.7      3.574     10.737
REMARK  7 active torsions:
REMARK  status: ('A' for Active; 'I' for Inactive)
REMARK    1  A    between atoms: C_3  and  O_4 
REMARK    2  A    between atoms: C_8  and  C_9 
REMARK    3  A    between atoms: C_9  and  N_10 
REMARK    4  A    between atoms: C_15  and  O_16 
REMARK    5  A    between atoms: C_18  and  N_19 
REMARK       I    between atoms: N_19  and  C_20 
REMARK    6  A    between atoms: C_20  and  C_21 
REMARK    7  A    between atoms: C_21  and  C_22 
ROOT
HETATM    1  N   UNL     1      26.683  45.316  52.440  1.00  0.00    -0.067 N 
HETATM    2  H   UNL     1      26.994  46.131  52.982  1.00  0.00     0.280 HD
HETATM    3  C   UNL     1      27.022  45.648  51.003  1.00  0.00     0.236 C 
HETATM    4  C   UNL     1      26.395  44.641  50.045  1.00  0.00     0.045 C 
HETATM    5  C   UNL     1      24.869  44.478  50.247  1.00  0.00     0.019 A 
HETATM    6  C   UNL     1      24.019  45.725  49.752  1.00  0.00     0.161 A 
HETATM    7  C   UNL     1      22.977  45.209  48.703  1.00  0.00     0.148 A 
HETATM    8  C   UNL     1      23.286  43.749  48.568  1.00  0.00    -0.026 A 
HETATM    9  C   UNL     1      24.335  43.345  49.393  1.00  0.00    -0.038 A 
HETATM   10  C   UNL     1      22.665  42.849  47.708  1.00  0.00     0.010 A 
HETATM   11  C   UNL     1      23.094  41.523  47.692  1.00  0.00     0.001 A 
HETATM   12  C   UNL     1      24.138  41.110  48.524  1.00  0.00     0.001 A 
HETATM   13  C   UNL     1      24.763  42.019  49.379  1.00  0.00     0.009 A 
HETATM   14  C   UNL     1      24.601  44.164  51.736  1.00  0.00     0.045 C 
HETATM   15  C   UNL     1      25.194  45.218  52.657  1.00  0.00     0.236 C 
ENDROOT
BRANCH   6  16
HETATM   16  O   UNL     1      24.899  46.711  49.170  1.00  0.00    -0.387 OA
HETATM   17  C   UNL     1      24.580  48.045  49.561  1.00  0.00     0.202 C 
ENDBRANCH   6  16
BRANCH   7  18
HETATM   18  N   UNL     1      21.567  45.454  48.980  1.00  0.00    -0.350 N 
HETATM   19  C   UNL     1      20.672  46.000  48.092  1.00  0.00     0.223 C 
HETATM   20  O   UNL     1      20.906  46.061  46.883  1.00  0.00    -0.273 OA
HETATM   21  H   UNL     1      21.346  45.563  49.965  1.00  0.00     0.163 HD
BRANCH  19  22
HETATM   22  C   UNL     1      19.340  46.525  48.624  1.00  0.00     0.148 C 
BRANCH  22  23
HETATM   23  C   UNL     1      19.405  47.846  49.331  1.00  0.00    -0.009 A 
HETATM   24  S   UNL     1      20.534  49.040  48.837  1.00  0.00    -0.106 SA
HETATM   25  C   UNL     1      19.976  50.147  50.013  1.00  0.00     0.050 A 
HETATM   26  C   UNL     1      18.941  49.629  50.759  1.00  0.00     0.008 A 
HETATM   27  C   UNL     1      18.610  48.301  50.365  1.00  0.00     0.015 A 
ENDBRANCH  22  23
ENDBRANCH  19  22
ENDBRANCH   7  18
BRANCH   1  28
HETATM   28  C   UNL     1      27.446  44.148  53.030  1.00  0.00     0.273 C 
BRANCH  28  29
HETATM   29  C   UNL     1      28.281  44.505  54.230  1.00  0.00    -0.031 A 
HETATM   30  C   UNL     1      27.867  45.511  55.116  1.00  0.00     0.018 A 
HETATM   31  C   UNL     1      28.637  45.842  56.239  1.00  0.00    -0.028 A 
HETATM   32  C   UNL     1      29.814  45.124  56.494  1.00  0.00     0.077 A 
HETATM   33  C   UNL     1      28.142  46.899  57.188  1.00  0.00     0.051 C 
HETATM   34  C   UNL     1      30.245  44.105  55.633  1.00  0.00    -0.028 A 
HETATM   35  C   UNL     1      31.497  43.314  55.891  1.00  0.00     0.051 C 
HETATM   36  C   UNL     1      29.472  43.813  54.497  1.00  0.00     0.018 A 
BRANCH  32  37
HETATM   37  O   UNL     1      30.512  45.458  57.620  1.00  0.00    -0.360 OA
HETATM   38  H   UNL     1      30.997  46.288  57.490  1.00  0.00     0.217 HD
ENDBRANCH  32  37
ENDBRANCH  28  29
ENDBRANCH   1  28
TORSDOF 7
ENDMDL
MODEL 3
REMARK VINA RESULT:      -8.6      3.149     10.669
REMARK  7 active torsions:
REMARK  status: ('A' for Active; 'I' for Inactive)
REMARK    1  A    between atoms: C_3  and  O_4 
REMARK    2  A    between atoms: C_8  and  C_9 
REMARK    3  A    between atoms: C_9  and  N_10 
REMARK    4  A    between atoms: C_15  and  O_16 
REMARK    5  A    between atoms: C_18  and  N_19 
REMARK       I    between atoms: N_19  and  C_20 
REMARK    6  A    between atoms: C_20  and  C_21 
REMARK    7  A    between atoms: C_21  and  C_22 
ROOT
HETATM    1  N   UNL     1      26.499  45.686  51.984  1.00  0.00    -0.067 N 
HETATM    2  H   UNL     1      26.937  46.426  52.545  1.00  0.00     0.280 HD
HETATM    3  C   UNL     1      26.826  46.034  50.549  1.00  0.00     0.236 C 
HETATM    4  C   UNL     1      26.034  45.165  49.579  1.00  0.00     0.045 C 
HETATM    5  C   UNL     1      24.508  45.197  49.839  1.00  0.00     0.019 A 
HETATM    6  C   UNL     1      23.816  46.568  49.431  1.00  0.00     0.161 A 
HETATM    7  C   UNL     1      22.676  46.243  48.408  1.00  0.00     0.148 A 
HETATM    8  C   UNL     1      22.780  44.763  48.202  1.00  0.00    -0.026 A 
HETATM    9  C   UNL     1      23.795  44.186  48.965  1.00  0.00    -0.038 A 
HETATM   10  C   UNL     1      22.012  43.994  47.334  1.00  0.00     0.010 A 
HETATM   11  C   UNL     1      22.257  42.624  47.246  1.00  0.00     0.001 A 
HETATM   12  C   UNL     1      23.266  42.039  48.016  1.00  0.00     0.001 A 
HETATM   13  C   UNL     1      24.039  42.816  48.879  1.00  0.00     0.009 A 
HETATM   14  C   UNL     1      24.255  44.854  51.325  1.00  0.00     0.045 C 
HETATM   15  C   UNL     1      25.019  45.777  52.261  1.00  0.00     0.236 C 
ENDROOT
BRANCH   6  16
HETATM   16  O   UNL     1      24.800  47.453  48.853  1.00  0.00    -0.387 OA
HETATM   17  C   UNL     1      24.534  48.830  49.113  1.00  0.00     0.202 C 
ENDBRANCH   6  16
BRANCH   7  18
HETATM   18  N   UNL     1      21.323  46.661  48.755  1.00  0.00    -0.350 N 
HETATM   19  C   UNL     1      20.452  47.298  47.905  1.00  0.00     0.223 C 
HETATM   20  O   UNL     1      20.624  47.312  46.684  1.00  0.00    -0.273 OA
HETATM   21  H   UNL     1      21.173  46.811  49.748  1.00  0.00     0.163 HD
BRANCH  19  22
HETATM   22  C   UNL     1      19.225  47.989  48.495  1.00  0.00     0.148 C 
BRANCH  22  23
HETATM   23  C   UNL     1      19.378  49.456  48.763  1.00  0.00    -0.009 A 
HETATM   24  S   UNL     1      18.685  50.159  50.166  1.00  0.00    -0.106 SA
HETATM   25  C   UNL     1      19.300  51.705  49.774  1.00  0.00     0.050 A 
HETATM   26  C   UNL     1      20.032  51.688  48.609  1.00  0.00     0.008 A 
HETATM   27  C   UNL     1      20.078  50.390  48.024  1.00  0.00     0.015 A 
ENDBRANCH  22  23
ENDBRANCH  19  22
ENDBRANCH   7  18
BRANCH   1  28
HETATM   28  C   UNL     1      27.119  44.400  52.494  1.00  0.00     0.273 C 
BRANCH  28  29
HETATM   29  C   UNL     1      27.970  44.576  53.722  1.00  0.00    -0.031 A 
HETATM   30  C   UNL     1      29.102  43.773  53.928  1.00  0.00     0.018 A 
HETATM   31  C   UNL     1      29.902  43.938  55.068  1.00  0.00    -0.028 A 
HETATM   32  C   UNL     1      29.582  44.948  55.986  1.00  0.00     0.077 A 
HETATM   33  C   UNL     1      31.131  43.085  55.236  1.00  0.00     0.051 C 
HETATM   34  C   UNL     1      28.464  45.773  55.798  1.00  0.00    -0.028 A 
HETATM   35  C   UNL     1      28.107  46.869  56.763  1.00  0.00     0.051 C 
HETATM   36  C   UNL     1      27.660  45.567  54.665  1.00  0.00     0.018 A 
BRANCH  32  37
HETATM   37  O   UNL     1      30.412  45.093  57.061  1.00  0.00    -0.360 OA
HETATM   38  H   UNL     1      30.542  44.244  57.511  1.00  0.00     0.217 HD
ENDBRANCH  32  37
ENDBRANCH  28  29
ENDBRANCH   1  28
TORSDOF 7
ENDMDL
MODEL 4
REMARK VINA RESULT:      -8.4      2.205      3.302
REMARK  7 active torsions:
REMARK  status: ('A' for Active; 'I' for Inactive)
REMARK    1  A    between atoms: C_3  and  O_4 
REMARK    2  A    between atoms: C_8  and  C_9 
REMARK    3  A    between atoms: C_9  and  N_10 
REMARK    4  A    between atoms: C_15  and  O_16 
REMARK    5  A    between atoms: C_18  and  N_19 
REMARK       I    between atoms: N_19  and  C_20 
REMARK    6  A    between atoms: C_20  and  C_21 
REMARK    7  A    between atoms: C_21  and  C_22 
ROOT
HETATM    1  N   UNL     1      17.581  48.555  48.433  1.00  0.00    -0.067 N 
HETATM    2  H   UNL     1      16.752  47.949  48.435  1.00  0.00     0.280 HD
HETATM    3  C   UNL     1      18.328  48.195  47.167  1.00  0.00     0.236 C 
HETATM    4  C   UNL     1      19.712  48.835  47.145  1.00  0.00     0.045 C 
HETATM    5  C   UNL     1      20.548  48.518  48.409  1.00  0.00     0.019 A 
HETATM    6  C   UNL     1      21.063  47.017  48.479  1.00  0.00     0.161 A 
HETATM    7  C   UNL     1      22.623  47.051  48.613  1.00  0.00     0.148 A 
HETATM    8  C   UNL     1      22.963  48.509  48.546  1.00  0.00    -0.026 A 
HETATM    9  C   UNL     1      21.835  49.318  48.412  1.00  0.00    -0.038 A 
HETATM   10  C   UNL     1      24.241  49.061  48.568  1.00  0.00     0.010 A 
HETATM   11  C   UNL     1      24.381  50.444  48.471  1.00  0.00     0.001 A 
HETATM   12  C   UNL     1      23.253  51.260  48.348  1.00  0.00     0.001 A 
HETATM   13  C   UNL     1      21.976  50.701  48.318  1.00  0.00     0.009 A 
HETATM   14  C   UNL     1      19.714  48.891  49.656  1.00  0.00     0.045 C 
HETATM   15  C   UNL     1      18.364  48.192  49.669  1.00  0.00     0.236 C 
ENDROOT
BRANCH   6  16
HETATM   16  O   UNL     1      20.657  46.310  47.286  1.00  0.00    -0.387 OA
HETATM   17  C   UNL     1      21.742  45.660  46.627  1.00  0.00     0.202 C 
ENDBRANCH   6  16
BRANCH   7  18
HETATM   18  N   UNL     1      23.212  46.397  49.775  1.00  0.00    -0.350 N 
HETATM   19  C   UNL     1      24.267  45.518  49.734  1.00  0.00     0.223 C 
HETATM   20  O   UNL     1      25.003  45.427  48.749  1.00  0.00    -0.273 OA
HETATM   21  H   UNL     1      22.586  46.311  50.569  1.00  0.00     0.163 HD
BRANCH  19  22
HETATM   22  C   UNL     1      24.542  44.646  50.957  1.00  0.00     0.148 C 
BRANCH  22  23
HETATM   23  C   UNL     1      25.123  45.361  52.141  1.00  0.00    -0.009 A 
HETATM   24  S   UNL     1      25.505  44.498  53.573  1.00  0.00    -0.106 SA
HETATM   25  C   UNL     1      26.101  45.905  54.338  1.00  0.00     0.050 A 
HETATM   26  C   UNL     1      26.027  47.009  53.519  1.00  0.00     0.008 A 
HETATM   27  C   UNL     1      25.463  46.695  52.249  1.00  0.00     0.015 A 
ENDBRANCH  22  23
ENDBRANCH  19  22
ENDBRANCH   7  18
BRANCH   1  28
HETATM   28  C   UNL     1      17.026  49.965  48.476  1.00  0.00     0.273 C 
BRANCH  28  29
HETATM   29  C   UNL     1      16.368  50.404  47.197  1.00  0.00    -0.031 A 
HETATM   30  C   UNL     1      15.230  49.741  46.713  1.00  0.00     0.018 A 
HETATM   31  C   UNL     1      14.610  50.151  45.525  1.00  0.00    -0.028 A 
HETATM   32  C   UNL     1      15.116  51.266  44.841  1.00  0.00     0.077 A 
HETATM   33  C   UNL     1      13.368  49.441  45.057  1.00  0.00     0.051 C 
HETATM   34  C   UNL     1      16.243  51.955  45.309  1.00  0.00    -0.028 A 
HETATM   35  C   UNL     1      16.798  53.159  44.599  1.00  0.00     0.051 C 
HETATM   36  C   UNL     1      16.867  51.505  46.484  1.00  0.00     0.018 A 
BRANCH  32  37
HETATM   37  O   UNL     1      14.455  51.649  43.708  1.00  0.00    -0.360 OA
HETATM   38  H   UNL     1      14.924  52.375  43.267  1.00  0.00     0.217 HD
ENDBRANCH  32  37
ENDBRANCH  28  29
ENDBRANCH   1  28
TORSDOF 7
ENDMDL
MODEL 5
REMARK VINA RESULT:      -8.3      2.767      4.007
REMARK  7 active torsions:
REMARK  status: ('A' for Active; 'I' for Inactive)
REMARK    1  A    between atoms: C_3  and  O_4 
REMARK    2  A    between atoms: C_8  and  C_9 
REMARK    3  A    between atoms: C_9  and  N_10 
REMARK    4  A    between atoms: C_15  and  O_16 
REMARK    5  A    between atoms: C_18  and  N_19 
REMARK       I    between atoms: N_19  and  C_20 
REMARK    6  A    between atoms: C_20  and  C_21 
REMARK    7  A    between atoms: C_21  and  C_22 
ROOT
HETATM    1  N   UNL     1      17.500  50.659  49.332  1.00  0.00    -0.067 N 
HETATM    2  H   UNL     1      16.509  50.399  49.395  1.00  0.00     0.280 HD
HETATM    3  C   UNL     1      17.895  50.361  47.902  1.00  0.00     0.236 C 
HETATM    4  C   UNL     1      19.405  50.462  47.717  1.00  0.00     0.045 C 
HETATM    5  C   UNL     1      20.200  49.592  48.721  1.00  0.00     0.019 A 
HETATM    6  C   UNL     1      20.104  48.032  48.435  1.00  0.00     0.161 A 
HETATM    7  C   UNL     1      21.563  47.486  48.264  1.00  0.00     0.148 A 
HETATM    8  C   UNL     1      22.425  48.705  48.378  1.00  0.00    -0.026 A 
HETATM    9  C   UNL     1      21.686  49.866  48.605  1.00  0.00    -0.038 A 
HETATM   10  C   UNL     1      23.809  48.754  48.241  1.00  0.00     0.010 A 
HETATM   11  C   UNL     1      24.457  49.983  48.352  1.00  0.00     0.001 A 
HETATM   12  C   UNL     1      23.722  51.148  48.591  1.00  0.00     0.001 A 
HETATM   13  C   UNL     1      22.334  51.094  48.719  1.00  0.00     0.009 A 
HETATM   14  C   UNL     1      19.728  49.936  50.152  1.00  0.00     0.045 C 
HETATM   15  C   UNL     1      18.225  49.772  50.312  1.00  0.00     0.236 C 
ENDROOT
BRANCH   6  16
HETATM   16  O   UNL     1      19.320  47.805  47.244  1.00  0.00    -0.387 OA
HETATM   17  C   UNL     1      19.981  46.977  46.289  1.00  0.00     0.202 C 
ENDBRANCH   6  16
BRANCH   7  18
HETATM   18  N   UNL     1      21.989  46.419  49.161  1.00  0.00    -0.350 N 
HETATM   19  C   UNL     1      22.556  45.232  48.761  1.00  0.00     0.223 C 
HETATM   20  O   UNL     1      23.026  45.081  47.632  1.00  0.00    -0.273 OA
HETATM   21  H   UNL     1      21.515  46.411  50.058  1.00  0.00     0.163 HD
BRANCH  19  22
HETATM   22  C   UNL     1      22.620  44.079  49.760  1.00  0.00     0.148 C 
BRANCH  22  23
HETATM   23  C   UNL     1      23.893  43.976  50.545  1.00  0.00    -0.009 A 
HETATM   24  S   UNL     1      24.832  42.542  50.491  1.00  0.00    -0.106 SA
HETATM   25  C   UNL     1      26.021  43.204  51.525  1.00  0.00     0.050 A 
HETATM   26  C   UNL     1      25.722  44.496  51.894  1.00  0.00     0.008 A 
HETATM   27  C   UNL     1      24.493  44.943  51.328  1.00  0.00     0.015 A 
ENDBRANCH  22  23
ENDBRANCH  19  22
ENDBRANCH   7  18
BRANCH   1  28
HETATM   28  C   UNL     1      17.537  52.124  49.720  1.00  0.00     0.273 C 
BRANCH  28  29
HETATM   29  C   UNL     1      16.243  52.853  49.486  1.00  0.00    -0.031 A 
HETATM   30  C   UNL     1      15.568  53.472  50.548  1.00  0.00     0.018 A 
HETATM   31  C   UNL     1      14.364  54.159  50.334  1.00  0.00    -0.028 A 
HETATM   32  C   UNL     1      13.859  54.257  49.030  1.00  0.00     0.077 A 
HETATM   33  C   UNL     1      13.690  54.844  51.491  1.00  0.00     0.051 C 
HETATM   34  C   UNL     1      14.519  53.659  47.948  1.00  0.00    -0.028 A 
HETATM   35  C   UNL     1      14.002  53.760  46.539  1.00  0.00     0.051 C 
HETATM   36  C   UNL     1      15.706  52.950  48.193  1.00  0.00     0.018 A 
BRANCH  32  37
HETATM   37  O   UNL     1      12.703  54.967  48.866  1.00  0.00    -0.360 OA
HETATM   38  H   UNL     1      12.627  55.659  49.541  1.00  0.00     0.217 HD
ENDBRANCH  32  37
ENDBRANCH  28  29
ENDBRANCH   1  28
TORSDOF 7
ENDMDL
MODEL 6
REMARK VINA RESULT:      -8.3      8.078     11.971
REMARK  7 active torsions:
REMARK  status: ('A' for Active; 'I' for Inactive)
REMARK    1  A    between atoms: C_3  and  O_4 
REMARK    2  A    between atoms: C_8  and  C_9 
REMARK    3  A    between atoms: C_9  and  N_10 
REMARK    4  A    between atoms: C_15  and  O_16 
REMARK    5  A    between atoms: C_18  and  N_19 
REMARK       I    between atoms: N_19  and  C_20 
REMARK    6  A    between atoms: C_20  and  C_21 
REMARK    7  A    between atoms: C_21  and  C_22 
ROOT
HETATM    1  N   UNL     1      26.810  42.034  51.652  1.00  0.00    -0.067 N 
HETATM    2  H   UNL     1      26.377  42.198  52.568  1.00  0.00     0.280 HD
HETATM    3  C   UNL     1      26.130  43.008  50.715  1.00  0.00     0.236 C 
HETATM    4  C   UNL     1      26.490  42.714  49.263  1.00  0.00     0.045 C 
HETATM    5  C   UNL     1      26.217  41.246  48.854  1.00  0.00     0.019 A 
HETATM    6  C   UNL     1      24.674  40.895  48.714  1.00  0.00     0.161 A 
HETATM    7  C   UNL     1      24.437  40.345  47.267  1.00  0.00     0.148 A 
HETATM    8  C   UNL     1      25.778  40.457  46.609  1.00  0.00    -0.026 A 
HETATM    9  C   UNL     1      26.753  40.971  47.463  1.00  0.00    -0.038 A 
HETATM   10  C   UNL     1      26.079  40.142  45.287  1.00  0.00     0.010 A 
HETATM   11  C   UNL     1      27.381  40.330  44.827  1.00  0.00     0.001 A 
HETATM   12  C   UNL     1      28.365  40.834  45.682  1.00  0.00     0.001 A 
HETATM   13  C   UNL     1      28.056  41.155  47.004  1.00  0.00     0.009 A 
HETATM   14  C   UNL     1      26.922  40.315  49.866  1.00  0.00     0.045 C 
HETATM   15  C   UNL     1      26.498  40.602  51.297  1.00  0.00     0.236 C 
ENDROOT
BRANCH   6  16
HETATM   16  O   UNL     1      23.884  42.078  48.959  1.00  0.00    -0.387 OA
HETATM   17  C   UNL     1      22.857  42.275  47.988  1.00  0.00     0.202 C 
ENDBRANCH   6  16
BRANCH   7  18
HETATM   18  N   UNL     1      23.867  39.009  47.141  1.00  0.00    -0.350 N 
HETATM   19  C   UNL     1      22.827  38.672  46.307  1.00  0.00     0.223 C 
HETATM   20  O   UNL     1      22.475  39.398  45.375  1.00  0.00    -0.273 OA
HETATM   21  H   UNL     1      24.001  38.418  47.954  1.00  0.00     0.163 HD
BRANCH  19  22
HETATM   22  C   UNL     1      22.107  37.345  46.537  1.00  0.00     0.148 C 
BRANCH  22  23
HETATM   23  C   UNL     1      20.759  37.448  47.188  1.00  0.00    -0.009 A 
HETATM   24  S   UNL     1      19.942  36.037  47.719  1.00  0.00    -0.106 SA
HETATM   25  C   UNL     1      18.629  36.946  48.325  1.00  0.00     0.050 A 
HETATM   26  C   UNL     1      18.811  38.299  48.144  1.00  0.00     0.008 A 
HETATM   27  C   UNL     1      20.042  38.590  47.488  1.00  0.00     0.015 A 
ENDBRANCH  22  23
ENDBRANCH  19  22
ENDBRANCH   7  18
BRANCH   1  28
HETATM   28  C   UNL     1      28.289  42.279  51.877  1.00  0.00     0.273 C 
BRANCH  28  29
HETATM   29  C   UNL     1      28.591  43.157  53.060  1.00  0.00    -0.031 A 
HETATM   30  C   UNL     1      29.632  42.834  53.944  1.00  0.00     0.018 A 
HETATM   31  C   UNL     1      29.922  43.653  55.044  1.00  0.00    -0.028 A 
HETATM   32  C   UNL     1      29.183  44.830  55.231  1.00  0.00     0.077 A 
HETATM   33  C   UNL     1      31.071  43.296  55.947  1.00  0.00     0.051 C 
HETATM   34  C   UNL     1      28.146  45.184  54.357  1.00  0.00    -0.028 A 
HETATM   35  C   UNL     1      27.347  46.446  54.531  1.00  0.00     0.051 C 
HETATM   36  C   UNL     1      27.853  44.330  53.280  1.00  0.00     0.018 A 
BRANCH  32  37
HETATM   37  O   UNL     1      29.526  45.614  56.296  1.00  0.00    -0.360 OA
HETATM   38  H   UNL     1      28.808  45.642  56.948  1.00  0.00     0.217 HD
ENDBRANCH  32  37
ENDBRANCH  28  29
ENDBRANCH   1  28
TORSDOF 7
ENDMDL
MODEL 7
REMARK VINA RESULT:      -8.1      2.738      3.673
REMARK  7 active torsions:
REMARK  status: ('A' for Active; 'I' for Inactive)
REMARK    1  A    between atoms: C_3  and  O_4 
REMARK    2  A    between atoms: C_8  and  C_9 
REMARK    3  A    between atoms: C_9  and  N_10 
REMARK    4  A    between atoms: C_15  and  O_16 
REMARK    5  A    between atoms: C_18  and  N_19 
REMARK       I    between atoms: N_19  and  C_20 
REMARK    6  A    between atoms: C_20  and  C_21 
REMARK    7  A    between atoms: C_21  and  C_22 
ROOT
HETATM    1  N   UNL     1      17.463  48.419  48.347  1.00  0.00    -0.067 N 
HETATM    2  H   UNL     1      16.649  47.794  48.314  1.00  0.00     0.280 HD
HETATM    3  C   UNL     1      18.205  48.166  47.053  1.00  0.00     0.236 C 
HETATM    4  C   UNL     1      19.573  48.840  47.064  1.00  0.00     0.045 C 
HETATM    5  C   UNL     1      20.429  48.458  48.296  1.00  0.00     0.019 A 
HETATM    6  C   UNL     1      20.981  46.969  48.257  1.00  0.00     0.161 A 
HETATM    7  C   UNL     1      22.541  47.033  48.380  1.00  0.00     0.148 A 
HETATM    8  C   UNL     1      22.845  48.499  48.412  1.00  0.00    -0.026 A 
HETATM    9  C   UNL     1      21.696  49.287  48.344  1.00  0.00    -0.038 A 
HETATM   10  C   UNL     1      24.109  49.080  48.462  1.00  0.00     0.010 A 
HETATM   11  C   UNL     1      24.215  50.470  48.460  1.00  0.00     0.001 A 
HETATM   12  C   UNL     1      23.066  51.264  48.403  1.00  0.00     0.001 A 
HETATM   13  C   UNL     1      21.802  50.677  48.345  1.00  0.00     0.009 A 
HETATM   14  C   UNL     1      19.599  48.722  49.573  1.00  0.00     0.045 C 
HETATM   15  C   UNL     1      18.266  47.990  49.548  1.00  0.00     0.236 C 
ENDROOT
BRANCH   6  16
HETATM   16  O   UNL     1      20.581  46.337  47.021  1.00  0.00    -0.387 OA
HETATM   17  C   UNL     1      20.377  44.931  47.154  1.00  0.00     0.202 C 
ENDBRANCH   6  16
BRANCH   7  18
HETATM   18  N   UNL     1      23.157  46.314  49.488  1.00  0.00    -0.350 N 
HETATM   19  C   UNL     1      23.635  45.027  49.425  1.00  0.00     0.223 C 
HETATM   20  O   UNL     1      23.855  44.465  48.350  1.00  0.00    -0.273 OA
HETATM   21  H   UNL     1      22.885  46.648  50.407  1.00  0.00     0.163 HD
BRANCH  19  22
HETATM   22  C   UNL     1      23.919  44.287  50.729  1.00  0.00     0.148 C 
BRANCH  22  23
HETATM   23  C   UNL     1      25.350  43.896  50.951  1.00  0.00    -0.009 A 
HETATM   24  S   UNL     1      25.851  42.272  50.716  1.00  0.00    -0.106 SA
HETATM   25  C   UNL     1      27.474  42.651  51.097  1.00  0.00     0.050 A 
HETATM   26  C   UNL     1      27.638  43.987  51.381  1.00  0.00     0.008 A 
HETATM   27  C   UNL     1      26.412  44.707  51.297  1.00  0.00     0.015 A 
ENDBRANCH  22  23
ENDBRANCH  19  22
ENDBRANCH   7  18
BRANCH   1  28
HETATM   28  C   UNL     1      16.874  49.808  48.493  1.00  0.00     0.273 C 
BRANCH  28  29
HETATM   29  C   UNL     1      16.259  50.349  47.231  1.00  0.00    -0.031 A 
HETATM   30  C   UNL     1      16.834  51.443  46.567  1.00  0.00     0.018 A 
HETATM   31  C   UNL     1      16.269  51.946  45.387  1.00  0.00    -0.028 A 
HETATM   32  C   UNL     1      15.139  51.315  44.850  1.00  0.00     0.077 A 
HETATM   33  C   UNL     1      16.936  53.095  44.682  1.00  0.00     0.051 C 
HETATM   34  C   UNL     1      14.551  50.212  45.485  1.00  0.00    -0.028 A 
HETATM   35  C   UNL     1      13.345  49.512  44.922  1.00  0.00     0.051 C 
HETATM   36  C   UNL     1      15.117  49.746  46.683  1.00  0.00     0.018 A 
BRANCH  32  37
HETATM   37  O   UNL     1      14.646  51.819  43.679  1.00  0.00    -0.360 OA
HETATM   38  H   UNL     1      15.235  52.503  43.325  1.00  0.00     0.217 HD
ENDBRANCH  32  37
ENDBRANCH  28  29
ENDBRANCH   1  28
TORSDOF 7
ENDMDL
MODEL 8
REMARK VINA RESULT:      -8.1      9.498     14.074
REMARK  7 active torsions:
REMARK  status: ('A' for Active; 'I' for Inactive)
REMARK    1  A    between atoms: C_3  and  O_4 
REMARK    2  A    between atoms: C_8  and  C_9 
REMARK    3  A    between atoms: C_9  and  N_10 
REMARK    4  A    between atoms: C_15  and  O_16 
REMARK    5  A    between atoms: C_18  and  N_19 
REMARK       I    between atoms: N_19  and  C_20 
REMARK    6  A    between atoms: C_20  and  C_21 
REMARK    7  A    between atoms: C_21  and  C_22 
ROOT
HETATM    1  N   UNL     1      29.927  49.660  40.333  1.00  0.00    -0.067 N 
HETATM    2  H   UNL     1      30.470  50.471  40.014  1.00  0.00     0.280 HD
HETATM    3  C   UNL     1      29.509  48.944  39.067  1.00  0.00     0.236 C 
HETATM    4  C   UNL     1      28.485  47.855  39.366  1.00  0.00     0.045 C 
HETATM    5  C   UNL     1      27.259  48.373  40.158  1.00  0.00     0.019 A 
HETATM    6  C   UNL     1      26.282  49.287  39.302  1.00  0.00     0.161 A 
HETATM    7  C   UNL     1      24.854  48.646  39.359  1.00  0.00     0.148 A 
HETATM    8  C   UNL     1      25.048  47.391  40.153  1.00  0.00    -0.026 A 
HETATM    9  C   UNL     1      26.367  47.222  40.575  1.00  0.00    -0.038 A 
HETATM   10  C   UNL     1      24.078  46.436  40.439  1.00  0.00     0.010 A 
HETATM   11  C   UNL     1      24.436  45.306  41.174  1.00  0.00     0.001 A 
HETATM   12  C   UNL     1      25.753  45.138  41.609  1.00  0.00     0.001 A 
HETATM   13  C   UNL     1      26.724  46.095  41.312  1.00  0.00     0.009 A 
HETATM   14  C   UNL     1      27.765  49.109  41.419  1.00  0.00     0.045 C 
HETATM   15  C   UNL     1      28.742  50.223  41.077  1.00  0.00     0.236 C 
ENDROOT
BRANCH   6  16
HETATM   16  O   UNL     1      26.762  49.369  37.942  1.00  0.00    -0.387 OA
HETATM   17  C   UNL     1      25.892  48.740  37.003  1.00  0.00     0.202 C 
ENDBRANCH   6  16
BRANCH   7  18
HETATM   18  N   UNL     1      23.769  49.469  39.880  1.00  0.00    -0.350 N 
HETATM   19  C   UNL     1      22.864  50.160  39.110  1.00  0.00     0.223 C 
HETATM   20  O   UNL     1      22.704  49.914  37.912  1.00  0.00    -0.273 OA
HETATM   21  H   UNL     1      23.926  49.825  40.817  1.00  0.00     0.163 HD
BRANCH  19  22
HETATM   22  C   UNL     1      22.023  51.250  39.770  1.00  0.00     0.148 C 
BRANCH  22  23
HETATM   23  C   UNL     1      20.778  50.774  40.458  1.00  0.00    -0.009 A 
HETATM   24  S   UNL     1      20.448  49.096  40.592  1.00  0.00    -0.106 SA
HETATM   25  C   UNL     1      19.007  49.383  41.463  1.00  0.00     0.050 A 
HETATM   26  C   UNL     1      18.785  50.726  41.665  1.00  0.00     0.008 A 
HETATM   27  C   UNL     1      19.808  51.531  41.086  1.00  0.00     0.015 A 
ENDBRANCH  22  23
ENDBRANCH  19  22
ENDBRANCH   7  18
BRANCH   1  28
HETATM   28  C   UNL     1      30.877  48.890  41.228  1.00  0.00     0.273 C 
BRANCH  28  29
HETATM   29  C   UNL     1      31.981  49.727  41.814  1.00  0.00    -0.031 A 
HETATM   30  C   UNL     1      33.217  49.840  41.161  1.00  0.00     0.018 A 
HETATM   31  C   UNL     1      34.246  50.625  41.701  1.00  0.00    -0.028 A 
HETATM   32  C   UNL     1      34.012  51.334  42.887  1.00  0.00     0.077 A 
HETATM   33  C   UNL     1      35.545  50.755  40.952  1.00  0.00     0.051 C 
HETATM   34  C   UNL     1      32.782  51.250  43.554  1.00  0.00    -0.028 A 
HETATM   35  C   UNL     1      32.504  52.009  44.821  1.00  0.00     0.051 C 
HETATM   36  C   UNL     1      31.778  50.432  43.011  1.00  0.00     0.018 A 
BRANCH  32  37
HETATM   37  O   UNL     1      35.032  52.114  43.354  1.00  0.00    -0.360 OA
HETATM   38  H   UNL     1      34.832  53.054  43.225  1.00  0.00     0.217 HD
ENDBRANCH  32  37
ENDBRANCH  28  29
ENDBRANCH   1  28
TORSDOF 7
ENDMDL
MODEL 9
REMARK VINA RESULT:      -8.0      8.510     12.063
REMARK  7 active torsions:
REMARK  status: ('A' for Active; 'I' for Inactive)
REMARK    1  A    between atoms: C_3  and  O_4 
REMARK    2  A    between atoms: C_8  and  C_9 
REMARK    3  A    between atoms: C_9  and  N_10 
REMARK    4  A    between atoms: C_15  and  O_16 
REMARK    5  A    between atoms: C_18  and  N_19 
REMARK       I    between atoms: N_19  and  C_20 
REMARK    6  A    between atoms: C_20  and  C_21 
REMARK    7  A    between atoms: C_21  and  C_22 
ROOT
HETATM    1  N   UNL     1      27.892  42.179  51.863  1.00  0.00    -0.067 N 
HETATM    2  H   UNL     1      28.809  42.073  52.313  1.00  0.00     0.280 HD
HETATM    3  C   UNL     1      27.415  40.766  51.606  1.00  0.00     0.236 C 
HETATM    4  C   UNL     1      26.176  40.758  50.717  1.00  0.00     0.045 C 
HETATM    5  C   UNL     1      26.370  41.544  49.397  1.00  0.00     0.019 A 
HETATM    6  C   UNL     1      27.324  40.819  48.354  1.00  0.00     0.161 A 
HETATM    7  C   UNL     1      26.524  40.637  47.019  1.00  0.00     0.148 A 
HETATM    8  C   UNL     1      25.161  41.171  47.335  1.00  0.00    -0.026 A 
HETATM    9  C   UNL     1      25.061  41.649  48.641  1.00  0.00    -0.038 A 
HETATM   10  C   UNL     1      24.061  41.183  46.482  1.00  0.00     0.010 A 
HETATM   11  C   UNL     1      22.851  41.698  46.946  1.00  0.00     0.001 A 
HETATM   12  C   UNL     1      22.749  42.189  48.251  1.00  0.00     0.001 A 
HETATM   13  C   UNL     1      23.853  42.167  49.104  1.00  0.00     0.009 A 
HETATM   14  C   UNL     1      26.877  42.963  49.739  1.00  0.00     0.045 C 
HETATM   15  C   UNL     1      28.143  42.930  50.580  1.00  0.00     0.236 C 
ENDROOT
BRANCH   6  16
HETATM   16  O   UNL     1      27.746  39.545  48.887  1.00  0.00    -0.387 OA
HETATM   17  C   UNL     1      28.621  38.836  48.011  1.00  0.00     0.202 C 
ENDBRANCH   6  16
BRANCH   7  18
HETATM   18  N   UNL     1      27.087  41.230  45.812  1.00  0.00    -0.350 N 
HETATM   19  C   UNL     1      27.604  40.522  44.754  1.00  0.00     0.223 C 
HETATM   20  O   UNL     1      27.373  39.321  44.595  1.00  0.00    -0.273 OA
HETATM   21  H   UNL     1      27.434  42.176  45.933  1.00  0.00     0.163 HD
BRANCH  19  22
HETATM   22  C   UNL     1      28.473  41.257  43.736  1.00  0.00     0.148 C 
BRANCH  22  23
HETATM   23  C   UNL     1      29.146  40.388  42.715  1.00  0.00    -0.009 A 
HETATM   24  S   UNL     1      28.402  40.100  41.197  1.00  0.00    -0.106 SA
HETATM   25  C   UNL     1      29.715  39.144  40.663  1.00  0.00     0.050 A 
HETATM   26  C   UNL     1      30.708  39.057  41.612  1.00  0.00     0.008 A 
HETATM   27  C   UNL     1      30.381  39.776  42.798  1.00  0.00     0.015 A 
ENDBRANCH  22  23
ENDBRANCH  19  22
ENDBRANCH   7  18
BRANCH   1  28
HETATM   28  C   UNL     1      27.065  42.968  52.859  1.00  0.00     0.273 C 
BRANCH  28  29
HETATM   29  C   UNL     1      27.882  43.786  53.821  1.00  0.00    -0.031 A 
HETATM   30  C   UNL     1      29.020  43.242  54.437  1.00  0.00     0.018 A 
HETATM   31  C   UNL     1      29.788  44.003  55.329  1.00  0.00    -0.028 A 
HETATM   32  C   UNL     1      29.431  45.337  55.570  1.00  0.00     0.077 A 
HETATM   33  C   UNL     1      31.024  43.399  55.939  1.00  0.00     0.051 C 
HETATM   34  C   UNL     1      28.307  45.911  54.959  1.00  0.00    -0.028 A 
HETATM   35  C   UNL     1      27.910  47.341  55.194  1.00  0.00     0.051 C 
HETATM   36  C   UNL     1      27.534  45.118  54.094  1.00  0.00     0.018 A 
BRANCH  32  37
HETATM   37  O   UNL     1      30.231  46.049  56.418  1.00  0.00    -0.360 OA
HETATM   38  H   UNL     1      29.780  46.209  57.262  1.00  0.00     0.217 HD
ENDBRANCH  32  37
ENDBRANCH  28  29
ENDBRANCH   1  28
TORSDOF 7
ENDMDL
MODEL 10
REMARK VINA RESULT:      -8.0      3.428      6.426
REMARK  7 active torsions:
REMARK  status: ('A' for Active; 'I' for Inactive)
REMARK    1  A    between atoms: C_3  and  O_4 
REMARK    2  A    between atoms: C_8  and  C_9 
REMARK    3  A    between atoms: C_9  and  N_10 
REMARK    4  A    between atoms: C_15  and  O_16 
REMARK    5  A    between atoms: C_18  and  N_19 
REMARK       I    between atoms: N_19  and  C_20 
REMARK    6  A    between atoms: C_20  and  C_21 
REMARK    7  A    between atoms: C_21  and  C_22 
ROOT
HETATM    1  N   UNL     1      16.566  52.346  47.330  1.00  0.00    -0.067 N 
HETATM    2  H   UNL     1      16.471  53.321  47.637  1.00  0.00     0.280 HD
HETATM    3  C   UNL     1      16.466  51.523  48.596  1.00  0.00     0.236 C 
HETATM    4  C   UNL     1      16.839  50.068  48.336  1.00  0.00     0.045 C 
HETATM    5  C   UNL     1      18.222  49.906  47.658  1.00  0.00     0.019 A 
HETATM    6  C   UNL     1      19.447  50.219  48.620  1.00  0.00     0.161 A 
HETATM    7  C   UNL     1      20.370  48.953  48.647  1.00  0.00     0.148 A 
HETATM    8  C   UNL     1      19.648  47.956  47.794  1.00  0.00    -0.026 A 
HETATM    9  C   UNL     1      18.459  48.461  47.268  1.00  0.00    -0.038 A 
HETATM   10  C   UNL     1      20.039  46.644  47.547  1.00  0.00     0.010 A 
HETATM   11  C   UNL     1      19.232  45.837  46.745  1.00  0.00     0.001 A 
HETATM   12  C   UNL     1      18.046  46.342  46.206  1.00  0.00     0.001 A 
HETATM   13  C   UNL     1      17.655  47.656  46.464  1.00  0.00     0.009 A 
HETATM   14  C   UNL     1      18.255  50.789  46.391  1.00  0.00     0.045 C 
HETATM   15  C   UNL     1      17.932  52.242  46.699  1.00  0.00     0.236 C 
ENDROOT
BRANCH   6  16
HETATM   16  O   UNL     1      18.958  50.536  49.941  1.00  0.00    -0.387 OA
HETATM   17  C   UNL     1      19.152  49.476  50.877  1.00  0.00     0.202 C 
ENDBRANCH   6  16
BRANCH   7  18
HETATM   18  N   UNL     1      21.760  49.127  48.241  1.00  0.00    -0.350 N 
HETATM   19  C   UNL     1      22.662  49.962  48.855  1.00  0.00     0.223 C 
HETATM   20  O   UNL     1      22.465  50.420  49.983  1.00  0.00    -0.273 OA
HETATM   21  H   UNL     1      21.943  48.906  47.267  1.00  0.00     0.163 HD
BRANCH  19  22
HETATM   22  C   UNL     1      23.953  50.313  48.119  1.00  0.00     0.148 C 
BRANCH  22  23
HETATM   23  C   UNL     1      25.183  49.604  48.603  1.00  0.00    -0.009 A 
HETATM   24  S   UNL     1      25.049  48.149  49.501  1.00  0.00    -0.106 SA
HETATM   25  C   UNL     1      26.746  47.986  49.614  1.00  0.00     0.050 A 
HETATM   26  C   UNL     1      27.406  49.008  48.970  1.00  0.00     0.008 A 
HETATM   27  C   UNL     1      26.504  49.943  48.385  1.00  0.00     0.015 A 
ENDBRANCH  22  23
ENDBRANCH  19  22
ENDBRANCH   7  18
BRANCH   1  28
HETATM   28  C   UNL     1      15.438  52.144  46.337  1.00  0.00     0.273 C 
BRANCH  28  29
HETATM   29  C   UNL     1      15.394  53.174  45.243  1.00  0.00    -0.031 A 
HETATM   30  C   UNL     1      16.149  53.008  44.072  1.00  0.00     0.018 A 
HETATM   31  C   UNL     1      16.105  53.962  43.046  1.00  0.00    -0.028 A 
HETATM   32  C   UNL     1      15.260  55.072  43.183  1.00  0.00     0.077 A 
HETATM   33  C   UNL     1      16.898  53.730  41.789  1.00  0.00     0.051 C 
HETATM   34  C   UNL     1      14.485  55.257  44.337  1.00  0.00    -0.028 A 
HETATM   35  C   UNL     1      13.564  56.434  44.502  1.00  0.00     0.051 C 
HETATM   36  C   UNL     1      14.570  54.304  45.364  1.00  0.00     0.018 A 
BRANCH  32  37
HETATM   37  O   UNL     1      15.224  55.955  42.142  1.00  0.00    -0.360 OA
HETATM   38  H   UNL     1      14.311  56.218  41.946  1.00  0.00     0.217 HD
ENDBRANCH  32  37
ENDBRANCH  28  29
ENDBRANCH   1  28
TORSDOF 7
ENDMDL
