MODEL 1
REMARK VINA RESULT:     -10.2      0.000      0.000
REMARK  6 active torsions:
REMARK  status: ('A' for Active; 'I' for Inactive)
REMARK    1  A    between atoms: C_6  and  N_7 
REMARK    2  A    between atoms: N_7  and  C_8 
REMARK    3  A    between atoms: C_8  and  N_9 
REMARK    4  A    between atoms: C_12  and  C_13 
REMARK    5  A    between atoms: N_15  and  C_16 
REMARK    6  A    between atoms: C_22  and  O_23 
ROOT
HETATM    1  N   UNL     1      26.040  44.759  51.276  1.00  0.00    -0.358 N 
HETATM    2  C   UNL     1      25.042  45.566  51.984  1.00  0.00     0.126 C 
HETATM    3  C   UNL     1      25.366  47.052  51.886  1.00  0.00     0.031 C 
HETATM    4  C   UNL     1      25.486  47.520  50.430  1.00  0.00     0.043 C 
HETATM    5  C   UNL     1      26.449  46.611  49.652  1.00  0.00     0.031 C 
HETATM    6  C   UNL     1      26.187  45.120  49.859  1.00  0.00     0.126 C 
ENDROOT
BRANCH   4   7
HETATM    7  C   UNL     1      24.134  47.702  49.787  1.00  0.00     0.063 C 
HETATM    8  N   UNL     1      23.487  48.870  49.823  1.00  0.00    -0.169 NA
HETATM    9  N   UNL     1      22.306  48.647  49.182  1.00  0.00    -0.211 N 
HETATM   10  C   UNL     1      22.307  47.393  48.569  1.00  0.00     0.165 C 
HETATM   11  C   UNL     1      23.423  46.742  49.035  1.00  0.00     0.087 C 
BRANCH   9  12
HETATM   12  C   UNL     1      21.283  49.638  49.210  1.00  0.00     0.061 A 
HETATM   13  C   UNL     1      20.123  49.403  49.966  1.00  0.00     0.031 A 
HETATM   14  C   UNL     1      19.107  50.360  50.014  1.00  0.00     0.002 A 
HETATM   15  C   UNL     1      19.231  51.547  49.298  1.00  0.00     0.000 A 
HETATM   16  C   UNL     1      20.366  51.777  48.521  1.00  0.00     0.002 A 
HETATM   17  C   UNL     1      21.389  50.824  48.470  1.00  0.00     0.031 A 
ENDBRANCH   9  12
BRANCH  10  18
HETATM   18  O   UNL     1      21.413  46.959  47.680  1.00  0.00    -0.345 OA
HETATM   19  H   UNL     1      21.823  46.250  47.152  1.00  0.00     0.219 HD
ENDBRANCH  10  18
ENDBRANCH   4   7
BRANCH   1  20
HETATM   20  C   UNL     1      26.201  43.416  51.595  1.00  0.00     0.174 C 
HETATM   21  S   UNL     1      26.150  42.147  50.491  1.00  0.00    -0.041 SA
BRANCH  20  22
HETATM   22  N   UNL     1      26.488  43.077  52.888  1.00  0.00    -0.333 N 
HETATM   23  H   UNL     1      25.660  42.805  53.407  1.00  0.00     0.168 HD
BRANCH  22  24
HETATM   24  C   UNL     1      27.639  43.296  53.676  1.00  0.00     0.034 A 
HETATM   25  C   UNL     1      27.696  44.496  54.396  1.00  0.00     0.036 A 
HETATM   26  C   UNL     1      28.817  44.835  55.176  1.00  0.00    -0.054 A 
HETATM   27  C   UNL     1      29.917  43.959  55.213  1.00  0.00    -0.056 A 
HETATM   28  C   UNL     1      28.828  46.146  55.914  1.00  0.00     0.049 C 
HETATM   29  C   UNL     1      31.144  44.265  56.028  1.00  0.00     0.049 C 
HETATM   30  C   UNL     1      29.857  42.761  54.489  1.00  0.00     0.009 A 
HETATM   31  C   UNL     1      28.734  42.439  53.719  1.00  0.00     0.030 A 
ENDBRANCH  22  24
ENDBRANCH  20  22
ENDBRANCH   1  20
TORSDOF 6
ENDMDL
MODEL 2
REMARK VINA RESULT:     -10.1      2.809      9.886
REMARK  6 active torsions:
REMARK  status: ('A' for Active; 'I' for Inactive)
REMARK    1  A    between atoms: C_6  and  N_7 
REMARK    2  A    between atoms: N_7  and  C_8 
REMARK    3  A    between atoms: C_8  and  N_9 
REMARK    4  A    between atoms: C_12  and  C_13 
REMARK    5  A    between atoms: N_15  and  C_16 
REMARK    6  A    between atoms: C_22  and  O_23 
ROOT
HETATM    1  N   UNL     1      25.720  46.899  50.519  1.00  0.00    -0.358 N 
HETATM    2  C   UNL     1      26.153  47.172  51.892  1.00  0.00     0.126 C 
HETATM    3  C   UNL     1      25.521  46.191  52.873  1.00  0.00     0.031 C 
HETATM    4  C   UNL     1      25.822  44.732  52.504  1.00  0.00     0.043 C 
HETATM    5  C   UNL     1      25.471  44.468  51.032  1.00  0.00     0.031 C 
HETATM    6  C   UNL     1      26.010  45.530  50.073  1.00  0.00     0.126 C 
ENDROOT
BRANCH   4   7
HETATM    7  C   UNL     1      27.221  44.332  52.900  1.00  0.00     0.063 C 
HETATM    8  N   UNL     1      27.639  44.387  54.167  1.00  0.00    -0.169 NA
HETATM    9  N   UNL     1      28.942  43.992  54.134  1.00  0.00    -0.211 N 
HETATM   10  C   UNL     1      29.275  43.495  52.873  1.00  0.00     0.165 C 
HETATM   11  C   UNL     1      28.218  43.804  52.051  1.00  0.00     0.087 C 
BRANCH   9  12
HETATM   12  C   UNL     1      29.755  44.121  55.297  1.00  0.00     0.061 A 
HETATM   13  C   UNL     1      29.640  45.277  56.086  1.00  0.00     0.031 A 
HETATM   14  C   UNL     1      30.422  45.427  57.234  1.00  0.00     0.002 A 
HETATM   15  C   UNL     1      31.332  44.436  57.594  1.00  0.00     0.000 A 
HETATM   16  C   UNL     1      31.473  43.298  56.800  1.00  0.00     0.002 A 
HETATM   17  C   UNL     1      30.692  43.140  55.651  1.00  0.00     0.031 A 
ENDBRANCH   9  12
BRANCH  10  18
HETATM   18  O   UNL     1      30.385  42.822  52.568  1.00  0.00    -0.345 OA
HETATM   19  H   UNL     1      31.145  43.425  52.661  1.00  0.00     0.219 HD
ENDBRANCH  10  18
ENDBRANCH   4   7
BRANCH   1  20
HETATM   20  C   UNL     1      25.802  47.897  49.554  1.00  0.00     0.174 C 
HETATM   21  S   UNL     1      27.153  48.858  49.269  1.00  0.00    -0.041 SA
BRANCH  20  22
HETATM   22  N   UNL     1      24.738  48.090  48.716  1.00  0.00    -0.333 N 
HETATM   23  H   UNL     1      24.853  47.605  47.833  1.00  0.00     0.168 HD
BRANCH  22  24
HETATM   24  C   UNL     1      23.684  49.028  48.749  1.00  0.00     0.034 A 
HETATM   25  C   UNL     1      22.411  48.540  49.074  1.00  0.00     0.036 A 
HETATM   26  C   UNL     1      21.282  49.380  49.091  1.00  0.00    -0.054 A 
HETATM   27  C   UNL     1      21.432  50.737  48.749  1.00  0.00    -0.056 A 
HETATM   28  C   UNL     1      19.938  48.796  49.430  1.00  0.00     0.049 C 
HETATM   29  C   UNL     1      20.264  51.685  48.749  1.00  0.00     0.049 C 
HETATM   30  C   UNL     1      22.706  51.219  48.423  1.00  0.00     0.009 A 
HETATM   31  C   UNL     1      23.819  50.371  48.412  1.00  0.00     0.030 A 
ENDBRANCH  22  24
ENDBRANCH  20  22
ENDBRANCH   1  20
TORSDOF 6
ENDMDL
MODEL 3
REMARK VINA RESULT:      -9.7      2.534      9.809
REMARK  6 active torsions:
REMARK  status: ('A' for Active; 'I' for Inactive)
REMARK    1  A    between atoms: C_6  and  N_7 
REMARK    2  A    between atoms: N_7  and  C_8 
REMARK    3  A    between atoms: C_8  and  N_9 
REMARK    4  A    between atoms: C_12  and  C_13 
REMARK    5  A    between atoms: N_15  and  C_16 
REMARK    6  A    between atoms: C_22  and  O_23 
ROOT
HETATM    1  N   UNL     1      24.816  47.138  49.401  1.00  0.00    -0.358 N 
HETATM    2  C   UNL     1      24.142  45.973  49.983  1.00  0.00     0.126 C 
HETATM    3  C   UNL     1      24.856  44.680  49.606  1.00  0.00     0.031 C 
HETATM    4  C   UNL     1      26.334  44.697  50.018  1.00  0.00     0.043 C 
HETATM    5  C   UNL     1      27.020  45.971  49.503  1.00  0.00     0.031 C 
HETATM    6  C   UNL     1      26.230  47.249  49.783  1.00  0.00     0.126 C 
ENDROOT
BRANCH   4   7
HETATM    7  C   UNL     1      26.506  44.442  51.494  1.00  0.00     0.063 C 
HETATM    8  N   UNL     1      27.614  44.798  52.148  1.00  0.00    -0.169 NA
HETATM    9  N   UNL     1      27.426  44.383  53.431  1.00  0.00    -0.211 N 
HETATM   10  C   UNL     1      26.112  43.949  53.621  1.00  0.00     0.165 C 
HETATM   11  C   UNL     1      25.549  43.884  52.369  1.00  0.00     0.087 C 
BRANCH   9  12
HETATM   12  C   UNL     1      28.503  44.431  54.362  1.00  0.00     0.061 A 
HETATM   13  C   UNL     1      29.436  43.382  54.381  1.00  0.00     0.031 A 
HETATM   14  C   UNL     1      30.506  43.407  55.280  1.00  0.00     0.002 A 
HETATM   15  C   UNL     1      30.643  44.467  56.173  1.00  0.00     0.000 A 
HETATM   16  C   UNL     1      29.705  45.498  56.180  1.00  0.00     0.002 A 
HETATM   17  C   UNL     1      28.633  45.481  55.282  1.00  0.00     0.031 A 
ENDBRANCH   9  12
BRANCH  10  18
HETATM   18  O   UNL     1      25.536  43.697  54.797  1.00  0.00    -0.345 OA
HETATM   19  H   UNL     1      26.206  43.804  55.496  1.00  0.00     0.219 HD
ENDBRANCH  10  18
ENDBRANCH   4   7
BRANCH   1  20
HETATM   20  C   UNL     1      24.121  48.331  49.237  1.00  0.00     0.174 C 
HETATM   21  S   UNL     1      24.765  49.743  48.586  1.00  0.00    -0.041 SA
BRANCH  20  22
HETATM   22  N   UNL     1      22.793  48.369  49.562  1.00  0.00    -0.333 N 
HETATM   23  H   UNL     1      22.435  47.456  49.820  1.00  0.00     0.168 HD
BRANCH  22  24
HETATM   24  C   UNL     1      21.808  49.356  49.342  1.00  0.00     0.034 A 
HETATM   25  C   UNL     1      21.076  49.266  48.151  1.00  0.00     0.036 A 
HETATM   26  C   UNL     1      20.101  50.223  47.811  1.00  0.00    -0.054 A 
HETATM   27  C   UNL     1      19.876  51.309  48.676  1.00  0.00    -0.056 A 
HETATM   28  C   UNL     1      19.358  50.084  46.511  1.00  0.00     0.049 C 
HETATM   29  C   UNL     1      18.848  52.364  48.369  1.00  0.00     0.049 C 
HETATM   30  C   UNL     1      20.613  51.396  49.865  1.00  0.00     0.009 A 
HETATM   31  C   UNL     1      21.577  50.435  50.188  1.00  0.00     0.030 A 
ENDBRANCH  22  24
ENDBRANCH  20  22
ENDBRANCH   1  20
TORSDOF 6
ENDMDL
MODEL 4
REMARK VINA RESULT:      -9.6      2.590      9.760
REMARK  6 active torsions:
REMARK  status: ('A' for Active; 'I' for Inactive)
REMARK    1  A    between atoms: C_6  and  N_7 
REMARK    2  A    between atoms: N_7  and  C_8 
REMARK    3  A    between atoms: C_8  and  N_9 
REMARK    4  A    between atoms: C_12  and  C_13 
REMARK    5  A    between atoms: N_15  and  C_16 
REMARK    6  A    between atoms: C_22  and  O_23 
ROOT
HETATM    1  N   UNL     1      24.991  47.152  49.474  1.00  0.00    -0.358 N 
HETATM    2  C   UNL     1      24.214  46.086  50.115  1.00  0.00     0.126 C 
HETATM    3  C   UNL     1      24.760  44.711  49.746  1.00  0.00     0.031 C 
HETATM    4  C   UNL     1      26.246  44.567  50.100  1.00  0.00     0.043 C 
HETATM    5  C   UNL     1      27.051  45.742  49.522  1.00  0.00     0.031 C 
HETATM    6  C   UNL     1      26.423  47.108  49.796  1.00  0.00     0.126 C 
ENDROOT
BRANCH   4   7
HETATM    7  C   UNL     1      26.450  44.329  51.575  1.00  0.00     0.063 C 
HETATM    8  N   UNL     1      27.589  44.655  52.192  1.00  0.00    -0.169 NA
HETATM    9  N   UNL     1      27.421  44.267  53.487  1.00  0.00    -0.211 N 
HETATM   10  C   UNL     1      26.098  43.885  53.720  1.00  0.00     0.165 C 
HETATM   11  C   UNL     1      25.498  43.821  52.485  1.00  0.00     0.087 C 
BRANCH   9  12
HETATM   12  C   UNL     1      28.525  44.291  54.386  1.00  0.00     0.061 A 
HETATM   13  C   UNL     1      28.699  45.402  55.226  1.00  0.00     0.031 A 
HETATM   14  C   UNL     1      29.771  45.449  56.121  1.00  0.00     0.002 A 
HETATM   15  C   UNL     1      30.683  44.398  56.174  1.00  0.00     0.000 A 
HETATM   16  C   UNL     1      30.534  43.303  55.323  1.00  0.00     0.002 A 
HETATM   17  C   UNL     1      29.463  43.249  54.426  1.00  0.00     0.031 A 
ENDBRANCH   9  12
BRANCH  10  18
HETATM   18  O   UNL     1      25.547  43.673  54.915  1.00  0.00    -0.345 OA
HETATM   19  H   UNL     1      26.160  44.001  55.599  1.00  0.00     0.219 HD
ENDBRANCH  10  18
ENDBRANCH   4   7
BRANCH   1  20
HETATM   20  C   UNL     1      24.430  48.412  49.303  1.00  0.00     0.174 C 
HETATM   21  S   UNL     1      25.207  49.729  48.600  1.00  0.00    -0.041 SA
BRANCH  20  22
HETATM   22  N   UNL     1      23.126  48.607  49.667  1.00  0.00    -0.333 N 
HETATM   23  H   UNL     1      22.932  48.261  50.601  1.00  0.00     0.168 HD
BRANCH  22  24
HETATM   24  C   UNL     1      21.984  48.935  48.904  1.00  0.00     0.034 A 
HETATM   25  C   UNL     1      21.470  50.229  49.059  1.00  0.00     0.036 A 
HETATM   26  C   UNL     1      20.309  50.646  48.381  1.00  0.00    -0.054 A 
HETATM   27  C   UNL     1      19.637  49.734  47.548  1.00  0.00    -0.056 A 
HETATM   28  C   UNL     1      19.793  52.042  48.599  1.00  0.00     0.049 C 
HETATM   29  C   UNL     1      18.391  50.119  46.797  1.00  0.00     0.049 C 
HETATM   30  C   UNL     1      20.154  48.440  47.399  1.00  0.00     0.009 A 
HETATM   31  C   UNL     1      21.310  48.042  48.079  1.00  0.00     0.030 A 
ENDBRANCH  22  24
ENDBRANCH  20  22
ENDBRANCH   1  20
TORSDOF 6
ENDMDL
MODEL 5
REMARK VINA RESULT:      -8.8      4.426     11.355
REMARK  6 active torsions:
REMARK  status: ('A' for Active; 'I' for Inactive)
REMARK    1  A    between atoms: C_6  and  N_7 
REMARK    2  A    between atoms: N_7  and  C_8 
REMARK    3  A    between atoms: C_8  and  N_9 
REMARK    4  A    between atoms: C_12  and  C_13 
REMARK    5  A    between atoms: N_15  and  C_16 
REMARK    6  A    between atoms: C_22  and  O_23 
ROOT
HETATM    1  N   UNL     1      18.503  49.953  48.259  1.00  0.00    -0.358 N 
HETATM    2  C   UNL     1      19.427  50.813  47.514  1.00  0.00     0.126 C 
HETATM    3  C   UNL     1      20.100  51.825  48.434  1.00  0.00     0.031 C 
HETATM    4  C   UNL     1      20.833  51.147  49.599  1.00  0.00     0.043 C 
HETATM    5  C   UNL     1      19.900  50.161  50.318  1.00  0.00     0.031 C 
HETATM    6  C   UNL     1      19.140  49.234  49.371  1.00  0.00     0.126 C 
ENDROOT
BRANCH   4   7
HETATM    7  C   UNL     1      22.153  50.562  49.164  1.00  0.00     0.063 C 
HETATM    8  N   UNL     1      22.540  49.339  49.535  1.00  0.00    -0.169 NA
HETATM    9  N   UNL     1      23.777  49.171  48.991  1.00  0.00    -0.211 N 
HETATM   10  C   UNL     1      24.074  50.213  48.110  1.00  0.00     0.165 C 
HETATM   11  C   UNL     1      23.091  51.157  48.293  1.00  0.00     0.087 C 
BRANCH   9  12
HETATM   12  C   UNL     1      24.568  48.043  49.354  1.00  0.00     0.061 A 
HETATM   13  C   UNL     1      23.945  46.796  49.515  1.00  0.00     0.031 A 
HETATM   14  C   UNL     1      24.698  45.672  49.866  1.00  0.00     0.002 A 
HETATM   15  C   UNL     1      26.070  45.787  50.073  1.00  0.00     0.000 A 
HETATM   16  C   UNL     1      26.692  47.028  49.942  1.00  0.00     0.002 A 
HETATM   17  C   UNL     1      25.945  48.157  49.590  1.00  0.00     0.031 A 
ENDBRANCH   9  12
BRANCH  10  18
HETATM   18  O   UNL     1      25.089  50.239  47.247  1.00  0.00    -0.345 OA
HETATM   19  H   UNL     1      25.130  49.376  46.795  1.00  0.00     0.219 HD
ENDBRANCH  10  18
ENDBRANCH   4   7
BRANCH   1  20
HETATM   20  C   UNL     1      17.483  49.286  47.591  1.00  0.00     0.174 C 
HETATM   21  S   UNL     1      17.670  47.861  46.716  1.00  0.00    -0.041 SA
BRANCH  20  22
HETATM   22  N   UNL     1      16.208  49.769  47.689  1.00  0.00    -0.333 N 
HETATM   23  H   UNL     1      15.512  49.068  47.456  1.00  0.00     0.168 HD
BRANCH  22  24
HETATM   24  C   UNL     1      15.715  51.090  47.781  1.00  0.00     0.034 A 
HETATM   25  C   UNL     1      15.501  51.598  49.069  1.00  0.00     0.036 A 
HETATM   26  C   UNL     1      14.971  52.885  49.274  1.00  0.00    -0.054 A 
HETATM   27  C   UNL     1      14.623  53.669  48.159  1.00  0.00    -0.056 A 
HETATM   28  C   UNL     1      14.747  53.371  50.680  1.00  0.00     0.049 C 
HETATM   29  C   UNL     1      14.052  55.052  48.313  1.00  0.00     0.049 C 
HETATM   30  C   UNL     1      14.836  53.155  46.873  1.00  0.00     0.009 A 
HETATM   31  C   UNL     1      15.366  51.874  46.686  1.00  0.00     0.030 A 
ENDBRANCH  22  24
ENDBRANCH  20  22
ENDBRANCH   1  20
TORSDOF 6
ENDMDL
MODEL 6
REMARK VINA RESULT:      -8.8      1.954      2.616
REMARK  6 active torsions:
REMARK  status: ('A' for Active; 'I' for Inactive)
REMARK    1  A    between atoms: C_6  and  N_7 
REMARK    2  A    between atoms: N_7  and  C_8 
REMARK    3  A    between atoms: C_8  and  N_9 
REMARK    4  A    between atoms: C_12  and  C_13 
REMARK    5  A    between atoms: N_15  and  C_16 
REMARK    6  A    between atoms: C_22  and  O_23 
ROOT
HETATM    1  N   UNL     1      25.758  44.828  51.797  1.00  0.00    -0.358 N 
HETATM    2  C   UNL     1      26.218  46.016  51.072  1.00  0.00     0.126 C 
HETATM    3  C   UNL     1      26.045  45.844  49.567  1.00  0.00     0.031 C 
HETATM    4  C   UNL     1      24.593  45.524  49.187  1.00  0.00     0.043 C 
HETATM    5  C   UNL     1      24.068  44.346  50.022  1.00  0.00     0.031 C 
HETATM    6  C   UNL     1      24.359  44.476  51.517  1.00  0.00     0.126 C 
ENDROOT
BRANCH   4   7
HETATM    7  C   UNL     1      23.723  46.754  49.217  1.00  0.00     0.063 C 
HETATM    8  N   UNL     1      22.415  46.700  48.952  1.00  0.00    -0.169 NA
HETATM    9  N   UNL     1      21.975  47.986  49.038  1.00  0.00    -0.211 N 
HETATM   10  C   UNL     1      22.973  48.814  49.557  1.00  0.00     0.165 C 
HETATM   11  C   UNL     1      24.121  48.059  49.576  1.00  0.00     0.087 C 
BRANCH   9  12
HETATM   12  C   UNL     1      20.655  48.318  48.620  1.00  0.00     0.061 A 
HETATM   13  C   UNL     1      19.603  48.231  49.546  1.00  0.00     0.031 A 
HETATM   14  C   UNL     1      18.299  48.555  49.163  1.00  0.00     0.002 A 
HETATM   15  C   UNL     1      18.032  48.951  47.855  1.00  0.00     0.000 A 
HETATM   16  C   UNL     1      19.066  49.013  46.922  1.00  0.00     0.002 A 
HETATM   17  C   UNL     1      20.374  48.692  47.298  1.00  0.00     0.031 A 
ENDBRANCH   9  12
BRANCH  10  18
HETATM   18  O   UNL     1      22.804  50.066  49.982  1.00  0.00    -0.345 OA
HETATM   19  H   UNL     1      21.912  50.362  49.721  1.00  0.00     0.219 HD
ENDBRANCH  10  18
ENDBRANCH   4   7
BRANCH   1  20
HETATM   20  C   UNL     1      26.216  44.580  53.085  1.00  0.00     0.174 C 
HETATM   21  S   UNL     1      25.238  44.211  54.404  1.00  0.00    -0.041 SA
BRANCH  20  22
HETATM   22  N   UNL     1      27.564  44.565  53.313  1.00  0.00    -0.333 N 
HETATM   23  H   UNL     1      28.061  43.995  52.637  1.00  0.00     0.168 HD
BRANCH  22  24
HETATM   24  C   UNL     1      28.324  44.956  54.436  1.00  0.00     0.034 A 
HETATM   25  C   UNL     1      29.376  44.112  54.815  1.00  0.00     0.036 A 
HETATM   26  C   UNL     1      30.168  44.384  55.946  1.00  0.00    -0.054 A 
HETATM   27  C   UNL     1      29.880  45.516  56.729  1.00  0.00    -0.056 A 
HETATM   28  C   UNL     1      31.273  43.432  56.314  1.00  0.00     0.049 C 
HETATM   29  C   UNL     1      30.690  45.861  57.949  1.00  0.00     0.049 C 
HETATM   30  C   UNL     1      28.825  46.356  56.347  1.00  0.00     0.009 A 
HETATM   31  C   UNL     1      28.048  46.072  55.219  1.00  0.00     0.030 A 
ENDBRANCH  22  24
ENDBRANCH  20  22
ENDBRANCH   1  20
TORSDOF 6
ENDMDL
MODEL 7
REMARK VINA RESULT:      -8.8      4.991     12.010
REMARK  6 active torsions:
REMARK  status: ('A' for Active; 'I' for Inactive)
REMARK    1  A    between atoms: C_6  and  N_7 
REMARK    2  A    between atoms: N_7  and  C_8 
REMARK    3  A    between atoms: C_8  and  N_9 
REMARK    4  A    between atoms: C_12  and  C_13 
REMARK    5  A    between atoms: N_15  and  C_16 
REMARK    6  A    between atoms: C_22  and  O_23 
ROOT
HETATM    1  N   UNL     1      17.673  50.748  48.368  1.00  0.00    -0.358 N 
HETATM    2  C   UNL     1      18.817  51.318  47.650  1.00  0.00     0.126 C 
HETATM    3  C   UNL     1      19.796  51.980  48.613  1.00  0.00     0.031 C 
HETATM    4  C   UNL     1      20.284  51.010  49.697  1.00  0.00     0.043 C 
HETATM    5  C   UNL     1      19.090  50.326  50.381  1.00  0.00     0.031 C 
HETATM    6  C   UNL     1      18.055  49.774  49.400  1.00  0.00     0.126 C 
ENDROOT
BRANCH   4   7
HETATM    7  C   UNL     1      21.334  50.065  49.171  1.00  0.00     0.063 C 
HETATM    8  N   UNL     1      22.597  50.102  49.603  1.00  0.00    -0.169 NA
HETATM    9  N   UNL     1      23.251  49.143  48.890  1.00  0.00    -0.211 N 
HETATM   10  C   UNL     1      22.346  48.370  48.159  1.00  0.00     0.165 C 
HETATM   11  C   UNL     1      21.136  49.015  48.249  1.00  0.00     0.087 C 
BRANCH   9  12
HETATM   12  C   UNL     1      24.670  49.045  48.961  1.00  0.00     0.061 A 
HETATM   13  C   UNL     1      25.246  48.004  49.707  1.00  0.00     0.031 A 
HETATM   14  C   UNL     1      26.636  47.882  49.790  1.00  0.00     0.002 A 
HETATM   15  C   UNL     1      27.457  48.803  49.145  1.00  0.00     0.000 A 
HETATM   16  C   UNL     1      26.894  49.856  48.426  1.00  0.00     0.002 A 
HETATM   17  C   UNL     1      25.504  49.984  48.337  1.00  0.00     0.031 A 
ENDBRANCH   9  12
BRANCH  10  18
HETATM   18  O   UNL     1      22.623  47.220  47.543  1.00  0.00    -0.345 OA
HETATM   19  H   UNL     1      23.360  46.789  48.014  1.00  0.00     0.219 HD
ENDBRANCH  10  18
ENDBRANCH   4   7
BRANCH   1  20
HETATM   20  C   UNL     1      16.482  50.504  47.694  1.00  0.00     0.174 C 
HETATM   21  S   UNL     1      15.689  49.021  47.638  1.00  0.00    -0.041 SA
BRANCH  20  22
HETATM   22  N   UNL     1      15.852  51.547  47.075  1.00  0.00    -0.333 N 
HETATM   23  H   UNL     1      16.090  51.611  46.091  1.00  0.00     0.168 HD
BRANCH  22  24
HETATM   24  C   UNL     1      15.176  52.672  47.598  1.00  0.00     0.034 A 
HETATM   25  C   UNL     1      15.101  52.773  48.993  1.00  0.00     0.036 A 
HETATM   26  C   UNL     1      14.413  53.829  49.619  1.00  0.00    -0.054 A 
HETATM   27  C   UNL     1      13.763  54.790  48.824  1.00  0.00    -0.056 A 
HETATM   28  C   UNL     1      14.351  53.876  51.121  1.00  0.00     0.049 C 
HETATM   29  C   UNL     1      13.011  55.942  49.433  1.00  0.00     0.049 C 
HETATM   30  C   UNL     1      13.839  54.683  47.429  1.00  0.00     0.009 A 
HETATM   31  C   UNL     1      14.529  53.627  46.822  1.00  0.00     0.030 A 
ENDBRANCH  22  24
ENDBRANCH  20  22
ENDBRANCH   1  20
TORSDOF 6
ENDMDL
MODEL 8
REMARK VINA RESULT:      -8.6      4.473      8.107
REMARK  6 active torsions:
REMARK  status: ('A' for Active; 'I' for Inactive)
REMARK    1  A    between atoms: C_6  and  N_7 
REMARK    2  A    between atoms: N_7  and  C_8 
REMARK    3  A    between atoms: C_8  and  N_9 
REMARK    4  A    between atoms: C_12  and  C_13 
REMARK    5  A    between atoms: N_15  and  C_16 
REMARK    6  A    between atoms: C_22  and  O_23 
ROOT
HETATM    1  N   UNL     1      20.078  49.585  48.823  1.00  0.00    -0.358 N 
HETATM    2  C   UNL     1      18.636  49.328  48.888  1.00  0.00     0.126 C 
HETATM    3  C   UNL     1      17.903  50.473  49.577  1.00  0.00     0.031 C 
HETATM    4  C   UNL     1      18.168  51.821  48.892  1.00  0.00     0.043 C 
HETATM    5  C   UNL     1      19.679  52.048  48.723  1.00  0.00     0.031 C 
HETATM    6  C   UNL     1      20.419  50.842  48.144  1.00  0.00     0.126 C 
ENDROOT
BRANCH   4   7
HETATM    7  C   UNL     1      17.363  51.974  47.627  1.00  0.00     0.063 C 
HETATM    8  N   UNL     1      17.936  51.973  46.421  1.00  0.00    -0.169 NA
HETATM    9  N   UNL     1      16.917  52.166  45.537  1.00  0.00    -0.211 N 
HETATM   10  C   UNL     1      15.682  52.082  46.183  1.00  0.00     0.165 C 
HETATM   11  C   UNL     1      15.958  52.064  47.529  1.00  0.00     0.087 C 
BRANCH   9  12
HETATM   12  C   UNL     1      17.202  52.413  44.164  1.00  0.00     0.061 A 
HETATM   13  C   UNL     1      17.844  51.419  43.409  1.00  0.00     0.031 A 
HETATM   14  C   UNL     1      18.130  51.634  42.058  1.00  0.00     0.002 A 
HETATM   15  C   UNL     1      17.795  52.844  41.457  1.00  0.00     0.000 A 
HETATM   16  C   UNL     1      17.183  53.848  42.207  1.00  0.00     0.002 A 
HETATM   17  C   UNL     1      16.892  53.639  43.558  1.00  0.00     0.031 A 
ENDBRANCH   9  12
BRANCH  10  18
HETATM   18  O   UNL     1      14.494  51.994  45.585  1.00  0.00    -0.345 OA
HETATM   19  H   UNL     1      13.880  51.534  46.187  1.00  0.00     0.219 HD
ENDBRANCH  10  18
ENDBRANCH   4   7
BRANCH   1  20
HETATM   20  C   UNL     1      20.965  48.528  48.657  1.00  0.00     0.174 C 
HETATM   21  S   UNL     1      20.906  47.404  47.407  1.00  0.00    -0.041 SA
BRANCH  20  22
HETATM   22  N   UNL     1      22.014  48.407  49.526  1.00  0.00    -0.333 N 
HETATM   23  H   UNL     1      21.712  48.397  50.494  1.00  0.00     0.168 HD
BRANCH  22  24
HETATM   24  C   UNL     1      23.404  48.568  49.337  1.00  0.00     0.034 A 
HETATM   25  C   UNL     1      24.241  47.635  49.963  1.00  0.00     0.036 A 
HETATM   26  C   UNL     1      25.643  47.728  49.878  1.00  0.00    -0.054 A 
HETATM   27  C   UNL     1      26.217  48.799  49.169  1.00  0.00    -0.056 A 
HETATM   28  C   UNL     1      26.490  46.706  50.585  1.00  0.00     0.049 C 
HETATM   29  C   UNL     1      27.708  48.953  49.042  1.00  0.00     0.049 C 
HETATM   30  C   UNL     1      25.375  49.731  48.547  1.00  0.00     0.009 A 
HETATM   31  C   UNL     1      23.984  49.623  48.640  1.00  0.00     0.030 A 
ENDBRANCH  22  24
ENDBRANCH  20  22
ENDBRANCH   1  20
TORSDOF 6
ENDMDL
MODEL 9
REMARK VINA RESULT:      -8.5      3.517     10.511
REMARK  6 active torsions:
REMARK  status: ('A' for Active; 'I' for Inactive)
REMARK    1  A    between atoms: C_6  and  N_7 
REMARK    2  A    between atoms: N_7  and  C_8 
REMARK    3  A    between atoms: C_8  and  N_9 
REMARK    4  A    between atoms: C_12  and  C_13 
REMARK    5  A    between atoms: N_15  and  C_16 
REMARK    6  A    between atoms: C_22  and  O_23 
ROOT
HETATM    1  N   UNL     1      20.816  49.770  49.020  1.00  0.00    -0.358 N 
HETATM    2  C   UNL     1      21.592  49.129  47.955  1.00  0.00     0.126 C 
HETATM    3  C   UNL     1      22.582  50.106  47.331  1.00  0.00     0.031 C 
HETATM    4  C   UNL     1      23.525  50.717  48.377  1.00  0.00     0.043 C 
HETATM    5  C   UNL     1      22.719  51.296  49.550  1.00  0.00     0.031 C 
HETATM    6  C   UNL     1      21.647  50.348  50.085  1.00  0.00     0.126 C 
ENDROOT
BRANCH   4   7
HETATM    7  C   UNL     1      24.617  49.758  48.774  1.00  0.00     0.063 C 
HETATM    8  N   UNL     1      24.371  48.680  49.524  1.00  0.00    -0.169 NA
HETATM    9  N   UNL     1      25.582  48.083  49.705  1.00  0.00    -0.211 N 
HETATM   10  C   UNL     1      26.551  48.679  48.896  1.00  0.00     0.165 C 
HETATM   11  C   UNL     1      25.971  49.812  48.379  1.00  0.00     0.087 C 
BRANCH   9  12
HETATM   12  C   UNL     1      25.714  47.005  50.627  1.00  0.00     0.061 A 
HETATM   13  C   UNL     1      26.109  47.279  51.946  1.00  0.00     0.031 A 
HETATM   14  C   UNL     1      26.241  46.241  52.872  1.00  0.00     0.002 A 
HETATM   15  C   UNL     1      25.997  44.925  52.486  1.00  0.00     0.000 A 
HETATM   16  C   UNL     1      25.633  44.641  51.171  1.00  0.00     0.002 A 
HETATM   17  C   UNL     1      25.496  45.675  50.239  1.00  0.00     0.031 A 
ENDBRANCH   9  12
BRANCH  10  18
HETATM   18  O   UNL     1      27.772  48.198  48.659  1.00  0.00    -0.345 OA
HETATM   19  H   UNL     1      27.718  47.577  47.910  1.00  0.00     0.219 HD
ENDBRANCH  10  18
ENDBRANCH   4   7
BRANCH   1  20
HETATM   20  C   UNL     1      19.593  49.234  49.407  1.00  0.00     0.174 C 
HETATM   21  S   UNL     1      19.153  47.617  49.249  1.00  0.00    -0.041 SA
BRANCH  20  22
HETATM   22  N   UNL     1      18.685  50.047  50.026  1.00  0.00    -0.333 N 
HETATM   23  H   UNL     1      18.601  49.846  51.017  1.00  0.00     0.168 HD
BRANCH  22  24
HETATM   24  C   UNL     1      17.681  50.891  49.503  1.00  0.00     0.034 A 
HETATM   25  C   UNL     1      16.989  50.430  48.375  1.00  0.00     0.036 A 
HETATM   26  C   UNL     1      16.001  51.210  47.746  1.00  0.00    -0.054 A 
HETATM   27  C   UNL     1      15.721  52.495  48.247  1.00  0.00    -0.056 A 
HETATM   28  C   UNL     1      15.304  50.669  46.529  1.00  0.00     0.049 C 
HETATM   29  C   UNL     1      14.677  53.377  47.619  1.00  0.00     0.049 C 
HETATM   30  C   UNL     1      16.418  52.953  49.373  1.00  0.00     0.009 A 
HETATM   31  C   UNL     1      17.396  52.163  49.987  1.00  0.00     0.030 A 
ENDBRANCH  22  24
ENDBRANCH  20  22
ENDBRANCH   1  20
TORSDOF 6
ENDMDL
MODEL 10
REMARK VINA RESULT:      -8.2     18.684     21.800
REMARK  6 active torsions:
REMARK  status: ('A' for Active; 'I' for Inactive)
REMARK    1  A    between atoms: C_6  and  N_7 
REMARK    2  A    between atoms: N_7  and  C_8 
REMARK    3  A    between atoms: C_8  and  N_9 
REMARK    4  A    between atoms: C_12  and  C_13 
REMARK    5  A    between atoms: N_15  and  C_16 
REMARK    6  A    between atoms: C_22  and  O_23 
ROOT
HETATM    1  N   UNL     1      38.866  44.941  64.612  1.00  0.00    -0.358 N 
HETATM    2  C   UNL     1      39.140  43.895  65.601  1.00  0.00     0.126 C 
HETATM    3  C   UNL     1      37.943  42.966  65.766  1.00  0.00     0.031 C 
HETATM    4  C   UNL     1      37.517  42.334  64.434  1.00  0.00     0.043 C 
HETATM    5  C   UNL     1      37.333  43.418  63.361  1.00  0.00     0.031 C 
HETATM    6  C   UNL     1      38.489  44.415  63.293  1.00  0.00     0.126 C 
ENDROOT
BRANCH   4   7
HETATM    7  C   UNL     1      38.428  41.201  64.035  1.00  0.00     0.063 C 
HETATM    8  N   UNL     1      38.913  40.337  64.931  1.00  0.00    -0.169 NA
HETATM    9  N   UNL     1      39.711  39.491  64.221  1.00  0.00    -0.211 N 
HETATM   10  C   UNL     1      39.560  39.706  62.850  1.00  0.00     0.165 C 
HETATM   11  C   UNL     1      38.826  40.861  62.725  1.00  0.00     0.087 C 
BRANCH   9  12
HETATM   12  C   UNL     1      40.545  38.558  64.902  1.00  0.00     0.061 A 
HETATM   13  C   UNL     1      40.010  37.813  65.964  1.00  0.00     0.031 A 
HETATM   14  C   UNL     1      40.804  36.887  66.646  1.00  0.00     0.002 A 
HETATM   15  C   UNL     1      42.137  36.711  66.285  1.00  0.00     0.000 A 
HETATM   16  C   UNL     1      42.684  37.467  65.249  1.00  0.00     0.002 A 
HETATM   17  C   UNL     1      41.895  38.394  64.561  1.00  0.00     0.031 A 
ENDBRANCH   9  12
BRANCH  10  18
HETATM   18  O   UNL     1      40.012  38.910  61.881  1.00  0.00    -0.345 OA
HETATM   19  H   UNL     1      40.873  38.546  62.159  1.00  0.00     0.219 HD
ENDBRANCH  10  18
ENDBRANCH   4   7
BRANCH   1  20
HETATM   20  C   UNL     1      39.604  46.119  64.624  1.00  0.00     0.174 C 
HETATM   21  S   UNL     1      41.284  46.207  64.606  1.00  0.00    -0.041 SA
BRANCH  20  22
HETATM   22  N   UNL     1      38.938  47.312  64.582  1.00  0.00    -0.333 N 
HETATM   23  H   UNL     1      39.057  47.788  63.694  1.00  0.00     0.168 HD
BRANCH  22  24
HETATM   24  C   UNL     1      38.368  48.098  65.607  1.00  0.00     0.034 A 
HETATM   25  C   UNL     1      38.304  49.480  65.385  1.00  0.00     0.036 A 
HETATM   26  C   UNL     1      37.797  50.360  66.359  1.00  0.00    -0.054 A 
HETATM   27  C   UNL     1      37.369  49.842  67.595  1.00  0.00    -0.056 A 
HETATM   28  C   UNL     1      37.768  51.836  66.070  1.00  0.00     0.049 C 
HETATM   29  C   UNL     1      36.817  50.732  68.676  1.00  0.00     0.049 C 
HETATM   30  C   UNL     1      37.438  48.460  67.813  1.00  0.00     0.009 A 
HETATM   31  C   UNL     1      37.943  47.598  66.834  1.00  0.00     0.030 A 
ENDBRANCH  22  24
ENDBRANCH  20  22
ENDBRANCH   1  20
TORSDOF 6
ENDMDL
