MODEL 1
REMARK VINA RESULT:      -9.0      0.000      0.000
REMARK  3 active torsions:
REMARK  status: ('A' for Active; 'I' for Inactive)
REMARK    1  A    between atoms: N_5  and  C_6 
REMARK    2  A    between atoms: C_7  and  C_8 
REMARK       I    between atoms: C_8  and  N_9 
REMARK    3  A    between atoms: N_9  and  N_10 
ROOT
HETATM    1  C   UNL     1      28.793  53.583  39.374  1.00  0.00     0.056 C 
HETATM    2  C   UNL     1      29.249  52.173  39.705  1.00  0.00     0.158 C 
HETATM    3  C   UNL     1      28.130  51.312  40.300  1.00  0.00     0.267 C 
HETATM    4  O   UNL     1      27.487  51.610  41.302  1.00  0.00    -0.269 OA
HETATM    5  N   UNL     1      28.112  50.112  39.620  1.00  0.00    -0.230 N 
HETATM    6  C   UNL     1      29.112  50.089  38.676  1.00  0.00     0.333 C 
HETATM    7  O   UNL     1      29.517  49.109  38.065  1.00  0.00    -0.246 OA
HETATM    8  N   UNL     1      29.619  51.384  38.534  1.00  0.00    -0.309 N 
HETATM    9  C   UNL     1      30.928  51.608  37.910  1.00  0.00     0.134 C 
HETATM   10  C   UNL     1      32.090  51.318  38.885  1.00  0.00     0.061 C 
HETATM   11  C   UNL     1      31.729  51.741  40.276  1.00  0.00    -0.018 A 
HETATM   12  C   UNL     1      30.446  52.128  40.622  1.00  0.00     0.055 A 
HETATM   13  N   UNL     1      30.418  52.358  41.973  1.00  0.00    -0.356 N 
HETATM   14  H   UNL     1      29.597  52.607  42.512  1.00  0.00     0.166 HD
HETATM   15  C   UNL     1      31.651  52.066  42.517  1.00  0.00     0.043 A 
HETATM   16  C   UNL     1      32.500  51.701  41.469  1.00  0.00    -0.001 A 
HETATM   17  C   UNL     1      32.068  52.075  43.853  1.00  0.00     0.030 A 
HETATM   18  C   UNL     1      33.388  51.703  44.124  1.00  0.00     0.002 A 
HETATM   19  C   UNL     1      34.259  51.343  43.098  1.00  0.00     0.001 A 
HETATM   20  C   UNL     1      33.828  51.337  41.767  1.00  0.00     0.014 A 
ENDROOT
BRANCH   5  21
HETATM   21  C   UNL     1      27.578  48.959  40.233  1.00  0.00     0.063 A 
HETATM   22  C   UNL     1      28.397  48.045  40.913  1.00  0.00     0.060 A 
HETATM   23  C   UNL     1      27.879  46.807  41.318  1.00  0.00     0.019 A 
HETATM   24  C   UNL     1      26.542  46.493  41.075  1.00  0.00     0.001 A 
HETATM   25  C   UNL     1      25.713  47.417  40.440  1.00  0.00     0.002 A 
HETATM   26  C   UNL     1      26.226  48.647  40.020  1.00  0.00     0.031 A 
BRANCH  22  27
HETATM   27  C   UNL     1      29.795  48.356  41.301  1.00  0.00     0.268 C 
HETATM   28  N   UNL     1      30.778  47.813  40.479  1.00  0.00    -0.290 N 
HETATM   29  H   UNL     1      30.535  47.311  39.626  1.00  0.00     0.183 HD
HETATM   30  O   UNL     1      30.039  49.104  42.243  1.00  0.00    -0.266 OA
BRANCH  28  31
HETATM   31  N   UNL     1      32.131  48.126  40.720  1.00  0.00    -0.247 NA
HETATM   32  H   UNL     1      32.211  49.150  40.667  1.00  0.00     0.143 HD
HETATM   33  H   UNL     1      32.667  47.813  39.903  1.00  0.00     0.143 HD
ENDBRANCH  28  31
ENDBRANCH  22  27
ENDBRANCH   5  21
TORSDOF 3
ENDMDL
MODEL 2
REMARK VINA RESULT:      -8.9      2.065      5.914
REMARK  3 active torsions:
REMARK  status: ('A' for Active; 'I' for Inactive)
REMARK    1  A    between atoms: N_5  and  C_6 
REMARK    2  A    between atoms: C_7  and  C_8 
REMARK       I    between atoms: C_8  and  N_9 
REMARK    3  A    between atoms: N_9  and  N_10 
ROOT
HETATM    1  C   UNL     1      29.559  52.580  37.874  1.00  0.00     0.056 C 
HETATM    2  C   UNL     1      30.236  51.846  39.018  1.00  0.00     0.158 C 
HETATM    3  C   UNL     1      31.747  51.694  38.814  1.00  0.00     0.267 C 
HETATM    4  O   UNL     1      32.263  51.164  37.834  1.00  0.00    -0.269 OA
HETATM    5  N   UNL     1      32.373  52.094  39.976  1.00  0.00    -0.230 N 
HETATM    6  C   UNL     1      31.437  52.456  40.917  1.00  0.00     0.333 C 
HETATM    7  O   UNL     1      31.634  52.639  42.110  1.00  0.00    -0.246 OA
HETATM    8  N   UNL     1      30.193  52.565  40.286  1.00  0.00    -0.309 N 
HETATM    9  C   UNL     1      28.955  52.547  41.073  1.00  0.00     0.134 C 
HETATM   10  C   UNL     1      28.557  51.115  41.492  1.00  0.00     0.061 C 
HETATM   11  C   UNL     1      28.887  50.137  40.406  1.00  0.00    -0.018 A 
HETATM   12  C   UNL     1      29.639  50.489  39.297  1.00  0.00     0.055 A 
HETATM   13  N   UNL     1      29.846  49.361  38.547  1.00  0.00    -0.356 N 
HETATM   14  H   UNL     1      30.406  49.309  37.703  1.00  0.00     0.166 HD
HETATM   15  C   UNL     1      29.290  48.272  39.185  1.00  0.00     0.043 A 
HETATM   16  C   UNL     1      28.660  48.737  40.342  1.00  0.00    -0.001 A 
HETATM   17  C   UNL     1      29.320  46.917  38.838  1.00  0.00     0.030 A 
HETATM   18  C   UNL     1      28.687  46.013  39.696  1.00  0.00     0.002 A 
HETATM   19  C   UNL     1      28.043  46.449  40.851  1.00  0.00     0.001 A 
HETATM   20  C   UNL     1      28.022  47.807  41.186  1.00  0.00     0.014 A 
ENDROOT
BRANCH   5  21
HETATM   21  C   UNL     1      33.661  51.611  40.289  1.00  0.00     0.063 A 
HETATM   22  C   UNL     1      33.841  50.482  41.103  1.00  0.00     0.060 A 
HETATM   23  C   UNL     1      35.120  50.157  41.576  1.00  0.00     0.019 A 
HETATM   24  C   UNL     1      36.220  50.934  41.213  1.00  0.00     0.001 A 
HETATM   25  C   UNL     1      36.052  52.030  40.368  1.00  0.00     0.002 A 
HETATM   26  C   UNL     1      34.778  52.369  39.904  1.00  0.00     0.031 A 
BRANCH  22  27
HETATM   27  C   UNL     1      32.737  49.550  41.438  1.00  0.00     0.268 C 
HETATM   28  N   UNL     1      32.259  49.633  42.742  1.00  0.00    -0.290 N 
HETATM   29  H   UNL     1      32.599  50.349  43.385  1.00  0.00     0.183 HD
HETATM   30  O   UNL     1      32.245  48.819  40.584  1.00  0.00    -0.266 OA
BRANCH  28  31
HETATM   31  N   UNL     1      31.154  48.847  43.126  1.00  0.00    -0.247 NA
HETATM   32  H   UNL     1      31.474  48.247  43.898  1.00  0.00     0.143 HD
HETATM   33  H   UNL     1      30.981  48.174  42.372  1.00  0.00     0.143 HD
ENDBRANCH  28  31
ENDBRANCH  22  27
ENDBRANCH   5  21
TORSDOF 3
ENDMDL
MODEL 3
REMARK VINA RESULT:      -8.4      1.499      2.200
REMARK  3 active torsions:
REMARK  status: ('A' for Active; 'I' for Inactive)
REMARK    1  A    between atoms: N_5  and  C_6 
REMARK    2  A    between atoms: C_7  and  C_8 
REMARK       I    between atoms: C_8  and  N_9 
REMARK    3  A    between atoms: N_9  and  N_10 
ROOT
HETATM    1  C   UNL     1      27.706  52.399  41.420  1.00  0.00     0.056 C 
HETATM    2  C   UNL     1      28.376  51.323  40.586  1.00  0.00     0.158 C 
HETATM    3  C   UNL     1      28.088  49.908  41.100  1.00  0.00     0.267 C 
HETATM    4  O   UNL     1      28.325  49.526  42.242  1.00  0.00    -0.269 OA
HETATM    5  N   UNL     1      27.692  49.140  40.025  1.00  0.00    -0.230 N 
HETATM    6  C   UNL     1      27.723  49.889  38.872  1.00  0.00     0.333 C 
HETATM    7  O   UNL     1      27.653  49.467  37.726  1.00  0.00    -0.246 OA
HETATM    8  N   UNL     1      27.869  51.235  39.220  1.00  0.00    -0.309 N 
HETATM    9  C   UNL     1      28.323  52.216  38.228  1.00  0.00     0.134 C 
HETATM   10  C   UNL     1      29.851  52.160  38.018  1.00  0.00     0.061 C 
HETATM   11  C   UNL     1      30.552  51.874  39.311  1.00  0.00    -0.018 A 
HETATM   12  C   UNL     1      29.868  51.505  40.456  1.00  0.00     0.055 A 
HETATM   13  N   UNL     1      30.789  51.221  41.431  1.00  0.00    -0.356 N 
HETATM   14  H   UNL     1      30.577  50.877  42.361  1.00  0.00     0.166 HD
HETATM   15  C   UNL     1      32.062  51.343  40.914  1.00  0.00     0.043 A 
HETATM   16  C   UNL     1      31.941  51.777  39.591  1.00  0.00    -0.001 A 
HETATM   17  C   UNL     1      33.301  51.079  41.509  1.00  0.00     0.030 A 
HETATM   18  C   UNL     1      34.447  51.266  40.730  1.00  0.00     0.002 A 
HETATM   19  C   UNL     1      34.357  51.707  39.412  1.00  0.00     0.001 A 
HETATM   20  C   UNL     1      33.111  51.965  38.830  1.00  0.00     0.014 A 
ENDROOT
BRANCH   5  21
HETATM   21  C   UNL     1      27.849  47.739  40.061  1.00  0.00     0.063 A 
HETATM   22  C   UNL     1      29.059  47.128  39.700  1.00  0.00     0.060 A 
HETATM   23  C   UNL     1      29.120  45.737  39.533  1.00  0.00     0.019 A 
HETATM   24  C   UNL     1      27.987  44.955  39.756  1.00  0.00     0.001 A 
HETATM   25  C   UNL     1      26.795  45.553  40.159  1.00  0.00     0.002 A 
HETATM   26  C   UNL     1      26.722  46.939  40.313  1.00  0.00     0.031 A 
BRANCH  22  27
HETATM   27  C   UNL     1      30.327  47.885  39.554  1.00  0.00     0.268 C 
HETATM   28  N   UNL     1      31.266  47.678  40.559  1.00  0.00    -0.290 N 
HETATM   29  H   UNL     1      31.111  46.986  41.293  1.00  0.00     0.183 HD
HETATM   30  O   UNL     1      30.538  48.581  38.565  1.00  0.00    -0.266 OA
BRANCH  28  31
HETATM   31  N   UNL     1      32.532  48.288  40.460  1.00  0.00    -0.247 NA
HETATM   32  H   UNL     1      32.372  49.247  40.124  1.00  0.00     0.143 HD
HETATM   33  H   UNL     1      33.021  47.851  39.671  1.00  0.00     0.143 HD
ENDBRANCH  28  31
ENDBRANCH  22  27
ENDBRANCH   5  21
TORSDOF 3
ENDMDL
MODEL 4
REMARK VINA RESULT:      -8.0     11.178     13.493
REMARK  3 active torsions:
REMARK  status: ('A' for Active; 'I' for Inactive)
REMARK    1  A    between atoms: N_5  and  C_6 
REMARK    2  A    between atoms: C_7  and  C_8 
REMARK       I    between atoms: C_8  and  N_9 
REMARK    3  A    between atoms: N_9  and  N_10 
ROOT
HETATM    1  C   UNL     1      18.453  48.903  50.950  1.00  0.00     0.056 C 
HETATM    2  C   UNL     1      18.896  49.121  49.514  1.00  0.00     0.158 C 
HETATM    3  C   UNL     1      18.484  47.973  48.586  1.00  0.00     0.267 C 
HETATM    4  O   UNL     1      18.783  46.796  48.767  1.00  0.00    -0.269 OA
HETATM    5  N   UNL     1      17.889  48.525  47.470  1.00  0.00    -0.230 N 
HETATM    6  C   UNL     1      17.900  49.897  47.558  1.00  0.00     0.333 C 
HETATM    7  O   UNL     1      17.665  50.688  46.656  1.00  0.00    -0.246 OA
HETATM    8  N   UNL     1      18.249  50.255  48.864  1.00  0.00    -0.309 N 
HETATM    9  C   UNL     1      18.722  51.612  49.163  1.00  0.00     0.134 C 
HETATM   10  C   UNL     1      20.203  51.806  48.771  1.00  0.00     0.061 C 
HETATM   11  C   UNL     1      20.987  50.557  49.033  1.00  0.00    -0.018 A 
HETATM   12  C   UNL     1      20.379  49.360  49.373  1.00  0.00     0.055 A 
HETATM   13  N   UNL     1      21.349  48.394  49.449  1.00  0.00    -0.356 N 
HETATM   14  H   UNL     1      21.188  47.411  49.632  1.00  0.00     0.166 HD
HETATM   15  C   UNL     1      22.569  48.936  49.104  1.00  0.00     0.043 A 
HETATM   16  C   UNL     1      22.373  50.299  48.863  1.00  0.00    -0.001 A 
HETATM   17  C   UNL     1      23.818  48.320  48.965  1.00  0.00     0.030 A 
HETATM   18  C   UNL     1      24.896  49.119  48.571  1.00  0.00     0.002 A 
HETATM   19  C   UNL     1      24.732  50.482  48.333  1.00  0.00     0.001 A 
HETATM   20  C   UNL     1      23.476  51.084  48.475  1.00  0.00     0.014 A 
ENDROOT
BRANCH   5  21
HETATM   21  C   UNL     1      17.871  47.812  46.253  1.00  0.00     0.063 A 
HETATM   22  C   UNL     1      16.691  47.231  45.763  1.00  0.00     0.060 A 
HETATM   23  C   UNL     1      16.745  46.348  44.675  1.00  0.00     0.019 A 
HETATM   24  C   UNL     1      17.965  46.069  44.058  1.00  0.00     0.001 A 
HETATM   25  C   UNL     1      19.132  46.679  44.514  1.00  0.00     0.002 A 
HETATM   26  C   UNL     1      19.089  47.549  45.607  1.00  0.00     0.031 A 
BRANCH  22  27
HETATM   27  C   UNL     1      15.350  47.567  46.298  1.00  0.00     0.268 C 
HETATM   28  N   UNL     1      14.286  47.343  45.429  1.00  0.00    -0.290 N 
HETATM   29  H   UNL     1      14.429  46.899  44.522  1.00  0.00     0.183 HD
HETATM   30  O   UNL     1      15.207  47.943  47.458  1.00  0.00    -0.266 OA
BRANCH  28  31
HETATM   31  N   UNL     1      12.967  47.552  45.881  1.00  0.00    -0.247 NA
HETATM   32  H   UNL     1      12.682  46.690  46.365  1.00  0.00     0.143 HD
HETATM   33  H   UNL     1      12.359  47.560  45.056  1.00  0.00     0.143 HD
ENDBRANCH  28  31
ENDBRANCH  22  27
ENDBRANCH   5  21
TORSDOF 3
ENDMDL
MODEL 5
REMARK VINA RESULT:      -7.9      2.489      6.496
REMARK  3 active torsions:
REMARK  status: ('A' for Active; 'I' for Inactive)
REMARK    1  A    between atoms: N_5  and  C_6 
REMARK    2  A    between atoms: C_7  and  C_8 
REMARK       I    between atoms: C_8  and  N_9 
REMARK    3  A    between atoms: N_9  and  N_10 
ROOT
HETATM    1  C   UNL     1      27.508  49.896  37.983  1.00  0.00     0.056 C 
HETATM    2  C   UNL     1      28.302  49.146  39.038  1.00  0.00     0.158 C 
HETATM    3  C   UNL     1      29.731  49.678  39.195  1.00  0.00     0.267 C 
HETATM    4  O   UNL     1      30.543  49.758  38.277  1.00  0.00    -0.269 OA
HETATM    5  N   UNL     1      29.965  49.873  40.540  1.00  0.00    -0.230 N 
HETATM    6  C   UNL     1      28.861  49.497  41.271  1.00  0.00     0.333 C 
HETATM    7  O   UNL     1      28.811  49.327  42.481  1.00  0.00    -0.246 OA
HETATM    8  N   UNL     1      27.788  49.316  40.393  1.00  0.00    -0.309 N 
HETATM    9  C   UNL     1      26.608  48.549  40.808  1.00  0.00     0.134 C 
HETATM   10  C   UNL     1      26.854  47.026  40.736  1.00  0.00     0.061 C 
HETATM   11  C   UNL     1      27.717  46.686  39.559  1.00  0.00    -0.018 A 
HETATM   12  C   UNL     1      28.354  47.657  38.805  1.00  0.00     0.055 A 
HETATM   13  N   UNL     1      29.137  47.027  37.873  1.00  0.00    -0.356 N 
HETATM   14  H   UNL     1      29.756  47.487  37.215  1.00  0.00     0.166 HD
HETATM   15  C   UNL     1      29.062  45.661  38.052  1.00  0.00     0.043 A 
HETATM   16  C   UNL     1      28.157  45.420  39.089  1.00  0.00    -0.001 A 
HETATM   17  C   UNL     1      29.743  44.631  37.394  1.00  0.00     0.030 A 
HETATM   18  C   UNL     1      29.490  43.319  37.806  1.00  0.00     0.002 A 
HETATM   19  C   UNL     1      28.585  43.049  38.830  1.00  0.00     0.001 A 
HETATM   20  C   UNL     1      27.913  44.090  39.480  1.00  0.00     0.014 A 
ENDROOT
BRANCH   5  21
HETATM   21  C   UNL     1      31.284  49.858  41.038  1.00  0.00     0.063 A 
HETATM   22  C   UNL     1      31.943  51.043  41.399  1.00  0.00     0.060 A 
HETATM   23  C   UNL     1      33.317  51.023  41.678  1.00  0.00     0.019 A 
HETATM   24  C   UNL     1      34.025  49.822  41.629  1.00  0.00     0.001 A 
HETATM   25  C   UNL     1      33.364  48.635  41.315  1.00  0.00     0.002 A 
HETATM   26  C   UNL     1      31.998  48.650  41.021  1.00  0.00     0.031 A 
BRANCH  22  27
HETATM   27  C   UNL     1      31.234  52.333  41.578  1.00  0.00     0.268 C 
HETATM   28  N   UNL     1      31.652  53.366  40.746  1.00  0.00    -0.290 N 
HETATM   29  H   UNL     1      32.342  53.206  40.011  1.00  0.00     0.183 HD
HETATM   30  O   UNL     1      30.294  52.436  42.361  1.00  0.00    -0.266 OA
BRANCH  28  31
HETATM   31  N   UNL     1      30.978  54.603  40.784  1.00  0.00    -0.247 NA
HETATM   32  H   UNL     1      29.972  54.390  40.772  1.00  0.00     0.143 HD
HETATM   33  H   UNL     1      31.124  55.059  39.877  1.00  0.00     0.143 HD
ENDBRANCH  28  31
ENDBRANCH  22  27
ENDBRANCH   5  21
TORSDOF 3
ENDMDL
MODEL 6
REMARK VINA RESULT:      -7.7     24.999     27.189
REMARK  3 active torsions:
REMARK  status: ('A' for Active; 'I' for Inactive)
REMARK    1  A    between atoms: N_5  and  C_6 
REMARK    2  A    between atoms: C_7  and  C_8 
REMARK       I    between atoms: C_8  and  N_9 
REMARK    3  A    between atoms: N_9  and  N_10 
ROOT
HETATM    1  C   UNL     1      38.269  44.446  69.398  1.00  0.00     0.056 C 
HETATM    2  C   UNL     1      38.021  44.626  67.911  1.00  0.00     0.158 C 
HETATM    3  C   UNL     1      38.861  43.676  67.051  1.00  0.00     0.267 C 
HETATM    4  O   UNL     1      40.086  43.604  67.095  1.00  0.00    -0.269 OA
HETATM    5  N   UNL     1      38.019  43.076  66.137  1.00  0.00    -0.230 N 
HETATM    6  C   UNL     1      36.739  43.554  66.290  1.00  0.00     0.333 C 
HETATM    7  O   UNL     1      35.808  43.408  65.510  1.00  0.00    -0.246 OA
HETATM    8  N   UNL     1      36.671  44.266  67.491  1.00  0.00    -0.309 N 
HETATM    9  C   UNL     1      35.574  45.209  67.737  1.00  0.00     0.134 C 
HETATM   10  C   UNL     1      35.796  46.555  67.015  1.00  0.00     0.061 C 
HETATM   11  C   UNL     1      37.249  46.922  67.020  1.00  0.00    -0.018 A 
HETATM   12  C   UNL     1      38.233  46.041  67.433  1.00  0.00     0.055 A 
HETATM   13  N   UNL     1      39.452  46.634  67.228  1.00  0.00    -0.356 N 
HETATM   14  H   UNL     1      40.353  46.202  67.394  1.00  0.00     0.166 HD
HETATM   15  C   UNL     1      39.273  47.864  66.631  1.00  0.00     0.043 A 
HETATM   16  C   UNL     1      37.897  48.080  66.512  1.00  0.00    -0.001 A 
HETATM   17  C   UNL     1      40.220  48.784  66.168  1.00  0.00     0.030 A 
HETATM   18  C   UNL     1      39.749  49.956  65.570  1.00  0.00     0.002 A 
HETATM   19  C   UNL     1      38.383  50.202  65.447  1.00  0.00     0.001 A 
HETATM   20  C   UNL     1      37.447  49.272  65.913  1.00  0.00     0.014 A 
ENDROOT
BRANCH   5  21
HETATM   21  C   UNL     1      38.535  42.571  64.925  1.00  0.00     0.063 A 
HETATM   22  C   UNL     1      38.620  43.372  63.776  1.00  0.00     0.060 A 
HETATM   23  C   UNL     1      38.925  42.789  62.538  1.00  0.00     0.019 A 
HETATM   24  C   UNL     1      39.178  41.420  62.450  1.00  0.00     0.001 A 
HETATM   25  C   UNL     1      39.140  40.629  63.598  1.00  0.00     0.002 A 
HETATM   26  C   UNL     1      38.821  41.200  64.833  1.00  0.00     0.031 A 
BRANCH  22  27
HETATM   27  C   UNL     1      38.472  44.847  63.814  1.00  0.00     0.268 C 
HETATM   28  N   UNL     1      37.242  45.336  63.383  1.00  0.00    -0.290 N 
HETATM   29  H   UNL     1      36.478  44.705  63.142  1.00  0.00     0.183 HD
HETATM   30  O   UNL     1      39.360  45.561  64.269  1.00  0.00    -0.266 OA
BRANCH  28  31
HETATM   31  N   UNL     1      36.980  46.718  63.464  1.00  0.00    -0.247 NA
HETATM   32  H   UNL     1      37.713  47.122  64.063  1.00  0.00     0.143 HD
HETATM   33  H   UNL     1      36.134  46.836  64.031  1.00  0.00     0.143 HD
ENDBRANCH  28  31
ENDBRANCH  22  27
ENDBRANCH   5  21
TORSDOF 3
ENDMDL
MODEL 7
REMARK VINA RESULT:      -7.7      2.212      6.529
REMARK  3 active torsions:
REMARK  status: ('A' for Active; 'I' for Inactive)
REMARK    1  A    between atoms: N_5  and  C_6 
REMARK    2  A    between atoms: C_7  and  C_8 
REMARK       I    between atoms: C_8  and  N_9 
REMARK    3  A    between atoms: N_9  and  N_10 
ROOT
HETATM    1  C   UNL     1      27.598  46.555  41.654  1.00  0.00     0.056 C 
HETATM    2  C   UNL     1      27.773  47.624  40.590  1.00  0.00     0.158 C 
HETATM    3  C   UNL     1      28.329  48.936  41.153  1.00  0.00     0.267 C 
HETATM    4  O   UNL     1      27.810  49.572  42.066  1.00  0.00    -0.269 OA
HETATM    5  N   UNL     1      29.379  49.330  40.349  1.00  0.00    -0.230 N 
HETATM    6  C   UNL     1      29.543  48.438  39.315  1.00  0.00     0.333 C 
HETATM    7  O   UNL     1      30.220  48.603  38.310  1.00  0.00    -0.246 OA
HETATM    8  N   UNL     1      28.781  47.297  39.588  1.00  0.00    -0.309 N 
HETATM    9  C   UNL     1      28.440  46.356  38.515  1.00  0.00     0.134 C 
HETATM   10  C   UNL     1      27.268  46.866  37.650  1.00  0.00     0.061 C 
HETATM   11  C   UNL     1      26.264  47.590  38.495  1.00  0.00    -0.018 A 
HETATM   12  C   UNL     1      26.510  47.916  39.818  1.00  0.00     0.055 A 
HETATM   13  N   UNL     1      25.450  48.652  40.281  1.00  0.00    -0.356 N 
HETATM   14  H   UNL     1      25.379  49.068  41.202  1.00  0.00     0.166 HD
HETATM   15  C   UNL     1      24.549  48.859  39.257  1.00  0.00     0.043 A 
HETATM   16  C   UNL     1      25.025  48.181  38.132  1.00  0.00    -0.001 A 
HETATM   17  C   UNL     1      23.370  49.612  39.238  1.00  0.00     0.030 A 
HETATM   18  C   UNL     1      22.657  49.672  38.037  1.00  0.00     0.002 A 
HETATM   19  C   UNL     1      23.102  48.998  36.902  1.00  0.00     0.001 A 
HETATM   20  C   UNL     1      24.285  48.250  36.936  1.00  0.00     0.014 A 
ENDROOT
BRANCH   5  21
HETATM   21  C   UNL     1      29.751  50.689  40.287  1.00  0.00     0.063 A 
HETATM   22  C   UNL     1      30.908  51.161  40.926  1.00  0.00     0.060 A 
HETATM   23  C   UNL     1      31.134  52.540  41.034  1.00  0.00     0.019 A 
HETATM   24  C   UNL     1      30.228  53.445  40.481  1.00  0.00     0.001 A 
HETATM   25  C   UNL     1      29.101  52.979  39.807  1.00  0.00     0.002 A 
HETATM   26  C   UNL     1      28.861  51.606  39.707  1.00  0.00     0.031 A 
BRANCH  22  27
HETATM   27  C   UNL     1      31.967  50.257  41.439  1.00  0.00     0.268 C 
HETATM   28  N   UNL     1      32.817  49.725  40.475  1.00  0.00    -0.290 N 
HETATM   29  H   UNL     1      32.755  50.013  39.498  1.00  0.00     0.183 HD
HETATM   30  O   UNL     1      32.108  50.068  42.643  1.00  0.00    -0.266 OA
BRANCH  28  31
HETATM   31  N   UNL     1      33.905  48.924  40.877  1.00  0.00    -0.247 NA
HETATM   32  H   UNL     1      34.627  49.565  41.232  1.00  0.00     0.143 HD
HETATM   33  H   UNL     1      34.336  48.545  40.028  1.00  0.00     0.143 HD
ENDBRANCH  28  31
ENDBRANCH  22  27
ENDBRANCH   5  21
TORSDOF 3
ENDMDL
MODEL 8
REMARK VINA RESULT:      -7.5     25.729     27.166
REMARK  3 active torsions:
REMARK  status: ('A' for Active; 'I' for Inactive)
REMARK    1  A    between atoms: N_5  and  C_6 
REMARK    2  A    between atoms: C_7  and  C_8 
REMARK       I    between atoms: C_8  and  N_9 
REMARK    3  A    between atoms: N_9  and  N_10 
ROOT
HETATM    1  C   UNL     1      41.627  45.343  63.839  1.00  0.00     0.056 C 
HETATM    2  C   UNL     1      40.567  45.372  64.924  1.00  0.00     0.158 C 
HETATM    3  C   UNL     1      39.299  44.604  64.534  1.00  0.00     0.267 C 
HETATM    4  O   UNL     1      38.635  44.832  63.527  1.00  0.00    -0.269 OA
HETATM    5  N   UNL     1      38.972  43.767  65.581  1.00  0.00    -0.230 N 
HETATM    6  C   UNL     1      39.866  43.931  66.614  1.00  0.00     0.333 C 
HETATM    7  O   UNL     1      39.741  43.520  67.759  1.00  0.00    -0.246 OA
HETATM    8  N   UNL     1      40.954  44.673  66.145  1.00  0.00    -0.309 N 
HETATM    9  C   UNL     1      41.864  45.337  67.086  1.00  0.00     0.134 C 
HETATM   10  C   UNL     1      41.269  46.653  67.632  1.00  0.00     0.061 C 
HETATM   11  C   UNL     1      40.485  47.359  66.569  1.00  0.00    -0.018 A 
HETATM   12  C   UNL     1      40.185  46.766  65.355  1.00  0.00     0.055 A 
HETATM   13  N   UNL     1      39.381  47.622  64.648  1.00  0.00    -0.356 N 
HETATM   14  H   UNL     1      38.967  47.430  63.743  1.00  0.00     0.166 HD
HETATM   15  C   UNL     1      39.106  48.736  65.413  1.00  0.00     0.043 A 
HETATM   16  C   UNL     1      39.808  48.607  66.614  1.00  0.00    -0.001 A 
HETATM   17  C   UNL     1      38.275  49.829  65.141  1.00  0.00     0.030 A 
HETATM   18  C   UNL     1      38.160  50.817  66.124  1.00  0.00     0.002 A 
HETATM   19  C   UNL     1      38.855  50.719  67.327  1.00  0.00     0.001 A 
HETATM   20  C   UNL     1      39.682  49.620  67.585  1.00  0.00     0.014 A 
ENDROOT
BRANCH   5  21
HETATM   21  C   UNL     1      37.641  43.332  65.750  1.00  0.00     0.063 A 
HETATM   22  C   UNL     1      37.142  42.216  65.061  1.00  0.00     0.060 A 
HETATM   23  C   UNL     1      35.768  41.941  65.076  1.00  0.00     0.019 A 
HETATM   24  C   UNL     1      34.898  42.755  65.802  1.00  0.00     0.001 A 
HETATM   25  C   UNL     1      35.395  43.837  66.525  1.00  0.00     0.002 A 
HETATM   26  C   UNL     1      36.762  44.127  66.502  1.00  0.00     0.031 A 
BRANCH  22  27
HETATM   27  C   UNL     1      38.021  41.248  64.361  1.00  0.00     0.268 C 
HETATM   28  N   UNL     1      38.344  41.574  63.047  1.00  0.00    -0.290 N 
HETATM   29  H   UNL     1      38.057  42.464  62.639  1.00  0.00     0.183 HD
HETATM   30  O   UNL     1      38.479  40.271  64.946  1.00  0.00    -0.266 OA
BRANCH  28  31
HETATM   31  N   UNL     1      39.242  40.757  62.332  1.00  0.00    -0.247 NA
HETATM   32  H   UNL     1      39.939  40.421  63.010  1.00  0.00     0.143 HD
HETATM   33  H   UNL     1      39.795  41.371  61.724  1.00  0.00     0.143 HD
ENDBRANCH  28  31
ENDBRANCH  22  27
ENDBRANCH   5  21
TORSDOF 3
ENDMDL
MODEL 9
REMARK VINA RESULT:      -7.3     10.952     13.782
REMARK  3 active torsions:
REMARK  status: ('A' for Active; 'I' for Inactive)
REMARK    1  A    between atoms: N_5  and  C_6 
REMARK    2  A    between atoms: C_7  and  C_8 
REMARK       I    between atoms: C_8  and  N_9 
REMARK    3  A    between atoms: N_9  and  N_10 
ROOT
HETATM    1  C   UNL     1      16.417  49.654  46.664  1.00  0.00     0.056 C 
HETATM    2  C   UNL     1      17.655  48.892  47.103  1.00  0.00     0.158 C 
HETATM    3  C   UNL     1      18.933  49.732  47.008  1.00  0.00     0.267 C 
HETATM    4  O   UNL     1      19.324  50.281  45.982  1.00  0.00    -0.269 OA
HETATM    5  N   UNL     1      19.611  49.608  48.203  1.00  0.00    -0.230 N 
HETATM    6  C   UNL     1      18.932  48.758  49.045  1.00  0.00     0.333 C 
HETATM    7  O   UNL     1      19.360  48.256  50.075  1.00  0.00    -0.246 OA
HETATM    8  N   UNL     1      17.656  48.536  48.518  1.00  0.00    -0.309 N 
HETATM    9  C   UNL     1      16.854  47.391  48.964  1.00  0.00     0.134 C 
HETATM   10  C   UNL     1      17.302  46.075  48.292  1.00  0.00     0.061 C 
HETATM   11  C   UNL     1      17.714  46.322  46.872  1.00  0.00    -0.018 A 
HETATM   12  C   UNL     1      17.860  47.598  46.356  1.00  0.00     0.055 A 
HETATM   13  N   UNL     1      18.336  47.489  45.075  1.00  0.00    -0.356 N 
HETATM   14  H   UNL     1      18.584  48.263  44.470  1.00  0.00     0.166 HD
HETATM   15  C   UNL     1      18.557  46.161  44.775  1.00  0.00     0.043 A 
HETATM   16  C   UNL     1      18.150  45.405  45.879  1.00  0.00    -0.001 A 
HETATM   17  C   UNL     1      19.106  45.579  43.627  1.00  0.00     0.030 A 
HETATM   18  C   UNL     1      19.241  44.187  43.606  1.00  0.00     0.002 A 
HETATM   19  C   UNL     1      18.835  43.409  44.687  1.00  0.00     0.001 A 
HETATM   20  C   UNL     1      18.289  44.005  45.829  1.00  0.00     0.014 A 
ENDROOT
BRANCH   5  21
HETATM   21  C   UNL     1      21.004  49.821  48.251  1.00  0.00     0.063 A 
HETATM   22  C   UNL     1      21.912  48.758  48.133  1.00  0.00     0.060 A 
HETATM   23  C   UNL     1      23.272  48.965  48.404  1.00  0.00     0.019 A 
HETATM   24  C   UNL     1      23.731  50.233  48.760  1.00  0.00     0.001 A 
HETATM   25  C   UNL     1      22.839  51.301  48.834  1.00  0.00     0.002 A 
HETATM   26  C   UNL     1      21.480  51.100  48.581  1.00  0.00     0.031 A 
BRANCH  22  27
HETATM   27  C   UNL     1      21.512  47.412  47.653  1.00  0.00     0.268 C 
HETATM   28  N   UNL     1      21.325  46.455  48.646  1.00  0.00    -0.290 N 
HETATM   29  H   UNL     1      21.380  46.702  49.634  1.00  0.00     0.183 HD
HETATM   30  O   UNL     1      21.296  47.202  46.464  1.00  0.00    -0.266 OA
BRANCH  28  31
HETATM   31  N   UNL     1      20.861  45.172  48.292  1.00  0.00    -0.247 NA
HETATM   32  H   UNL     1      21.580  44.504  48.600  1.00  0.00     0.143 HD
HETATM   33  H   UNL     1      20.910  45.101  47.270  1.00  0.00     0.143 HD
ENDBRANCH  28  31
ENDBRANCH  22  27
ENDBRANCH   5  21
TORSDOF 3
ENDMDL
MODEL 10
REMARK VINA RESULT:      -7.3     25.287     27.032
REMARK  3 active torsions:
REMARK  status: ('A' for Active; 'I' for Inactive)
REMARK    1  A    between atoms: N_5  and  C_6 
REMARK    2  A    between atoms: C_7  and  C_8 
REMARK       I    between atoms: C_8  and  N_9 
REMARK    3  A    between atoms: N_9  and  N_10 
ROOT
HETATM    1  C   UNL     1      36.236  48.645  67.854  1.00  0.00     0.056 C 
HETATM    2  C   UNL     1      36.864  47.608  66.941  1.00  0.00     0.158 C 
HETATM    3  C   UNL     1      36.345  46.191  67.207  1.00  0.00     0.267 C 
HETATM    4  O   UNL     1      36.395  45.630  68.299  1.00  0.00    -0.269 OA
HETATM    5  N   UNL     1      35.990  45.636  65.995  1.00  0.00    -0.230 N 
HETATM    6  C   UNL     1      36.250  46.521  64.976  1.00  0.00     0.333 C 
HETATM    7  O   UNL     1      36.268  46.271  63.779  1.00  0.00    -0.246 OA
HETATM    8  N   UNL     1      36.518  47.775  65.534  1.00  0.00    -0.309 N 
HETATM    9  C   UNL     1      37.204  48.809  64.750  1.00  0.00     0.134 C 
HETATM   10  C   UNL     1      38.728  48.570  64.689  1.00  0.00     0.061 C 
HETATM   11  C   UNL     1      39.229  48.019  65.989  1.00  0.00    -0.018 A 
HETATM   12  C   UNL     1      38.372  47.598  66.992  1.00  0.00     0.055 A 
HETATM   13  N   UNL     1      39.127  47.061  68.002  1.00  0.00    -0.356 N 
HETATM   14  H   UNL     1      38.765  46.628  68.844  1.00  0.00     0.166 HD
HETATM   15  C   UNL     1      40.459  47.074  67.640  1.00  0.00     0.043 A 
HETATM   16  C   UNL     1      40.551  47.694  66.391  1.00  0.00    -0.001 A 
HETATM   17  C   UNL     1      41.575  46.564  68.311  1.00  0.00     0.030 A 
HETATM   18  C   UNL     1      42.821  46.693  67.689  1.00  0.00     0.002 A 
HETATM   19  C   UNL     1      42.945  47.315  66.449  1.00  0.00     0.001 A 
HETATM   20  C   UNL     1      41.818  47.819  65.789  1.00  0.00     0.014 A 
ENDROOT
BRANCH   5  21
HETATM   21  C   UNL     1      35.968  44.235  65.839  1.00  0.00     0.063 A 
HETATM   22  C   UNL     1      37.080  43.537  65.342  1.00  0.00     0.060 A 
HETATM   23  C   UNL     1      36.957  42.185  64.990  1.00  0.00     0.019 A 
HETATM   24  C   UNL     1      35.742  41.523  65.162  1.00  0.00     0.001 A 
HETATM   25  C   UNL     1      34.648  42.201  65.698  1.00  0.00     0.002 A 
HETATM   26  C   UNL     1      34.758  43.552  66.037  1.00  0.00     0.031 A 
BRANCH  22  27
HETATM   27  C   UNL     1      38.428  44.146  65.236  1.00  0.00     0.268 C 
HETATM   28  N   UNL     1      38.785  44.590  63.966  1.00  0.00    -0.290 N 
HETATM   29  H   UNL     1      38.121  44.567  63.192  1.00  0.00     0.183 HD
HETATM   30  O   UNL     1      39.131  44.305  66.229  1.00  0.00    -0.266 OA
BRANCH  28  31
HETATM   31  N   UNL     1      40.012  45.260  63.787  1.00  0.00    -0.247 NA
HETATM   32  H   UNL     1      39.784  46.246  63.599  1.00  0.00     0.143 HD
HETATM   33  H   UNL     1      40.405  44.944  62.894  1.00  0.00     0.143 HD
ENDBRANCH  28  31
ENDBRANCH  22  27
ENDBRANCH   5  21
TORSDOF 3
ENDMDL
