MODEL 1
REMARK VINA RESULT:      -9.4      0.000      0.000
REMARK  3 active torsions:
REMARK  status: ('A' for Active; 'I' for Inactive)
REMARK    1  A    between atoms: O_2  and  C_3 
REMARK    2  A    between atoms: C_9  and  C_10 
REMARK       I    between atoms: C_10  and  N_11 
REMARK    3  A    between atoms: N_11  and  C_12 
ROOT
HETATM    1  C   UNL     1      30.725  44.280  56.450  1.00  0.00     0.068 A 
HETATM    2  C   UNL     1      29.748  45.259  56.258  1.00  0.00     0.044 A 
HETATM    3  C   UNL     1      28.880  45.197  55.159  1.00  0.00    -0.043 A 
HETATM    4  C   UNL     1      29.025  44.151  54.219  1.00  0.00    -0.001 A 
HETATM    5  C   UNL     1      28.065  44.124  53.129  1.00  0.00     0.069 A 
HETATM    6  C   UNL     1      26.930  44.903  53.077  1.00  0.00     0.007 A 
HETATM    7  C   UNL     1      26.251  44.516  51.896  1.00  0.00     0.153 A 
HETATM    8  N   UNL     1      26.949  43.562  51.234  1.00  0.00    -0.168 NA
HETATM    9  N   UNL     1      28.044  43.362  52.001  1.00  0.00    -0.276 N 
HETATM   10  H   UNL     1      28.730  42.681  51.695  1.00  0.00     0.189 HD
HETATM   11  C   UNL     1      26.585  45.856  54.166  1.00  0.00     0.048 C 
HETATM   12  C   UNL     1      27.851  46.299  54.936  1.00  0.00     0.044 C 
HETATM   13  C   UNL     1      30.020  43.188  54.400  1.00  0.00     0.017 A 
HETATM   14  C   UNL     1      30.866  43.253  55.515  1.00  0.00     0.037 A 
ENDROOT
BRANCH   7  15
HETATM   15  C   UNL     1      24.938  44.994  51.414  1.00  0.00     0.277 C 
HETATM   16  N   UNL     1      25.077  45.963  50.439  1.00  0.00    -0.319 N 
HETATM   17  H   UNL     1      26.047  46.100  50.162  1.00  0.00     0.169 HD
HETATM   18  O   UNL     1      23.893  44.501  51.818  1.00  0.00    -0.266 OA
BRANCH  16  19
HETATM   19  C   UNL     1      24.069  46.616  49.706  1.00  0.00     0.074 A 
HETATM   20  C   UNL     1      23.195  46.001  48.799  1.00  0.00     0.144 A 
HETATM   21  F   UNL     1      23.171  44.674  48.630  1.00  0.00    -0.204 F 
HETATM   22  C   UNL     1      22.252  46.741  48.087  1.00  0.00     0.068 A 
HETATM   23  C   UNL     1      22.163  48.113  48.285  1.00  0.00     0.037 A 
HETATM   24 CL   UNL     1      21.010  49.034  47.402  1.00  0.00    -0.084 Cl
HETATM   25  C   UNL     1      22.997  48.745  49.204  1.00  0.00     0.026 A 
HETATM   26  C   UNL     1      23.939  47.996  49.920  1.00  0.00     0.034 A 
ENDBRANCH  16  19
ENDBRANCH   7  15
BRANCH   1  27
HETATM   27  O   UNL     1      31.484  44.446  57.576  1.00  0.00    -0.356 OA
HETATM   28  C   UNL     1      30.964  45.316  58.575  1.00  0.00     0.210 C 
ENDBRANCH   1  27
TORSDOF 3
ENDMDL
MODEL 2
REMARK VINA RESULT:      -9.2      4.653      6.058
REMARK  3 active torsions:
REMARK  status: ('A' for Active; 'I' for Inactive)
REMARK    1  A    between atoms: O_2  and  C_3 
REMARK    2  A    between atoms: C_9  and  C_10 
REMARK       I    between atoms: C_10  and  N_11 
REMARK    3  A    between atoms: N_11  and  C_12 
ROOT
HETATM    1  C   UNL     1      29.806  45.676  56.683  1.00  0.00     0.068 A 
HETATM    2  C   UNL     1      30.290  44.637  55.886  1.00  0.00     0.044 A 
HETATM    3  C   UNL     1      29.538  44.152  54.808  1.00  0.00    -0.043 A 
HETATM    4  C   UNL     1      28.259  44.699  54.553  1.00  0.00    -0.001 A 
HETATM    5  C   UNL     1      27.554  44.180  53.394  1.00  0.00     0.069 A 
HETATM    6  C   UNL     1      28.125  43.368  52.438  1.00  0.00     0.007 A 
HETATM    7  C   UNL     1      27.121  43.155  51.463  1.00  0.00     0.153 A 
HETATM    8  N   UNL     1      25.972  43.781  51.815  1.00  0.00    -0.168 NA
HETATM    9  N   UNL     1      26.268  44.377  52.992  1.00  0.00    -0.276 N 
HETATM   10  H   UNL     1      25.544  44.911  53.458  1.00  0.00     0.189 HD
HETATM   11  C   UNL     1      29.552  42.953  52.516  1.00  0.00     0.048 C 
HETATM   12  C   UNL     1      30.059  42.984  53.977  1.00  0.00     0.044 C 
HETATM   13  C   UNL     1      27.766  45.721  55.367  1.00  0.00     0.017 A 
HETATM   14  C   UNL     1      28.541  46.208  56.428  1.00  0.00     0.037 A 
ENDROOT
BRANCH   7  15
HETATM   15  C   UNL     1      27.244  42.415  50.189  1.00  0.00     0.277 C 
HETATM   16  N   UNL     1      27.410  41.060  50.404  1.00  0.00    -0.319 N 
HETATM   17  H   UNL     1      27.320  40.807  51.385  1.00  0.00     0.169 HD
HETATM   18  O   UNL     1      27.133  42.982  49.111  1.00  0.00    -0.266 OA
BRANCH  16  19
HETATM   19  C   UNL     1      27.510  40.031  49.450  1.00  0.00     0.074 A 
HETATM   20  C   UNL     1      26.463  39.569  48.639  1.00  0.00     0.144 A 
HETATM   21  F   UNL     1      25.264  40.164  48.625  1.00  0.00    -0.204 F 
HETATM   22  C   UNL     1      26.649  38.513  47.749  1.00  0.00     0.068 A 
HETATM   23  C   UNL     1      27.896  37.910  47.648  1.00  0.00     0.037 A 
HETATM   24 CL   UNL     1      28.129  36.599  46.559  1.00  0.00    -0.084 Cl
HETATM   25  C   UNL     1      28.962  38.370  48.417  1.00  0.00     0.026 A 
HETATM   26  C   UNL     1      28.771  39.434  49.306  1.00  0.00     0.034 A 
ENDBRANCH  16  19
ENDBRANCH   7  15
BRANCH   1  27
HETATM   27  O   UNL     1      30.654  46.070  57.682  1.00  0.00    -0.356 OA
HETATM   28  C   UNL     1      31.226  45.041  58.478  1.00  0.00     0.210 C 
ENDBRANCH   1  27
TORSDOF 3
ENDMDL
MODEL 3
REMARK VINA RESULT:      -8.8      4.348      5.889
REMARK  3 active torsions:
REMARK  status: ('A' for Active; 'I' for Inactive)
REMARK    1  A    between atoms: O_2  and  C_3 
REMARK    2  A    between atoms: C_9  and  C_10 
REMARK       I    between atoms: C_10  and  N_11 
REMARK    3  A    between atoms: N_11  and  C_12 
ROOT
HETATM    1  C   UNL     1      26.726  42.131  51.051  1.00  0.00     0.068 A 
HETATM    2  C   UNL     1      25.382  42.345  50.739  1.00  0.00     0.044 A 
HETATM    3  C   UNL     1      24.903  43.636  50.485  1.00  0.00    -0.043 A 
HETATM    4  C   UNL     1      25.787  44.736  50.585  1.00  0.00    -0.001 A 
HETATM    5  C   UNL     1      25.233  46.041  50.267  1.00  0.00     0.069 A 
HETATM    6  C   UNL     1      23.999  46.238  49.687  1.00  0.00     0.007 A 
HETATM    7  C   UNL     1      23.885  47.636  49.490  1.00  0.00     0.153 A 
HETATM    8  N   UNL     1      24.985  48.275  49.954  1.00  0.00    -0.168 NA
HETATM    9  N   UNL     1      25.770  47.281  50.428  1.00  0.00    -0.276 N 
HETATM   10  H   UNL     1      26.663  47.526  50.839  1.00  0.00     0.189 HD
HETATM   11  C   UNL     1      23.114  45.099  49.325  1.00  0.00     0.048 C 
HETATM   12  C   UNL     1      23.423  43.858  50.195  1.00  0.00     0.044 C 
HETATM   13  C   UNL     1      27.125  44.523  50.922  1.00  0.00     0.017 A 
HETATM   14  C   UNL     1      27.592  43.222  51.152  1.00  0.00     0.037 A 
ENDROOT
BRANCH   7  15
HETATM   15  C   UNL     1      22.782  48.366  48.830  1.00  0.00     0.277 C 
HETATM   16  N   UNL     1      21.980  49.014  49.750  1.00  0.00    -0.319 N 
HETATM   17  H   UNL     1      22.346  48.953  50.697  1.00  0.00     0.169 HD
HETATM   18  O   UNL     1      22.689  48.410  47.611  1.00  0.00    -0.266 OA
BRANCH  16  19
HETATM   19  C   UNL     1      20.872  49.847  49.508  1.00  0.00     0.074 A 
HETATM   20  C   UNL     1      20.919  51.102  48.887  1.00  0.00     0.144 A 
HETATM   21  F   UNL     1      22.047  51.585  48.351  1.00  0.00    -0.204 F 
HETATM   22  C   UNL     1      19.770  51.876  48.728  1.00  0.00     0.068 A 
HETATM   23  C   UNL     1      18.548  51.392  49.181  1.00  0.00     0.037 A 
HETATM   24 CL   UNL     1      17.129  52.345  48.999  1.00  0.00    -0.084 Cl
HETATM   25  C   UNL     1      18.468  50.134  49.773  1.00  0.00     0.026 A 
HETATM   26  C   UNL     1      19.625  49.361  49.925  1.00  0.00     0.034 A 
ENDBRANCH  16  19
ENDBRANCH   7  15
BRANCH   1  27
HETATM   27  O   UNL     1      27.065  40.820  51.246  1.00  0.00    -0.356 OA
HETATM   28  C   UNL     1      28.082  40.291  50.405  1.00  0.00     0.210 C 
ENDBRANCH   1  27
TORSDOF 3
ENDMDL
MODEL 4
REMARK VINA RESULT:      -8.7      3.079      3.540
REMARK  3 active torsions:
REMARK  status: ('A' for Active; 'I' for Inactive)
REMARK    1  A    between atoms: O_2  and  C_3 
REMARK    2  A    between atoms: C_9  and  C_10 
REMARK       I    between atoms: C_10  and  N_11 
REMARK    3  A    between atoms: N_11  and  C_12 
ROOT
HETATM    1  C   UNL     1      30.182  45.078  56.278  1.00  0.00     0.068 A 
HETATM    2  C   UNL     1      29.047  45.376  55.523  1.00  0.00     0.044 A 
HETATM    3  C   UNL     1      28.641  44.534  54.478  1.00  0.00    -0.043 A 
HETATM    4  C   UNL     1      29.416  43.393  54.166  1.00  0.00    -0.001 A 
HETATM    5  C   UNL     1      28.914  42.542  53.101  1.00  0.00     0.069 A 
HETATM    6  C   UNL     1      27.661  42.660  52.541  1.00  0.00     0.007 A 
HETATM    7  C   UNL     1      27.557  41.606  51.602  1.00  0.00     0.153 A 
HETATM    8  N   UNL     1      28.705  40.886  51.563  1.00  0.00    -0.168 NA
HETATM    9  N   UNL     1      29.504  41.490  52.471  1.00  0.00    -0.276 N 
HETATM   10  H   UNL     1      30.437  41.121  52.613  1.00  0.00     0.189 HD
HETATM   11  C   UNL     1      26.693  43.693  53.000  1.00  0.00     0.048 C 
HETATM   12  C   UNL     1      27.428  44.899  53.631  1.00  0.00     0.044 C 
HETATM   13  C   UNL     1      30.565  43.111  54.907  1.00  0.00     0.017 A 
HETATM   14  C   UNL     1      30.945  43.952  55.961  1.00  0.00     0.037 A 
ENDROOT
BRANCH   7  15
HETATM   15  C   UNL     1      26.382  41.239  50.784  1.00  0.00     0.277 C 
HETATM   16  N   UNL     1      25.894  42.325  50.082  1.00  0.00    -0.319 N 
HETATM   17  H   UNL     1      26.485  43.147  50.177  1.00  0.00     0.169 HD
HETATM   18  O   UNL     1      25.983  40.084  50.724  1.00  0.00    -0.266 OA
BRANCH  16  19
HETATM   19  C   UNL     1      24.829  42.364  49.164  1.00  0.00     0.074 A 
HETATM   20  C   UNL     1      24.821  41.755  47.901  1.00  0.00     0.144 A 
HETATM   21  F   UNL     1      25.820  40.963  47.492  1.00  0.00    -0.204 F 
HETATM   22  C   UNL     1      23.731  41.884  47.041  1.00  0.00     0.068 A 
HETATM   23  C   UNL     1      22.622  42.617  47.443  1.00  0.00     0.037 A 
HETATM   24 CL   UNL     1      21.278  42.790  46.384  1.00  0.00    -0.084 Cl
HETATM   25  C   UNL     1      22.589  43.205  48.706  1.00  0.00     0.026 A 
HETATM   26  C   UNL     1      23.685  43.069  49.566  1.00  0.00     0.034 A 
ENDBRANCH  16  19
ENDBRANCH   7  15
BRANCH   1  27
HETATM   27  O   UNL     1      30.447  45.967  57.284  1.00  0.00    -0.356 OA
HETATM   28  C   UNL     1      30.830  45.417  58.538  1.00  0.00     0.210 C 
ENDBRANCH   1  27
TORSDOF 3
ENDMDL
MODEL 5
REMARK VINA RESULT:      -8.6      4.121      9.338
REMARK  3 active torsions:
REMARK  status: ('A' for Active; 'I' for Inactive)
REMARK    1  A    between atoms: O_2  and  C_3 
REMARK    2  A    between atoms: C_9  and  C_10 
REMARK       I    between atoms: C_10  and  N_11 
REMARK    3  A    between atoms: N_11  and  C_12 
ROOT
HETATM    1  C   UNL     1      22.304  45.502  47.230  1.00  0.00     0.068 A 
HETATM    2  C   UNL     1      23.102  44.498  47.781  1.00  0.00     0.044 A 
HETATM    3  C   UNL     1      23.879  44.746  48.920  1.00  0.00    -0.043 A 
HETATM    4  C   UNL     1      23.879  46.040  49.492  1.00  0.00    -0.001 A 
HETATM    5  C   UNL     1      24.672  46.214  50.696  1.00  0.00     0.069 A 
HETATM    6  C   UNL     1      25.233  45.179  51.411  1.00  0.00     0.007 A 
HETATM    7  C   UNL     1      25.853  45.778  52.534  1.00  0.00     0.153 A 
HETATM    8  N   UNL     1      25.707  47.124  52.500  1.00  0.00    -0.168 NA
HETATM    9  N   UNL     1      25.002  47.351  51.369  1.00  0.00    -0.276 N 
HETATM   10  H   UNL     1      24.773  48.308  51.126  1.00  0.00     0.189 HD
HETATM   11  C   UNL     1      25.060  43.760  50.999  1.00  0.00     0.048 C 
HETATM   12  C   UNL     1      24.783  43.654  49.481  1.00  0.00     0.044 C 
HETATM   13  C   UNL     1      23.099  47.049  48.924  1.00  0.00     0.017 A 
HETATM   14  C   UNL     1      22.313  46.778  47.796  1.00  0.00     0.037 A 
ENDROOT
BRANCH   7  15
HETATM   15  C   UNL     1      26.533  45.098  53.658  1.00  0.00     0.277 C 
HETATM   16  N   UNL     1      27.898  45.312  53.629  1.00  0.00    -0.319 N 
HETATM   17  H   UNL     1      28.173  45.972  52.905  1.00  0.00     0.169 HD
HETATM   18  O   UNL     1      25.899  44.496  54.514  1.00  0.00    -0.266 OA
BRANCH  16  19
HETATM   19  C   UNL     1      28.869  44.878  54.550  1.00  0.00     0.074 A 
HETATM   20  C   UNL     1      29.344  45.620  55.640  1.00  0.00     0.144 A 
HETATM   21  F   UNL     1      28.816  46.803  55.975  1.00  0.00    -0.204 F 
HETATM   22  C   UNL     1      30.342  45.120  56.476  1.00  0.00     0.068 A 
HETATM   23  C   UNL     1      30.869  43.857  56.238  1.00  0.00     0.037 A 
HETATM   24 CL   UNL     1      32.107  43.238  57.259  1.00  0.00    -0.084 Cl
HETATM   25  C   UNL     1      30.392  43.085  55.181  1.00  0.00     0.026 A 
HETATM   26  C   UNL     1      29.387  43.591  54.348  1.00  0.00     0.034 A 
ENDBRANCH  16  19
ENDBRANCH   7  15
BRANCH   1  27
HETATM   27  O   UNL     1      21.577  45.116  46.137  1.00  0.00    -0.356 OA
HETATM   28  C   UNL     1      20.288  45.700  45.988  1.00  0.00     0.210 C 
ENDBRANCH   1  27
TORSDOF 3
ENDMDL
MODEL 6
REMARK VINA RESULT:      -8.5      3.141      3.920
REMARK  3 active torsions:
REMARK  status: ('A' for Active; 'I' for Inactive)
REMARK    1  A    between atoms: O_2  and  C_3 
REMARK    2  A    between atoms: C_9  and  C_10 
REMARK       I    between atoms: C_10  and  N_11 
REMARK    3  A    between atoms: N_11  and  C_12 
ROOT
HETATM    1  C   UNL     1      30.604  44.616  56.429  1.00  0.00     0.068 A 
HETATM    2  C   UNL     1      30.461  43.552  55.536  1.00  0.00     0.044 A 
HETATM    3  C   UNL     1      29.475  43.581  54.541  1.00  0.00    -0.043 A 
HETATM    4  C   UNL     1      28.594  44.686  54.469  1.00  0.00    -0.001 A 
HETATM    5  C   UNL     1      27.626  44.671  53.386  1.00  0.00     0.069 A 
HETATM    6  C   UNL     1      27.652  43.781  52.335  1.00  0.00     0.007 A 
HETATM    7  C   UNL     1      26.585  44.157  51.485  1.00  0.00     0.153 A 
HETATM    8  N   UNL     1      25.911  45.213  52.001  1.00  0.00    -0.168 NA
HETATM    9  N   UNL     1      26.560  45.485  53.156  1.00  0.00    -0.276 N 
HETATM   10  H   UNL     1      26.223  46.250  53.730  1.00  0.00     0.189 HD
HETATM   11  C   UNL     1      28.709  42.740  52.219  1.00  0.00     0.048 C 
HETATM   12  C   UNL     1      29.299  42.391  53.605  1.00  0.00     0.044 C 
HETATM   13  C   UNL     1      28.724  45.737  55.379  1.00  0.00     0.017 A 
HETATM   14  C   UNL     1      29.728  45.701  56.355  1.00  0.00     0.037 A 
ENDROOT
BRANCH   7  15
HETATM   15  C   UNL     1      26.225  43.570  50.176  1.00  0.00     0.277 C 
HETATM   16  N   UNL     1      24.940  43.064  50.183  1.00  0.00    -0.319 N 
HETATM   17  H   UNL     1      24.444  43.272  51.047  1.00  0.00     0.169 HD
HETATM   18  O   UNL     1      26.991  43.622  49.224  1.00  0.00    -0.266 OA
BRANCH  16  19
HETATM   19  C   UNL     1      24.225  42.480  49.121  1.00  0.00     0.074 A 
HETATM   20  C   UNL     1      24.452  41.201  48.594  1.00  0.00     0.144 A 
HETATM   21  F   UNL     1      25.326  40.352  49.150  1.00  0.00    -0.204 F 
HETATM   22  C   UNL     1      23.717  40.723  47.510  1.00  0.00     0.068 A 
HETATM   23  C   UNL     1      22.730  41.520  46.944  1.00  0.00     0.037 A 
HETATM   24 CL   UNL     1      21.828  40.942  45.600  1.00  0.00    -0.084 Cl
HETATM   25  C   UNL     1      22.462  42.783  47.469  1.00  0.00     0.026 A 
HETATM   26  C   UNL     1      23.200  43.255  48.560  1.00  0.00     0.034 A 
ENDBRANCH  16  19
ENDBRANCH   7  15
BRANCH   1  27
HETATM   27  O   UNL     1      31.623  44.470  57.330  1.00  0.00    -0.356 OA
HETATM   28  C   UNL     1      32.230  43.186  57.406  1.00  0.00     0.210 C 
ENDBRANCH   1  27
TORSDOF 3
ENDMDL
MODEL 7
REMARK VINA RESULT:      -8.4      3.337      5.331
REMARK  3 active torsions:
REMARK  status: ('A' for Active; 'I' for Inactive)
REMARK    1  A    between atoms: O_2  and  C_3 
REMARK    2  A    between atoms: C_9  and  C_10 
REMARK       I    between atoms: C_10  and  N_11 
REMARK    3  A    between atoms: N_11  and  C_12 
ROOT
HETATM    1  C   UNL     1      27.151  43.334  52.209  1.00  0.00     0.068 A 
HETATM    2  C   UNL     1      27.057  44.721  52.075  1.00  0.00     0.044 A 
HETATM    3  C   UNL     1      26.119  45.294  51.206  1.00  0.00    -0.043 A 
HETATM    4  C   UNL     1      25.289  44.453  50.429  1.00  0.00    -0.001 A 
HETATM    5  C   UNL     1      24.311  45.114  49.583  1.00  0.00     0.069 A 
HETATM    6  C   UNL     1      24.010  46.457  49.649  1.00  0.00     0.007 A 
HETATM    7  C   UNL     1      22.970  46.666  48.711  1.00  0.00     0.153 A 
HETATM    8  N   UNL     1      22.663  45.511  48.073  1.00  0.00    -0.168 NA
HETATM    9  N   UNL     1      23.502  44.600  48.616  1.00  0.00    -0.276 N 
HETATM   10  H   UNL     1      23.458  43.644  48.282  1.00  0.00     0.189 HD
HETATM   11  C   UNL     1      24.677  47.360  50.626  1.00  0.00     0.048 C 
HETATM   12  C   UNL     1      26.062  46.808  51.035  1.00  0.00     0.044 C 
HETATM   13  C   UNL     1      25.403  43.066  50.546  1.00  0.00     0.017 A 
HETATM   14  C   UNL     1      26.331  42.510  51.435  1.00  0.00     0.037 A 
ENDROOT
BRANCH   7  15
HETATM   15  C   UNL     1      22.234  47.920  48.446  1.00  0.00     0.277 C 
HETATM   16  N   UNL     1      21.227  48.122  49.371  1.00  0.00    -0.319 N 
HETATM   17  H   UNL     1      21.238  47.429  50.116  1.00  0.00     0.169 HD
HETATM   18  O   UNL     1      22.569  48.677  47.546  1.00  0.00    -0.266 OA
BRANCH  16  19
HETATM   19  C   UNL     1      20.351  49.217  49.483  1.00  0.00     0.074 A 
HETATM   20  C   UNL     1      20.733  50.541  49.741  1.00  0.00     0.144 A 
HETATM   21  F   UNL     1      22.020  50.908  49.795  1.00  0.00    -0.204 F 
HETATM   22  C   UNL     1      19.786  51.555  49.876  1.00  0.00     0.068 A 
HETATM   23  C   UNL     1      18.436  51.257  49.740  1.00  0.00     0.037 A 
HETATM   24 CL   UNL     1      17.262  52.501  49.916  1.00  0.00    -0.084 Cl
HETATM   25  C   UNL     1      18.031  49.956  49.451  1.00  0.00     0.026 A 
HETATM   26  C   UNL     1      18.987  48.943  49.313  1.00  0.00     0.034 A 
ENDBRANCH  16  19
ENDBRANCH   7  15
BRANCH   1  27
HETATM   27  O   UNL     1      28.088  42.911  53.112  1.00  0.00    -0.356 OA
HETATM   28  C   UNL     1      28.731  43.917  53.884  1.00  0.00     0.210 C 
ENDBRANCH   1  27
TORSDOF 3
ENDMDL
MODEL 8
REMARK VINA RESULT:      -8.4      4.459     10.428
REMARK  3 active torsions:
REMARK  status: ('A' for Active; 'I' for Inactive)
REMARK    1  A    between atoms: O_2  and  C_3 
REMARK    2  A    between atoms: C_9  and  C_10 
REMARK       I    between atoms: C_10  and  N_11 
REMARK    3  A    between atoms: N_11  and  C_12 
ROOT
HETATM    1  C   UNL     1      18.228  51.423  47.788  1.00  0.00     0.068 A 
HETATM    2  C   UNL     1      18.468  50.070  47.542  1.00  0.00     0.044 A 
HETATM    3  C   UNL     1      19.697  49.488  47.879  1.00  0.00    -0.043 A 
HETATM    4  C   UNL     1      20.715  50.293  48.441  1.00  0.00    -0.001 A 
HETATM    5  C   UNL     1      21.947  49.616  48.806  1.00  0.00     0.069 A 
HETATM    6  C   UNL     1      22.099  48.247  48.836  1.00  0.00     0.007 A 
HETATM    7  C   UNL     1      23.415  48.015  49.306  1.00  0.00     0.153 A 
HETATM    8  N   UNL     1      24.056  49.188  49.528  1.00  0.00    -0.168 NA
HETATM    9  N   UNL     1      23.143  50.131  49.202  1.00  0.00    -0.276 N 
HETATM   10  H   UNL     1      23.407  51.106  49.285  1.00  0.00     0.189 HD
HETATM   11  C   UNL     1      20.980  47.328  48.493  1.00  0.00     0.048 C 
HETATM   12  C   UNL     1      19.961  48.021  47.559  1.00  0.00     0.044 C 
HETATM   13  C   UNL     1      20.482  51.652  48.663  1.00  0.00     0.017 A 
HETATM   14  C   UNL     1      19.240  52.213  48.338  1.00  0.00     0.037 A 
ENDROOT
BRANCH   7  15
HETATM   15  C   UNL     1      24.053  46.713  49.594  1.00  0.00     0.277 C 
HETATM   16  N   UNL     1      24.897  46.792  50.685  1.00  0.00    -0.319 N 
HETATM   17  H   UNL     1      24.851  47.697  51.148  1.00  0.00     0.169 HD
HETATM   18  O   UNL     1      23.771  45.711  48.951  1.00  0.00    -0.266 OA
BRANCH  16  19
HETATM   19  C   UNL     1      25.636  45.761  51.294  1.00  0.00     0.074 A 
HETATM   20  C   UNL     1      26.726  45.094  50.719  1.00  0.00     0.144 A 
HETATM   21  F   UNL     1      27.246  45.469  49.544  1.00  0.00    -0.204 F 
HETATM   22  C   UNL     1      27.371  44.053  51.386  1.00  0.00     0.068 A 
HETATM   23  C   UNL     1      26.939  43.675  52.651  1.00  0.00     0.037 A 
HETATM   24 CL   UNL     1      27.723  42.385  53.474  1.00  0.00    -0.084 Cl
HETATM   25  C   UNL     1      25.879  44.343  53.258  1.00  0.00     0.026 A 
HETATM   26  C   UNL     1      25.237  45.389  52.586  1.00  0.00     0.034 A 
ENDBRANCH  16  19
ENDBRANCH   7  15
BRANCH   1  27
HETATM   27  O   UNL     1      16.978  51.854  47.437  1.00  0.00    -0.356 OA
HETATM   28  C   UNL     1      16.153  52.346  48.486  1.00  0.00     0.210 C 
ENDBRANCH   1  27
TORSDOF 3
ENDMDL
MODEL 9
REMARK VINA RESULT:      -8.3     16.836     18.099
REMARK  3 active torsions:
REMARK  status: ('A' for Active; 'I' for Inactive)
REMARK    1  A    between atoms: O_2  and  C_3 
REMARK    2  A    between atoms: C_9  and  C_10 
REMARK       I    between atoms: C_10  and  N_11 
REMARK    3  A    between atoms: N_11  and  C_12 
ROOT
HETATM    1  C   UNL     1      39.452  39.653  63.777  1.00  0.00     0.068 A 
HETATM    2  C   UNL     1      39.828  40.865  63.195  1.00  0.00     0.044 A 
HETATM    3  C   UNL     1      39.085  42.030  63.428  1.00  0.00    -0.043 A 
HETATM    4  C   UNL     1      37.923  41.964  64.231  1.00  0.00    -0.001 A 
HETATM    5  C   UNL     1      37.227  43.217  64.465  1.00  0.00     0.069 A 
HETATM    6  C   UNL     1      37.733  44.457  64.141  1.00  0.00     0.007 A 
HETATM    7  C   UNL     1      36.776  45.395  64.598  1.00  0.00     0.153 A 
HETATM    8  N   UNL     1      35.713  44.763  65.152  1.00  0.00    -0.168 NA
HETATM    9  N   UNL     1      36.016  43.450  65.041  1.00  0.00    -0.276 N 
HETATM   10  H   UNL     1      35.350  42.770  65.390  1.00  0.00     0.189 HD
HETATM   11  C   UNL     1      39.073  44.615  63.515  1.00  0.00     0.048 C 
HETATM   12  C   UNL     1      39.480  43.336  62.746  1.00  0.00     0.044 C 
HETATM   13  C   UNL     1      37.535  40.745  64.791  1.00  0.00     0.017 A 
HETATM   14  C   UNL     1      38.301  39.593  64.564  1.00  0.00     0.037 A 
ENDROOT
BRANCH   7  15
HETATM   15  C   UNL     1      36.872  46.870  64.564  1.00  0.00     0.277 C 
HETATM   16  N   UNL     1      37.476  47.365  65.705  1.00  0.00    -0.319 N 
HETATM   17  H   UNL     1      37.830  46.627  66.309  1.00  0.00     0.169 HD
HETATM   18  O   UNL     1      36.509  47.509  63.587  1.00  0.00    -0.266 OA
BRANCH  16  19
HETATM   19  C   UNL     1      37.792  48.700  66.016  1.00  0.00     0.074 A 
HETATM   20  C   UNL     1      38.764  49.477  65.371  1.00  0.00     0.144 A 
HETATM   21  F   UNL     1      39.421  49.035  64.293  1.00  0.00    -0.204 F 
HETATM   22  C   UNL     1      39.035  50.783  65.779  1.00  0.00     0.068 A 
HETATM   23  C   UNL     1      38.321  51.335  66.835  1.00  0.00     0.037 A 
HETATM   24 CL   UNL     1      38.658  52.940  67.351  1.00  0.00    -0.084 Cl
HETATM   25  C   UNL     1      37.327  50.596  67.473  1.00  0.00     0.026 A 
HETATM   26  C   UNL     1      37.057  49.287  67.056  1.00  0.00     0.034 A 
ENDBRANCH  16  19
ENDBRANCH   7  15
BRANCH   1  27
HETATM   27  O   UNL     1      40.281  38.602  63.490  1.00  0.00    -0.356 OA
HETATM   28  C   UNL     1      41.407  38.426  64.340  1.00  0.00     0.210 C 
ENDBRANCH   1  27
TORSDOF 3
ENDMDL
MODEL 10
REMARK VINA RESULT:      -8.3      4.471     10.633
REMARK  3 active torsions:
REMARK  status: ('A' for Active; 'I' for Inactive)
REMARK    1  A    between atoms: O_2  and  C_3 
REMARK    2  A    between atoms: C_9  and  C_10 
REMARK       I    between atoms: C_10  and  N_11 
REMARK    3  A    between atoms: N_11  and  C_12 
ROOT
HETATM    1  C   UNL     1      18.385  51.403  46.917  1.00  0.00     0.068 A 
HETATM    2  C   UNL     1      19.193  51.648  48.028  1.00  0.00     0.044 A 
HETATM    3  C   UNL     1      20.145  50.706  48.443  1.00  0.00    -0.043 A 
HETATM    4  C   UNL     1      20.257  49.481  47.746  1.00  0.00    -0.001 A 
HETATM    5  C   UNL     1      21.293  48.571  48.202  1.00  0.00     0.069 A 
HETATM    6  C   UNL     1      22.279  48.908  49.103  1.00  0.00     0.007 A 
HETATM    7  C   UNL     1      23.108  47.765  49.213  1.00  0.00     0.153 A 
HETATM    8  N   UNL     1      22.639  46.758  48.438  1.00  0.00    -0.168 NA
HETATM    9  N   UNL     1      21.535  47.277  47.854  1.00  0.00    -0.276 N 
HETATM   10  H   UNL     1      21.003  46.690  47.222  1.00  0.00     0.189 HD
HETATM   11  C   UNL     1      22.367  50.271  49.692  1.00  0.00     0.048 C 
HETATM   12  C   UNL     1      20.985  50.967  49.687  1.00  0.00     0.044 C 
HETATM   13  C   UNL     1      19.430  49.228  46.649  1.00  0.00     0.017 A 
HETATM   14  C   UNL     1      18.498  50.189  46.237  1.00  0.00     0.037 A 
ENDROOT
BRANCH   7  15
HETATM   15  C   UNL     1      24.355  47.628  49.995  1.00  0.00     0.277 C 
HETATM   16  N   UNL     1      24.330  46.503  50.797  1.00  0.00    -0.319 N 
HETATM   17  H   UNL     1      23.508  45.926  50.633  1.00  0.00     0.169 HD
HETATM   18  O   UNL     1      25.285  48.409  49.851  1.00  0.00    -0.266 OA
BRANCH  16  19
HETATM   19  C   UNL     1      25.343  46.008  51.639  1.00  0.00     0.074 A 
HETATM   20  C   UNL     1      25.754  46.591  52.846  1.00  0.00     0.144 A 
HETATM   21  F   UNL     1      25.121  47.645  53.374  1.00  0.00    -0.204 F 
HETATM   22  C   UNL     1      26.799  46.048  53.593  1.00  0.00     0.068 A 
HETATM   23  C   UNL     1      27.439  44.900  53.146  1.00  0.00     0.037 A 
HETATM   24 CL   UNL     1      28.735  44.231  54.057  1.00  0.00    -0.084 Cl
HETATM   25  C   UNL     1      27.029  44.282  51.967  1.00  0.00     0.026 A 
HETATM   26  C   UNL     1      25.977  44.829  51.223  1.00  0.00     0.034 A 
ENDBRANCH  16  19
ENDBRANCH   7  15
BRANCH   1  27
HETATM   27  O   UNL     1      17.520  52.417  46.606  1.00  0.00    -0.356 OA
HETATM   28  C   UNL     1      17.190  52.577  45.232  1.00  0.00     0.210 C 
ENDBRANCH   1  27
TORSDOF 3
ENDMDL
