MODEL 1
REMARK VINA RESULT:      -7.5      0.000      0.000
REMARK  2 active torsions:
REMARK  status: ('A' for Active; 'I' for Inactive)
REMARK    1  A    between atoms: C_6  and  N_7 
REMARK       I    between atoms: N_7  and  C_8 
REMARK       I    between atoms: C_8  and  N_9 
REMARK    2  A    between atoms: N_9  and  C_10 
ROOT
HETATM    1  N   UNL     1      25.177  45.237  52.450  1.00  0.00    -0.306 N 
HETATM    2  C   UNL     1      25.811  44.838  53.587  1.00  0.00     0.321 C 
HETATM    3  N   UNL     1      27.085  45.261  53.798  1.00  0.00    -0.338 N 
HETATM    4  O   UNL     1      25.179  44.224  54.444  1.00  0.00    -0.247 OA
HETATM    5  H   UNL     1      24.175  45.122  52.552  1.00  0.00     0.171 HD
HETATM    6  H   UNL     1      27.627  45.481  52.975  1.00  0.00     0.164 HD
ENDROOT
BRANCH   3   7
HETATM    7  C   UNL     1      27.838  45.012  55.017  1.00  0.00     0.089 C 
HETATM    8  C   UNL     1      29.119  44.204  54.740  1.00  0.00     0.058 C 
HETATM    9  C   UNL     1      29.829  43.936  56.049  1.00  0.00     0.190 C 
HETATM   10  N   UNL     1      30.146  45.256  56.700  1.00  0.00    -0.067 N 
HETATM   11  C   UNL     1      31.201  43.302  55.978  1.00  0.00     0.035 C 
HETATM   12  H   UNL     1      30.650  45.832  56.007  1.00  0.00     0.280 HD
HETATM   13  C   UNL     1      28.919  46.018  57.089  1.00  0.00     0.237 C 
HETATM   14  C   UNL     1      31.139  44.941  57.790  1.00  0.00     0.235 C 
HETATM   15  C   UNL     1      28.109  46.294  55.826  1.00  0.00     0.053 C 
HETATM   16  C   UNL     1      31.782  43.624  57.351  1.00  0.00     0.030 C 
ENDBRANCH   3   7
BRANCH   1  17
HETATM   17  C   UNL     1      25.608  45.988  51.332  1.00  0.00     0.077 A 
HETATM   18  C   UNL     1      26.590  45.653  50.394  1.00  0.00     0.152 A 
HETATM   19  N   UNL     1      26.997  46.456  49.383  1.00  0.00    -0.247 NA
HETATM   20 CL   UNL     1      27.322  44.095  50.282  1.00  0.00    -0.060 Cl
HETATM   21  C   UNL     1      26.368  47.640  49.254  1.00  0.00     0.118 A 
HETATM   22  C   UNL     1      25.336  48.047  50.079  1.00  0.00     0.022 A 
HETATM   23  C   UNL     1      24.947  47.204  51.119  1.00  0.00     0.034 A 
ENDBRANCH   1  17
TORSDOF 2
ENDMDL
MODEL 2
REMARK VINA RESULT:      -7.5      2.255      2.759
REMARK  2 active torsions:
REMARK  status: ('A' for Active; 'I' for Inactive)
REMARK    1  A    between atoms: C_6  and  N_7 
REMARK       I    between atoms: N_7  and  C_8 
REMARK       I    between atoms: C_8  and  N_9 
REMARK    2  A    between atoms: N_9  and  C_10 
ROOT
HETATM    1  N   UNL     1      24.387  46.328  50.674  1.00  0.00    -0.306 N 
HETATM    2  C   UNL     1      24.988  45.657  51.694  1.00  0.00     0.321 C 
HETATM    3  N   UNL     1      26.152  46.151  52.193  1.00  0.00    -0.338 N 
HETATM    4  O   UNL     1      24.405  44.711  52.219  1.00  0.00    -0.247 OA
HETATM    5  H   UNL     1      23.413  46.052  50.602  1.00  0.00     0.171 HD
HETATM    6  H   UNL     1      26.711  46.707  51.562  1.00  0.00     0.164 HD
ENDROOT
BRANCH   3   7
HETATM    7  C   UNL     1      26.839  45.608  53.355  1.00  0.00     0.089 C 
HETATM    8  C   UNL     1      27.956  44.630  52.950  1.00  0.00     0.058 C 
HETATM    9  C   UNL     1      28.596  44.064  54.198  1.00  0.00     0.190 C 
HETATM   10  N   UNL     1      29.140  45.205  55.016  1.00  0.00    -0.067 N 
HETATM   11  C   UNL     1      29.833  43.210  54.019  1.00  0.00     0.035 C 
HETATM   12  H   UNL     1      29.745  45.771  54.398  1.00  0.00     0.280 HD
HETATM   13  C   UNL     1      28.067  46.114  55.525  1.00  0.00     0.237 C 
HETATM   14  C   UNL     1      30.052  44.573  56.037  1.00  0.00     0.235 C 
HETATM   15  C   UNL     1      27.329  46.700  54.325  1.00  0.00     0.053 C 
HETATM   16  C   UNL     1      30.452  43.235  55.414  1.00  0.00     0.030 C 
ENDBRANCH   3   7
BRANCH   1  17
HETATM   17  C   UNL     1      24.769  47.463  49.922  1.00  0.00     0.077 A 
HETATM   18  C   UNL     1      23.949  48.336  49.200  1.00  0.00     0.152 A 
HETATM   19  N   UNL     1      24.396  49.368  48.445  1.00  0.00    -0.247 NA
HETATM   20 CL   UNL     1      22.227  48.335  49.290  1.00  0.00    -0.060 Cl
HETATM   21  C   UNL     1      25.725  49.586  48.437  1.00  0.00     0.118 A 
HETATM   22  C   UNL     1      26.624  48.831  49.167  1.00  0.00     0.022 A 
HETATM   23  C   UNL     1      26.136  47.768  49.925  1.00  0.00     0.034 A 
ENDBRANCH   1  17
TORSDOF 2
ENDMDL
MODEL 3
REMARK VINA RESULT:      -7.3      9.299     13.283
REMARK  2 active torsions:
REMARK  status: ('A' for Active; 'I' for Inactive)
REMARK    1  A    between atoms: C_6  and  N_7 
REMARK       I    between atoms: N_7  and  C_8 
REMARK       I    between atoms: C_8  and  N_9 
REMARK    2  A    between atoms: N_9  and  C_10 
ROOT
HETATM    1  N   UNL     1      20.372  49.439  50.223  1.00  0.00    -0.306 N 
HETATM    2  C   UNL     1      19.115  49.960  50.259  1.00  0.00     0.321 C 
HETATM    3  N   UNL     1      18.735  50.796  49.258  1.00  0.00    -0.338 N 
HETATM    4  O   UNL     1      18.323  49.562  51.111  1.00  0.00    -0.247 OA
HETATM    5  H   UNL     1      20.428  48.623  50.824  1.00  0.00     0.171 HD
HETATM    6  H   UNL     1      19.473  51.305  48.793  1.00  0.00     0.164 HD
ENDROOT
BRANCH   3   7
HETATM    7  C   UNL     1      17.390  51.330  49.104  1.00  0.00     0.089 C 
HETATM    8  C   UNL     1      17.209  52.648  49.878  1.00  0.00     0.058 C 
HETATM    9  C   UNL     1      15.781  53.122  49.720  1.00  0.00     0.190 C 
HETATM   10  N   UNL     1      15.498  53.308  48.253  1.00  0.00    -0.067 N 
HETATM   11  C   UNL     1      15.441  54.494  50.264  1.00  0.00     0.035 C 
HETATM   12  H   UNL     1      16.237  53.918  47.868  1.00  0.00     0.280 HD
HETATM   13  C   UNL     1      15.552  52.024  47.488  1.00  0.00     0.237 C 
HETATM   14  C   UNL     1      14.217  54.100  48.184  1.00  0.00     0.235 C 
HETATM   15  C   UNL     1      16.955  51.442  47.631  1.00  0.00     0.053 C 
HETATM   16  C   UNL     1      14.144  54.824  49.530  1.00  0.00     0.030 C 
ENDBRANCH   3   7
BRANCH   1  17
HETATM   17  C   UNL     1      21.467  49.647  49.353  1.00  0.00     0.077 A 
HETATM   18  C   UNL     1      21.920  48.817  48.322  1.00  0.00     0.152 A 
HETATM   19  N   UNL     1      23.021  49.052  47.569  1.00  0.00    -0.247 NA
HETATM   20 CL   UNL     1      21.052  47.445  47.739  1.00  0.00    -0.060 Cl
HETATM   21  C   UNL     1      23.691  50.195  47.811  1.00  0.00     0.118 A 
HETATM   22  C   UNL     1      23.296  51.124  48.756  1.00  0.00     0.022 A 
HETATM   23  C   UNL     1      22.165  50.849  49.523  1.00  0.00     0.034 A 
ENDBRANCH   1  17
TORSDOF 2
ENDMDL
MODEL 4
REMARK VINA RESULT:      -7.0      2.422      7.807
REMARK  2 active torsions:
REMARK  status: ('A' for Active; 'I' for Inactive)
REMARK    1  A    between atoms: C_6  and  N_7 
REMARK       I    between atoms: N_7  and  C_8 
REMARK       I    between atoms: C_8  and  N_9 
REMARK    2  A    between atoms: N_9  and  C_10 
ROOT
HETATM    1  N   UNL     1      25.920  44.518  52.838  1.00  0.00    -0.306 N 
HETATM    2  C   UNL     1      25.414  45.225  51.790  1.00  0.00     0.321 C 
HETATM    3  N   UNL     1      26.095  46.321  51.363  1.00  0.00    -0.338 N 
HETATM    4  O   UNL     1      24.441  44.785  51.181  1.00  0.00    -0.247 OA
HETATM    5  H   UNL     1      25.512  43.590  52.860  1.00  0.00     0.171 HD
HETATM    6  H   UNL     1      26.671  46.788  52.049  1.00  0.00     0.164 HD
ENDROOT
BRANCH   3   7
HETATM    7  C   UNL     1      25.738  47.098  50.186  1.00  0.00     0.089 C 
HETATM    8  C   UNL     1      24.290  47.616  50.263  1.00  0.00     0.058 C 
HETATM    9  C   UNL     1      23.966  48.370  48.992  1.00  0.00     0.190 C 
HETATM   10  N   UNL     1      24.944  49.505  48.847  1.00  0.00    -0.067 N 
HETATM   11  C   UNL     1      22.645  49.108  48.941  1.00  0.00     0.035 C 
HETATM   12  H   UNL     1      24.927  50.046  49.727  1.00  0.00     0.280 HD
HETATM   13  C   UNL     1      26.350  49.034  48.653  1.00  0.00     0.237 C 
HETATM   14  C   UNL     1      24.364  50.405  47.785  1.00  0.00     0.235 C 
HETATM   15  C   UNL     1      26.752  48.215  49.876  1.00  0.00     0.053 C 
HETATM   16  C   UNL     1      22.867  50.096  47.799  1.00  0.00     0.030 C 
ENDBRANCH   3   7
BRANCH   1  17
HETATM   17  C   UNL     1      27.035  44.729  53.681  1.00  0.00     0.077 A 
HETATM   18  C   UNL     1      27.335  45.860  54.448  1.00  0.00     0.152 A 
HETATM   19  N   UNL     1      28.461  46.017  55.183  1.00  0.00    -0.247 NA
HETATM   20 CL   UNL     1      26.239  47.165  54.708  1.00  0.00    -0.060 Cl
HETATM   21  C   UNL     1      29.324  44.981  55.206  1.00  0.00     0.118 A 
HETATM   22  C   UNL     1      29.098  43.789  54.543  1.00  0.00     0.022 A 
HETATM   23  C   UNL     1      27.935  43.662  53.785  1.00  0.00     0.034 A 
ENDBRANCH   1  17
TORSDOF 2
ENDMDL
MODEL 5
REMARK VINA RESULT:      -6.9      3.628      5.727
REMARK  2 active torsions:
REMARK  status: ('A' for Active; 'I' for Inactive)
REMARK    1  A    between atoms: C_6  and  N_7 
REMARK       I    between atoms: N_7  and  C_8 
REMARK       I    between atoms: C_8  and  N_9 
REMARK    2  A    between atoms: N_9  and  C_10 
ROOT
HETATM    1  N   UNL     1      24.686  49.363  48.467  1.00  0.00    -0.306 N 
HETATM    2  C   UNL     1      25.619  48.618  49.121  1.00  0.00     0.321 C 
HETATM    3  N   UNL     1      25.199  47.773  50.099  1.00  0.00    -0.338 N 
HETATM    4  O   UNL     1      26.783  48.631  48.727  1.00  0.00    -0.247 OA
HETATM    5  H   UNL     1      25.066  49.704  47.591  1.00  0.00     0.171 HD
HETATM    6  H   UNL     1      24.339  48.018  50.566  1.00  0.00     0.164 HD
ENDROOT
BRANCH   3   7
HETATM    7  C   UNL     1      26.065  46.834  50.796  1.00  0.00     0.089 C 
HETATM    8  C   UNL     1      25.577  46.568  52.231  1.00  0.00     0.058 C 
HETATM    9  C   UNL     1      26.544  45.628  52.917  1.00  0.00     0.190 C 
HETATM   10  N   UNL     1      26.618  44.352  52.120  1.00  0.00    -0.067 N 
HETATM   11  C   UNL     1      26.152  45.103  54.281  1.00  0.00     0.035 C 
HETATM   12  H   UNL     1      25.652  44.011  51.987  1.00  0.00     0.280 HD
HETATM   13  C   UNL     1      27.198  44.556  50.756  1.00  0.00     0.237 C 
HETATM   14  C   UNL     1      27.300  43.352  53.018  1.00  0.00     0.235 C 
HETATM   15  C   UNL     1      26.307  45.538  50.001  1.00  0.00     0.053 C 
HETATM   16  C   UNL     1      27.054  43.880  54.432  1.00  0.00     0.030 C 
ENDBRANCH   3   7
BRANCH   1  17
HETATM   17  C   UNL     1      23.291  49.512  48.641  1.00  0.00     0.077 A 
HETATM   18  C   UNL     1      22.283  48.580  48.368  1.00  0.00     0.152 A 
HETATM   19  N   UNL     1      20.956  48.819  48.498  1.00  0.00    -0.247 NA
HETATM   20 CL   UNL     1      22.580  46.927  47.979  1.00  0.00    -0.060 Cl
HETATM   21  C   UNL     1      20.598  50.029  48.970  1.00  0.00     0.118 A 
HETATM   22  C   UNL     1      21.509  51.002  49.339  1.00  0.00     0.022 A 
HETATM   23  C   UNL     1      22.867  50.731  49.183  1.00  0.00     0.034 A 
ENDBRANCH   1  17
TORSDOF 2
ENDMDL
MODEL 6
REMARK VINA RESULT:      -6.9      2.488      3.120
REMARK  2 active torsions:
REMARK  status: ('A' for Active; 'I' for Inactive)
REMARK    1  A    between atoms: C_6  and  N_7 
REMARK       I    between atoms: N_7  and  C_8 
REMARK       I    between atoms: C_8  and  N_9 
REMARK    2  A    between atoms: N_9  and  C_10 
ROOT
HETATM    1  N   UNL     1      25.174  43.165  51.754  1.00  0.00    -0.306 N 
HETATM    2  C   UNL     1      25.665  43.540  52.967  1.00  0.00     0.321 C 
HETATM    3  N   UNL     1      26.999  43.411  53.192  1.00  0.00    -0.338 N 
HETATM    4  O   UNL     1      24.922  44.103  53.769  1.00  0.00    -0.247 OA
HETATM    5  H   UNL     1      24.262  43.582  51.604  1.00  0.00     0.171 HD
HETATM    6  H   UNL     1      27.478  42.700  52.658  1.00  0.00     0.164 HD
ENDROOT
BRANCH   3   7
HETATM    7  C   UNL     1      27.677  43.881  54.390  1.00  0.00     0.089 C 
HETATM    8  C   UNL     1      29.036  43.186  54.585  1.00  0.00     0.058 C 
HETATM    9  C   UNL     1      29.664  43.678  55.870  1.00  0.00     0.190 C 
HETATM   10  N   UNL     1      29.824  45.173  55.783  1.00  0.00    -0.067 N 
HETATM   11  C   UNL     1      31.086  43.245  56.159  1.00  0.00     0.035 C 
HETATM   12  H   UNL     1      30.330  45.382  54.907  1.00  0.00     0.280 HD
HETATM   13  C   UNL     1      28.513  45.890  55.709  1.00  0.00     0.237 C 
HETATM   14  C   UNL     1      30.754  45.548  56.908  1.00  0.00     0.235 C 
HETATM   15  C   UNL     1      27.780  45.416  54.457  1.00  0.00     0.053 C 
HETATM   16  C   UNL     1      31.534  44.265  57.201  1.00  0.00     0.030 C 
ENDBRANCH   3   7
BRANCH   1  17
HETATM   17  C   UNL     1      25.778  42.563  50.626  1.00  0.00     0.077 A 
HETATM   18  C   UNL     1      26.561  43.171  49.639  1.00  0.00     0.152 A 
HETATM   19  N   UNL     1      27.052  42.540  48.546  1.00  0.00    -0.247 NA
HETATM   20 CL   UNL     1      27.161  44.785  49.745  1.00  0.00    -0.060 Cl
HETATM   21  C   UNL     1      26.800  41.221  48.440  1.00  0.00     0.118 A 
HETATM   22  C   UNL     1      26.098  40.501  49.389  1.00  0.00     0.022 A 
HETATM   23  C   UNL     1      25.595  41.181  50.498  1.00  0.00     0.034 A 
ENDBRANCH   1  17
TORSDOF 2
ENDMDL
MODEL 7
REMARK VINA RESULT:      -6.9      2.551      7.384
REMARK  2 active torsions:
REMARK  status: ('A' for Active; 'I' for Inactive)
REMARK    1  A    between atoms: C_6  and  N_7 
REMARK       I    between atoms: N_7  and  C_8 
REMARK       I    between atoms: C_8  and  N_9 
REMARK    2  A    between atoms: N_9  and  C_10 
ROOT
HETATM    1  N   UNL     1      28.157  46.446  55.672  1.00  0.00    -0.306 N 
HETATM    2  C   UNL     1      27.135  46.703  54.810  1.00  0.00     0.321 C 
HETATM    3  N   UNL     1      26.889  45.809  53.816  1.00  0.00    -0.338 N 
HETATM    4  O   UNL     1      26.387  47.654  55.029  1.00  0.00    -0.247 OA
HETATM    5  H   UNL     1      28.047  46.998  56.516  1.00  0.00     0.171 HD
HETATM    6  H   UNL     1      27.674  45.252  53.509  1.00  0.00     0.164 HD
ENDROOT
BRANCH   3   7
HETATM    7  C   UNL     1      25.762  45.893  52.901  1.00  0.00     0.089 C 
HETATM    8  C   UNL     1      25.963  47.000  51.850  1.00  0.00     0.058 C 
HETATM    9  C   UNL     1      24.739  47.070  50.964  1.00  0.00     0.190 C 
HETATM   10  N   UNL     1      24.544  45.727  50.311  1.00  0.00    -0.067 N 
HETATM   11  C   UNL     1      24.808  47.980  49.756  1.00  0.00     0.035 C 
HETATM   12  H   UNL     1      25.434  45.470  49.856  1.00  0.00     0.280 HD
HETATM   13  C   UNL     1      24.230  44.647  51.296  1.00  0.00     0.237 C 
HETATM   14  C   UNL     1      23.552  45.958  49.199  1.00  0.00     0.235 C 
HETATM   15  C   UNL     1      25.399  44.536  52.270  1.00  0.00     0.053 C 
HETATM   16  C   UNL     1      23.675  47.449  48.882  1.00  0.00     0.030 C 
ENDBRANCH   3   7
BRANCH   1  17
HETATM   17  C   UNL     1      29.129  45.421  55.720  1.00  0.00     0.077 A 
HETATM   18  C   UNL     1      30.171  45.263  56.639  1.00  0.00     0.152 A 
HETATM   19  N   UNL     1      31.109  44.287  56.583  1.00  0.00    -0.247 NA
HETATM   20 CL   UNL     1      30.329  46.190  58.085  1.00  0.00    -0.060 Cl
HETATM   21  C   UNL     1      30.988  43.383  55.591  1.00  0.00     0.118 A 
HETATM   22  C   UNL     1      29.960  43.400  54.667  1.00  0.00     0.022 A 
HETATM   23  C   UNL     1      29.016  44.423  54.744  1.00  0.00     0.034 A 
ENDBRANCH   1  17
TORSDOF 2
ENDMDL
MODEL 8
REMARK VINA RESULT:      -6.8     14.334     16.075
REMARK  2 active torsions:
REMARK  status: ('A' for Active; 'I' for Inactive)
REMARK    1  A    between atoms: C_6  and  N_7 
REMARK       I    between atoms: N_7  and  C_8 
REMARK       I    between atoms: C_8  and  N_9 
REMARK    2  A    between atoms: N_9  and  C_10 
ROOT
HETATM    1  N   UNL     1      37.228  43.714  63.190  1.00  0.00    -0.306 N 
HETATM    2  C   UNL     1      37.147  44.914  63.828  1.00  0.00     0.321 C 
HETATM    3  N   UNL     1      37.732  45.037  65.048  1.00  0.00    -0.338 N 
HETATM    4  O   UNL     1      36.671  45.880  63.235  1.00  0.00    -0.247 OA
HETATM    5  H   UNL     1      37.037  43.832  62.201  1.00  0.00     0.171 HD
HETATM    6  H   UNL     1      37.824  44.189  65.590  1.00  0.00     0.164 HD
ENDROOT
BRANCH   3   7
HETATM    7  C   UNL     1      37.827  46.286  65.788  1.00  0.00     0.089 C 
HETATM    8  C   UNL     1      38.730  47.305  65.069  1.00  0.00     0.058 C 
HETATM    9  C   UNL     1      38.828  48.559  65.910  1.00  0.00     0.190 C 
HETATM   10  N   UNL     1      37.441  49.108  66.115  1.00  0.00    -0.067 N 
HETATM   11  C   UNL     1      39.533  49.751  65.299  1.00  0.00     0.035 C 
HETATM   12  H   UNL     1      37.004  49.205  65.184  1.00  0.00     0.280 HD
HETATM   13  C   UNL     1      36.569  48.191  66.912  1.00  0.00     0.237 C 
HETATM   14  C   UNL     1      37.633  50.508  66.640  1.00  0.00     0.235 C 
HETATM   15  C   UNL     1      36.450  46.870  66.158  1.00  0.00     0.053 C 
HETATM   16  C   UNL     1      39.032  50.905  66.163  1.00  0.00     0.030 C 
ENDBRANCH   3   7
BRANCH   1  17
HETATM   17  C   UNL     1      37.761  42.463  63.577  1.00  0.00     0.077 A 
HETATM   18  C   UNL     1      37.286  41.590  64.561  1.00  0.00     0.152 A 
HETATM   19  N   UNL     1      37.891  40.433  64.924  1.00  0.00    -0.247 NA
HETATM   20 CL   UNL     1      35.766  41.769  65.354  1.00  0.00    -0.060 Cl
HETATM   21  C   UNL     1      39.003  40.089  64.246  1.00  0.00     0.118 A 
HETATM   22  C   UNL     1      39.524  40.839  63.207  1.00  0.00     0.022 A 
HETATM   23  C   UNL     1      38.886  42.030  62.865  1.00  0.00     0.034 A 
ENDBRANCH   1  17
TORSDOF 2
ENDMDL
MODEL 9
REMARK VINA RESULT:      -6.8      2.352      7.356
REMARK  2 active torsions:
REMARK  status: ('A' for Active; 'I' for Inactive)
REMARK    1  A    between atoms: C_6  and  N_7 
REMARK       I    between atoms: N_7  and  C_8 
REMARK       I    between atoms: C_8  and  N_9 
REMARK    2  A    between atoms: N_9  and  C_10 
ROOT
HETATM    1  N   UNL     1      26.532  43.425  54.462  1.00  0.00    -0.306 N 
HETATM    2  C   UNL     1      25.537  44.117  53.842  1.00  0.00     0.321 C 
HETATM    3  N   UNL     1      25.742  44.539  52.567  1.00  0.00    -0.338 N 
HETATM    4  O   UNL     1      24.445  44.226  54.396  1.00  0.00    -0.247 OA
HETATM    5  H   UNL     1      26.159  42.917  55.257  1.00  0.00     0.171 HD
HETATM    6  H   UNL     1      26.702  44.692  52.293  1.00  0.00     0.164 HD
ENDROOT
BRANCH   3   7
HETATM    7  C   UNL     1      24.728  45.182  51.745  1.00  0.00     0.089 C 
HETATM    8  C   UNL     1      25.253  46.481  51.107  1.00  0.00     0.058 C 
HETATM    9  C   UNL     1      24.140  47.125  50.309  1.00  0.00     0.190 C 
HETATM   10  N   UNL     1      23.677  46.150  49.259  1.00  0.00    -0.067 N 
HETATM   11  C   UNL     1      24.500  48.326  49.461  1.00  0.00     0.035 C 
HETATM   12  H   UNL     1      24.510  45.841  48.732  1.00  0.00     0.280 HD
HETATM   13  C   UNL     1      23.055  44.923  49.846  1.00  0.00     0.237 C 
HETATM   14  C   UNL     1      22.843  46.956  48.298  1.00  0.00     0.235 C 
HETATM   15  C   UNL     1      24.098  44.226  50.714  1.00  0.00     0.053 C 
HETATM   16  C   UNL     1      23.334  48.393  48.478  1.00  0.00     0.030 C 
ENDBRANCH   3   7
BRANCH   1  17
HETATM   17  C   UNL     1      27.847  43.087  54.068  1.00  0.00     0.077 A 
HETATM   18  C   UNL     1      28.246  42.166  53.093  1.00  0.00     0.152 A 
HETATM   19  N   UNL     1      29.532  41.846  52.816  1.00  0.00    -0.247 NA
HETATM   20 CL   UNL     1      27.166  41.416  51.978  1.00  0.00    -0.060 Cl
HETATM   21  C   UNL     1      30.487  42.503  53.503  1.00  0.00     0.118 A 
HETATM   22  C   UNL     1      30.211  43.483  54.439  1.00  0.00     0.022 A 
HETATM   23  C   UNL     1      28.877  43.783  54.711  1.00  0.00     0.034 A 
ENDBRANCH   1  17
TORSDOF 2
ENDMDL
MODEL 10
REMARK VINA RESULT:      -6.8      3.173      7.239
REMARK  2 active torsions:
REMARK  status: ('A' for Active; 'I' for Inactive)
REMARK    1  A    between atoms: C_6  and  N_7 
REMARK       I    between atoms: N_7  and  C_8 
REMARK       I    between atoms: C_8  and  N_9 
REMARK    2  A    between atoms: N_9  and  C_10 
ROOT
HETATM    1  N   UNL     1      29.147  46.121  55.707  1.00  0.00    -0.306 N 
HETATM    2  C   UNL     1      28.308  46.055  54.638  1.00  0.00     0.321 C 
HETATM    3  N   UNL     1      28.181  44.867  53.990  1.00  0.00    -0.338 N 
HETATM    4  O   UNL     1      27.596  47.021  54.370  1.00  0.00    -0.247 OA
HETATM    5  H   UNL     1      28.929  46.935  56.271  1.00  0.00     0.171 HD
HETATM    6  H   UNL     1      28.969  44.238  54.045  1.00  0.00     0.164 HD
ENDROOT
BRANCH   3   7
HETATM    7  C   UNL     1      27.236  44.620  52.912  1.00  0.00     0.089 C 
HETATM    8  C   UNL     1      27.759  43.557  51.929  1.00  0.00     0.058 C 
HETATM    9  C   UNL     1      26.757  43.383  50.808  1.00  0.00     0.190 C 
HETATM   10  N   UNL     1      25.437  42.972  51.405  1.00  0.00    -0.067 N 
HETATM   11  C   UNL     1      27.003  42.258  49.826  1.00  0.00     0.035 C 
HETATM   12  H   UNL     1      25.610  42.151  52.007  1.00  0.00     0.280 HD
HETATM   13  C   UNL     1      24.843  44.032  52.277  1.00  0.00     0.237 C 
HETATM   14  C   UNL     1      24.605  42.482  50.248  1.00  0.00     0.235 C 
HETATM   15  C   UNL     1      25.815  44.311  53.420  1.00  0.00     0.053 C 
HETATM   16  C   UNL     1      25.629  42.077  49.186  1.00  0.00     0.030 C 
ENDBRANCH   3   7
BRANCH   1  17
HETATM   17  C   UNL     1      30.029  45.180  56.287  1.00  0.00     0.077 A 
HETATM   18  C   UNL     1      30.634  45.227  57.548  1.00  0.00     0.152 A 
HETATM   19  N   UNL     1      31.524  44.318  58.011  1.00  0.00    -0.247 NA
HETATM   20 CL   UNL     1      30.214  46.364  58.775  1.00  0.00    -0.060 Cl
HETATM   21  C   UNL     1      31.802  43.273  57.207  1.00  0.00     0.118 A 
HETATM   22  C   UNL     1      31.212  43.086  55.971  1.00  0.00     0.022 A 
HETATM   23  C   UNL     1      30.308  44.045  55.516  1.00  0.00     0.034 A 
ENDBRANCH   1  17
TORSDOF 2
ENDMDL
