MODEL 1
REMARK VINA RESULT:      -8.0      0.000      0.000
REMARK  2 active torsions:
REMARK  status: ('A' for Active; 'I' for Inactive)
REMARK    1  A    between atoms: C_7  and  N_8 
REMARK       I    between atoms: N_8  and  C_9 
REMARK       I    between atoms: C_9  and  N_10 
REMARK    2  A    between atoms: N_10  and  C_11 
ROOT
HETATM    1  C   UNL     1      27.691  43.286  54.141  1.00  0.00     0.025 A 
HETATM    2  C   UNL     1      28.852  44.024  54.382  1.00  0.00     0.044 A 
HETATM    3  C   UNL     1      28.787  45.258  55.109  1.00  0.00     0.099 C 
HETATM    4  N   UNL     1      28.731  46.257  55.696  1.00  0.00    -0.191 NA
HETATM    5  C   UNL     1      30.077  43.550  53.906  1.00  0.00     0.025 A 
HETATM    6  C   UNL     1      30.142  42.350  53.185  1.00  0.00     0.031 A 
HETATM    7  C   UNL     1      28.983  41.614  52.930  1.00  0.00     0.036 A 
HETATM    8  C   UNL     1      27.759  42.088  53.421  1.00  0.00     0.031 A 
ENDROOT
BRANCH   7   9
HETATM    9  N   UNL     1      28.957  40.411  52.193  1.00  0.00    -0.309 N 
HETATM   10  C   UNL     1      28.391  40.193  50.959  1.00  0.00     0.321 C 
HETATM   11  N   UNL     1      28.523  38.869  50.581  1.00  0.00    -0.338 N 
HETATM   12  O   UNL     1      27.800  41.004  50.258  1.00  0.00    -0.247 OA
HETATM   13  H   UNL     1      29.293  38.361  50.996  1.00  0.00     0.164 HD
HETATM   14  H   UNL     1      29.296  39.594  52.679  1.00  0.00     0.170 HD
BRANCH  11  15
HETATM   15  C   UNL     1      27.944  38.334  49.352  1.00  0.00     0.089 C 
HETATM   16  C   UNL     1      29.021  38.060  48.282  1.00  0.00     0.058 C 
HETATM   17  C   UNL     1      28.383  37.484  47.036  1.00  0.00     0.190 C 
HETATM   18  N   UNL     1      27.630  36.237  47.416  1.00  0.00    -0.067 N 
HETATM   19  C   UNL     1      29.315  36.953  45.967  1.00  0.00     0.035 C 
HETATM   20  H   UNL     1      28.285  35.622  47.928  1.00  0.00     0.280 HD
HETATM   21  C   UNL     1      26.482  36.513  48.330  1.00  0.00     0.237 C 
HETATM   22  C   UNL     1      27.325  35.540  46.116  1.00  0.00     0.235 C 
HETATM   23  C   UNL     1      27.034  37.118  49.615  1.00  0.00     0.053 C 
HETATM   24  C   UNL     1      28.410  36.028  45.157  1.00  0.00     0.030 C 
ENDBRANCH  11  15
ENDBRANCH   7   9
TORSDOF 2
ENDMDL
MODEL 2
REMARK VINA RESULT:      -7.8      1.807      2.614
REMARK  2 active torsions:
REMARK  status: ('A' for Active; 'I' for Inactive)
REMARK    1  A    between atoms: C_7  and  N_8 
REMARK       I    between atoms: N_8  and  C_9 
REMARK       I    between atoms: C_9  and  N_10 
REMARK    2  A    between atoms: N_10  and  C_11 
ROOT
HETATM    1  C   UNL     1      28.923  45.211  55.239  1.00  0.00     0.025 A 
HETATM    2  C   UNL     1      29.991  44.885  56.078  1.00  0.00     0.044 A 
HETATM    3  C   UNL     1      30.221  45.631  57.281  1.00  0.00     0.099 C 
HETATM    4  N   UNL     1      30.406  46.237  58.252  1.00  0.00    -0.191 NA
HETATM    5  C   UNL     1      30.835  43.826  55.732  1.00  0.00     0.025 A 
HETATM    6  C   UNL     1      30.620  43.103  54.552  1.00  0.00     0.031 A 
HETATM    7  C   UNL     1      29.561  43.433  53.703  1.00  0.00     0.036 A 
HETATM    8  C   UNL     1      28.711  44.488  54.061  1.00  0.00     0.031 A 
ENDROOT
BRANCH   7   9
HETATM    9  N   UNL     1      29.289  42.774  52.486  1.00  0.00    -0.309 N 
HETATM   10  C   UNL     1      28.602  41.596  52.302  1.00  0.00     0.321 C 
HETATM   11  N   UNL     1      28.583  41.237  50.966  1.00  0.00    -0.338 N 
HETATM   12  O   UNL     1      28.089  40.892  53.162  1.00  0.00    -0.247 OA
HETATM   13  H   UNL     1      28.689  41.992  50.301  1.00  0.00     0.164 HD
HETATM   14  H   UNL     1      29.748  43.154  51.672  1.00  0.00     0.170 HD
BRANCH  11  15
HETATM   15  C   UNL     1      27.993  39.991  50.488  1.00  0.00     0.089 C 
HETATM   16  C   UNL     1      27.124  40.211  49.233  1.00  0.00     0.058 C 
HETATM   17  C   UNL     1      26.553  38.892  48.758  1.00  0.00     0.190 C 
HETATM   18  N   UNL     1      27.690  37.942  48.500  1.00  0.00    -0.067 N 
HETATM   19  C   UNL     1      25.854  38.889  47.413  1.00  0.00     0.035 C 
HETATM   20  H   UNL     1      28.354  38.415  47.864  1.00  0.00     0.280 HD
HETATM   21  C   UNL     1      28.444  37.595  49.742  1.00  0.00     0.237 C 
HETATM   22  C   UNL     1      27.094  36.803  47.715  1.00  0.00     0.235 C 
HETATM   23  C   UNL     1      29.044  38.879  50.306  1.00  0.00     0.053 C 
HETATM   24  C   UNL     1      25.874  37.413  47.024  1.00  0.00     0.030 C 
ENDBRANCH  11  15
ENDBRANCH   7   9
TORSDOF 2
ENDMDL
MODEL 3
REMARK VINA RESULT:      -7.8      6.747      7.605
REMARK  2 active torsions:
REMARK  status: ('A' for Active; 'I' for Inactive)
REMARK    1  A    between atoms: C_7  and  N_8 
REMARK       I    between atoms: N_8  and  C_9 
REMARK       I    between atoms: C_9  and  N_10 
REMARK    2  A    between atoms: N_10  and  C_11 
ROOT
HETATM    1  C   UNL     1      30.033  45.250  56.367  1.00  0.00     0.025 A 
HETATM    2  C   UNL     1      30.524  43.970  56.106  1.00  0.00     0.044 A 
HETATM    3  C   UNL     1      31.644  43.460  56.842  1.00  0.00     0.099 C 
HETATM    4  N   UNL     1      32.552  43.051  57.437  1.00  0.00    -0.191 NA
HETATM    5  C   UNL     1      29.915  43.190  55.119  1.00  0.00     0.025 A 
HETATM    6  C   UNL     1      28.828  43.690  54.390  1.00  0.00     0.031 A 
HETATM    7  C   UNL     1      28.340  44.975  54.638  1.00  0.00     0.036 A 
HETATM    8  C   UNL     1      28.947  45.747  55.638  1.00  0.00     0.031 A 
ENDROOT
BRANCH   7   9
HETATM    9  N   UNL     1      27.267  45.562  53.935  1.00  0.00    -0.309 N 
HETATM   10  C   UNL     1      26.822  45.256  52.670  1.00  0.00     0.321 C 
HETATM   11  N   UNL     1      25.777  46.083  52.299  1.00  0.00    -0.338 N 
HETATM   12  O   UNL     1      27.271  44.409  51.908  1.00  0.00    -0.247 OA
HETATM   13  H   UNL     1      25.237  46.485  53.054  1.00  0.00     0.164 HD
HETATM   14  H   UNL     1      26.853  46.374  54.369  1.00  0.00     0.170 HD
BRANCH  11  15
HETATM   15  C   UNL     1      25.161  46.037  50.976  1.00  0.00     0.089 C 
HETATM   16  C   UNL     1      24.155  44.874  50.851  1.00  0.00     0.058 C 
HETATM   17  C   UNL     1      23.523  44.879  49.476  1.00  0.00     0.190 C 
HETATM   18  N   UNL     1      22.873  46.218  49.252  1.00  0.00    -0.067 N 
HETATM   19  C   UNL     1      22.354  43.942  49.253  1.00  0.00     0.035 C 
HETATM   20  H   UNL     1      22.243  46.396  50.052  1.00  0.00     0.280 HD
HETATM   21  C   UNL     1      23.859  47.338  49.212  1.00  0.00     0.237 C 
HETATM   22  C   UNL     1      21.984  46.038  48.048  1.00  0.00     0.235 C 
HETATM   23  C   UNL     1      24.564  47.397  50.562  1.00  0.00     0.053 C 
HETATM   24  C   UNL     1      21.666  44.543  48.030  1.00  0.00     0.030 C 
ENDBRANCH  11  15
ENDBRANCH   7   9
TORSDOF 2
ENDMDL
MODEL 4
REMARK VINA RESULT:      -7.7      6.103      7.911
REMARK  2 active torsions:
REMARK  status: ('A' for Active; 'I' for Inactive)
REMARK    1  A    between atoms: C_7  and  N_8 
REMARK       I    between atoms: N_8  and  C_9 
REMARK       I    between atoms: C_9  and  N_10 
REMARK    2  A    between atoms: N_10  and  C_11 
ROOT
HETATM    1  C   UNL     1      29.437  44.568  55.340  1.00  0.00     0.025 A 
HETATM    2  C   UNL     1      30.412  43.569  55.376  1.00  0.00     0.044 A 
HETATM    3  C   UNL     1      31.250  43.417  56.530  1.00  0.00     0.099 C 
HETATM    4  N   UNL     1      31.928  43.298  57.463  1.00  0.00    -0.191 NA
HETATM    5  C   UNL     1      30.565  42.721  54.277  1.00  0.00     0.025 A 
HETATM    6  C   UNL     1      29.756  42.875  53.143  1.00  0.00     0.031 A 
HETATM    7  C   UNL     1      28.787  43.880  53.097  1.00  0.00     0.036 A 
HETATM    8  C   UNL     1      28.630  44.720  54.208  1.00  0.00     0.031 A 
ENDROOT
BRANCH   7   9
HETATM    9  N   UNL     1      27.948  44.118  51.988  1.00  0.00    -0.309 N 
HETATM   10  C   UNL     1      26.790  44.859  51.952  1.00  0.00     0.321 C 
HETATM   11  N   UNL     1      26.216  44.822  50.694  1.00  0.00    -0.338 N 
HETATM   12  O   UNL     1      26.263  45.459  52.880  1.00  0.00    -0.247 OA
HETATM   13  H   UNL     1      26.844  44.636  49.923  1.00  0.00     0.164 HD
HETATM   14  H   UNL     1      28.167  43.593  51.154  1.00  0.00     0.170 HD
BRANCH  11  15
HETATM   15  C   UNL     1      24.937  45.453  50.387  1.00  0.00     0.089 C 
HETATM   16  C   UNL     1      25.112  46.922  49.949  1.00  0.00     0.058 C 
HETATM   17  C   UNL     1      23.766  47.530  49.616  1.00  0.00     0.190 C 
HETATM   18  N   UNL     1      23.113  46.694  48.550  1.00  0.00    -0.067 N 
HETATM   19  C   UNL     1      23.771  48.896  48.961  1.00  0.00     0.035 C 
HETATM   20  H   UNL     1      23.785  46.603  47.769  1.00  0.00     0.280 HD
HETATM   21  C   UNL     1      22.792  45.312  49.016  1.00  0.00     0.237 C 
HETATM   22  C   UNL     1      21.971  47.528  48.027  1.00  0.00     0.235 C 
HETATM   23  C   UNL     1      24.099  44.624  49.394  1.00  0.00     0.053 C 
HETATM   24  C   UNL     1      22.387  48.969  48.321  1.00  0.00     0.030 C 
ENDBRANCH  11  15
ENDBRANCH   7   9
TORSDOF 2
ENDMDL
MODEL 5
REMARK VINA RESULT:      -7.6      7.191      9.886
REMARK  2 active torsions:
REMARK  status: ('A' for Active; 'I' for Inactive)
REMARK    1  A    between atoms: C_7  and  N_8 
REMARK       I    between atoms: N_8  and  C_9 
REMARK       I    between atoms: C_9  and  N_10 
REMARK    2  A    between atoms: N_10  and  C_11 
ROOT
HETATM    1  C   UNL     1      25.691  48.927  49.164  1.00  0.00     0.025 A 
HETATM    2  C   UNL     1      24.354  48.778  48.791  1.00  0.00     0.044 A 
HETATM    3  C   UNL     1      23.709  49.780  47.993  1.00  0.00     0.099 C 
HETATM    4  N   UNL     1      23.189  50.593  47.350  1.00  0.00    -0.191 NA
HETATM    5  C   UNL     1      23.650  47.644  49.204  1.00  0.00     0.025 A 
HETATM    6  C   UNL     1      24.274  46.669  49.993  1.00  0.00     0.031 A 
HETATM    7  C   UNL     1      25.607  46.819  50.380  1.00  0.00     0.036 A 
HETATM    8  C   UNL     1      26.312  47.952  49.953  1.00  0.00     0.031 A 
ENDROOT
BRANCH   7   9
HETATM    9  N   UNL     1      26.303  45.898  51.192  1.00  0.00    -0.309 N 
HETATM   10  C   UNL     1      26.611  46.019  52.527  1.00  0.00     0.321 C 
HETATM   11  N   UNL     1      27.348  44.934  52.967  1.00  0.00    -0.338 N 
HETATM   12  O   UNL     1      26.338  46.953  53.272  1.00  0.00    -0.247 OA
HETATM   13  H   UNL     1      27.231  44.076  52.443  1.00  0.00     0.164 HD
HETATM   14  H   UNL     1      26.715  45.115  50.709  1.00  0.00     0.170 HD
BRANCH  11  15
HETATM   15  C   UNL     1      27.881  44.834  54.321  1.00  0.00     0.089 C 
HETATM   16  C   UNL     1      29.160  43.972  54.372  1.00  0.00     0.058 C 
HETATM   17  C   UNL     1      29.693  43.915  55.788  1.00  0.00     0.190 C 
HETATM   18  N   UNL     1      29.936  45.321  56.265  1.00  0.00    -0.067 N 
HETATM   19  C   UNL     1      31.061  43.295  55.984  1.00  0.00     0.035 C 
HETATM   20  H   UNL     1      30.535  45.789  55.563  1.00  0.00     0.280 HD
HETATM   21  C   UNL     1      28.680  46.120  56.372  1.00  0.00     0.237 C 
HETATM   22  C   UNL     1      30.775  45.185  57.509  1.00  0.00     0.235 C 
HETATM   23  C   UNL     1      28.058  46.214  54.983  1.00  0.00     0.053 C 
HETATM   24  C   UNL     1      31.491  43.844  57.342  1.00  0.00     0.030 C 
ENDBRANCH  11  15
ENDBRANCH   7   9
TORSDOF 2
ENDMDL
MODEL 6
REMARK VINA RESULT:      -7.4      5.745      6.868
REMARK  2 active torsions:
REMARK  status: ('A' for Active; 'I' for Inactive)
REMARK    1  A    between atoms: C_7  and  N_8 
REMARK       I    between atoms: N_8  and  C_9 
REMARK       I    between atoms: C_9  and  N_10 
REMARK    2  A    between atoms: N_10  and  C_11 
ROOT
HETATM    1  C   UNL     1      29.456  45.275  55.794  1.00  0.00     0.025 A 
HETATM    2  C   UNL     1      30.371  44.262  56.088  1.00  0.00     0.044 A 
HETATM    3  C   UNL     1      31.164  44.327  57.281  1.00  0.00     0.099 C 
HETATM    4  N   UNL     1      31.806  44.383  58.246  1.00  0.00    -0.191 NA
HETATM    5  C   UNL     1      30.510  43.186  55.207  1.00  0.00     0.025 A 
HETATM    6  C   UNL     1      29.745  43.126  54.034  1.00  0.00     0.031 A 
HETATM    7  C   UNL     1      28.837  44.142  53.729  1.00  0.00     0.036 A 
HETATM    8  C   UNL     1      28.694  45.212  54.623  1.00  0.00     0.031 A 
ENDROOT
BRANCH   7   9
HETATM    9  N   UNL     1      28.047  44.171  52.560  1.00  0.00    -0.309 N 
HETATM   10  C   UNL     1      26.688  44.362  52.467  1.00  0.00     0.321 C 
HETATM   11  N   UNL     1      26.264  44.275  51.153  1.00  0.00    -0.338 N 
HETATM   12  O   UNL     1      25.899  44.546  53.385  1.00  0.00    -0.247 OA
HETATM   13  H   UNL     1      26.958  44.481  50.447  1.00  0.00     0.164 HD
HETATM   14  H   UNL     1      28.520  43.913  51.708  1.00  0.00     0.170 HD
BRANCH  11  15
HETATM   15  C   UNL     1      24.860  44.357  50.766  1.00  0.00     0.089 C 
HETATM   16  C   UNL     1      24.602  45.516  49.782  1.00  0.00     0.058 C 
HETATM   17  C   UNL     1      23.140  45.548  49.388  1.00  0.00     0.190 C 
HETATM   18  N   UNL     1      22.772  44.213  48.801  1.00  0.00    -0.067 N 
HETATM   19  C   UNL     1      22.752  46.484  48.262  1.00  0.00     0.035 C 
HETATM   20  H   UNL     1      23.450  44.006  48.048  1.00  0.00     0.280 HD
HETATM   21  C   UNL     1      22.865  43.101  49.793  1.00  0.00     0.237 C 
HETATM   22  C   UNL     1      21.442  44.423  48.124  1.00  0.00     0.235 C 
HETATM   23  C   UNL     1      24.312  43.006  50.264  1.00  0.00     0.053 C 
HETATM   24  C   UNL     1      21.414  45.916  47.795  1.00  0.00     0.030 C 
ENDBRANCH  11  15
ENDBRANCH   7   9
TORSDOF 2
ENDMDL
MODEL 7
REMARK VINA RESULT:      -7.4     15.953     19.241
REMARK  2 active torsions:
REMARK  status: ('A' for Active; 'I' for Inactive)
REMARK    1  A    between atoms: C_7  and  N_8 
REMARK       I    between atoms: N_8  and  C_9 
REMARK       I    between atoms: C_9  and  N_10 
REMARK    2  A    between atoms: N_10  and  C_11 
ROOT
HETATM    1  C   UNL     1      20.914  51.237  48.776  1.00  0.00     0.025 A 
HETATM    2  C   UNL     1      20.933  50.154  47.896  1.00  0.00     0.044 A 
HETATM    3  C   UNL     1      22.104  49.335  47.782  1.00  0.00     0.099 C 
HETATM    4  N   UNL     1      23.053  48.675  47.690  1.00  0.00    -0.191 NA
HETATM    5  C   UNL     1      19.801  49.877  47.125  1.00  0.00     0.025 A 
HETATM    6  C   UNL     1      18.659  50.683  47.225  1.00  0.00     0.031 A 
HETATM    7  C   UNL     1      18.638  51.775  48.096  1.00  0.00     0.036 A 
HETATM    8  C   UNL     1      19.772  52.041  48.875  1.00  0.00     0.031 A 
ENDROOT
BRANCH   7   9
HETATM    9  N   UNL     1      17.541  52.650  48.240  1.00  0.00    -0.309 N 
HETATM   10  C   UNL     1      16.663  52.732  49.295  1.00  0.00     0.321 C 
HETATM   11  N   UNL     1      15.684  53.679  49.053  1.00  0.00    -0.338 N 
HETATM   12  O   UNL     1      16.667  52.061  50.319  1.00  0.00    -0.247 OA
HETATM   13  H   UNL     1      15.928  54.416  48.405  1.00  0.00     0.164 HD
HETATM   14  H   UNL     1      17.311  53.199  47.425  1.00  0.00     0.170 HD
BRANCH  11  15
HETATM   15  C   UNL     1      14.573  53.922  49.968  1.00  0.00     0.089 C 
HETATM   16  C   UNL     1      14.981  54.844  51.135  1.00  0.00     0.058 C 
HETATM   17  C   UNL     1      13.795  55.090  52.043  1.00  0.00     0.190 C 
HETATM   18  N   UNL     1      12.677  55.674  51.224  1.00  0.00    -0.067 N 
HETATM   19  C   UNL     1      13.958  56.146  53.117  1.00  0.00     0.035 C 
HETATM   20  H   UNL     1      13.054  56.496  50.722  1.00  0.00     0.280 HD
HETATM   21  C   UNL     1      12.164  54.726  50.190  1.00  0.00     0.237 C 
HETATM   22  C   UNL     1      11.683  56.210  52.222  1.00  0.00     0.235 C 
HETATM   23  C   UNL     1      13.306  54.405  49.234  1.00  0.00     0.053 C 
HETATM   24  C   UNL     1      12.515  56.493  53.473  1.00  0.00     0.030 C 
ENDBRANCH  11  15
ENDBRANCH   7   9
TORSDOF 2
ENDMDL
MODEL 8
REMARK VINA RESULT:      -7.4      3.869      4.700
REMARK  2 active torsions:
REMARK  status: ('A' for Active; 'I' for Inactive)
REMARK    1  A    between atoms: C_7  and  N_8 
REMARK       I    between atoms: N_8  and  C_9 
REMARK       I    between atoms: C_9  and  N_10 
REMARK    2  A    between atoms: N_10  and  C_11 
ROOT
HETATM    1  C   UNL     1      29.393  44.967  55.623  1.00  0.00     0.025 A 
HETATM    2  C   UNL     1      30.416  44.049  55.866  1.00  0.00     0.044 A 
HETATM    3  C   UNL     1      31.168  44.109  57.086  1.00  0.00     0.099 C 
HETATM    4  N   UNL     1      31.775  44.161  58.073  1.00  0.00    -0.191 NA
HETATM    5  C   UNL     1      30.703  43.072  54.909  1.00  0.00     0.025 A 
HETATM    6  C   UNL     1      29.979  43.018  53.711  1.00  0.00     0.031 A 
HETATM    7  C   UNL     1      28.962  43.942  53.456  1.00  0.00     0.036 A 
HETATM    8  C   UNL     1      28.671  44.911  54.426  1.00  0.00     0.031 A 
ENDROOT
BRANCH   7   9
HETATM    9  N   UNL     1      28.203  43.973  52.268  1.00  0.00    -0.309 N 
HETATM   10  C   UNL     1      27.483  42.946  51.702  1.00  0.00     0.321 C 
HETATM   11  N   UNL     1      26.909  43.343  50.507  1.00  0.00    -0.338 N 
HETATM   12  O   UNL     1      27.361  41.803  52.124  1.00  0.00    -0.247 OA
HETATM   13  H   UNL     1      26.742  44.335  50.402  1.00  0.00     0.164 HD
HETATM   14  H   UNL     1      28.290  44.813  51.716  1.00  0.00     0.170 HD
BRANCH  11  15
HETATM   15  C   UNL     1      26.156  42.434  49.649  1.00  0.00     0.089 C 
HETATM   16  C   UNL     1      24.942  43.131  49.000  1.00  0.00     0.058 C 
HETATM   17  C   UNL     1      24.205  42.162  48.101  1.00  0.00     0.190 C 
HETATM   18  N   UNL     1      25.170  41.631  47.076  1.00  0.00    -0.067 N 
HETATM   19  C   UNL     1      23.118  42.735  47.215  1.00  0.00     0.035 C 
HETATM   20  H   UNL     1      25.614  42.443  46.615  1.00  0.00     0.280 HD
HETATM   21  C   UNL     1      26.265  40.817  47.682  1.00  0.00     0.237 C 
HETATM   22  C   UNL     1      24.317  40.966  46.026  1.00  0.00     0.235 C 
HETATM   23  C   UNL     1      27.056  41.715  48.626  1.00  0.00     0.053 C 
HETATM   24  C   UNL     1      22.963  41.668  46.135  1.00  0.00     0.030 C 
ENDBRANCH  11  15
ENDBRANCH   7   9
TORSDOF 2
ENDMDL
MODEL 9
REMARK VINA RESULT:      -7.2      4.804      9.360
REMARK  2 active torsions:
REMARK  status: ('A' for Active; 'I' for Inactive)
REMARK    1  A    between atoms: C_7  and  N_8 
REMARK       I    between atoms: N_8  and  C_9 
REMARK       I    between atoms: C_9  and  N_10 
REMARK    2  A    between atoms: N_10  and  C_11 
ROOT
HETATM    1  C   UNL     1      22.447  43.796  49.166  1.00  0.00     0.025 A 
HETATM    2  C   UNL     1      22.620  42.996  48.035  1.00  0.00     0.044 A 
HETATM    3  C   UNL     1      21.734  43.127  46.914  1.00  0.00     0.099 C 
HETATM    4  N   UNL     1      21.016  43.234  46.010  1.00  0.00    -0.191 NA
HETATM    5  C   UNL     1      23.661  42.065  48.005  1.00  0.00     0.025 A 
HETATM    6  C   UNL     1      24.520  41.926  49.103  1.00  0.00     0.031 A 
HETATM    7  C   UNL     1      24.346  42.714  50.243  1.00  0.00     0.036 A 
HETATM    8  C   UNL     1      23.307  43.655  50.261  1.00  0.00     0.031 A 
ENDROOT
BRANCH   7   9
HETATM    9  N   UNL     1      25.149  42.622  51.398  1.00  0.00    -0.309 N 
HETATM   10  C   UNL     1      26.243  43.388  51.727  1.00  0.00     0.321 C 
HETATM   11  N   UNL     1      26.804  42.966  52.919  1.00  0.00    -0.338 N 
HETATM   12  O   UNL     1      26.731  44.304  51.077  1.00  0.00    -0.247 OA
HETATM   13  H   UNL     1      26.184  42.485  53.557  1.00  0.00     0.164 HD
HETATM   14  H   UNL     1      24.964  41.830  51.996  1.00  0.00     0.170 HD
BRANCH  11  15
HETATM   15  C   UNL     1      28.024  43.547  53.470  1.00  0.00     0.089 C 
HETATM   16  C   UNL     1      27.726  44.508  54.640  1.00  0.00     0.058 C 
HETATM   17  C   UNL     1      29.018  45.066  55.197  1.00  0.00     0.190 C 
HETATM   18  N   UNL     1      29.895  43.918  55.615  1.00  0.00    -0.067 N 
HETATM   19  C   UNL     1      28.927  45.855  56.487  1.00  0.00     0.035 C 
HETATM   20  H   UNL     1      29.341  43.316  56.247  1.00  0.00     0.280 HD
HETATM   21  C   UNL     1      30.323  43.069  54.464  1.00  0.00     0.237 C 
HETATM   22  C   UNL     1      30.982  44.529  56.462  1.00  0.00     0.235 C 
HETATM   23  C   UNL     1      29.073  42.475  53.824  1.00  0.00     0.053 C 
HETATM   24  C   UNL     1      30.360  45.813  57.011  1.00  0.00     0.030 C 
ENDBRANCH  11  15
ENDBRANCH   7   9
TORSDOF 2
ENDMDL
MODEL 10
REMARK VINA RESULT:      -7.0     14.698     17.645
REMARK  2 active torsions:
REMARK  status: ('A' for Active; 'I' for Inactive)
REMARK    1  A    between atoms: C_7  and  N_8 
REMARK       I    between atoms: N_8  and  C_9 
REMARK       I    between atoms: C_9  and  N_10 
REMARK    2  A    between atoms: N_10  and  C_11 
ROOT
HETATM    1  C   UNL     1      22.696  50.788  49.578  1.00  0.00     0.025 A 
HETATM    2  C   UNL     1      23.020  50.403  48.276  1.00  0.00     0.044 A 
HETATM    3  C   UNL     1      24.392  50.284  47.875  1.00  0.00     0.099 C 
HETATM    4  N   UNL     1      25.502  50.190  47.554  1.00  0.00    -0.191 NA
HETATM    5  C   UNL     1      21.994  50.136  47.364  1.00  0.00     0.025 A 
HETATM    6  C   UNL     1      20.653  50.263  47.749  1.00  0.00     0.031 A 
HETATM    7  C   UNL     1      20.323  50.660  49.047  1.00  0.00     0.036 A 
HETATM    8  C   UNL     1      21.356  50.914  49.959  1.00  0.00     0.031 A 
ENDROOT
BRANCH   7   9
HETATM    9  N   UNL     1      19.002  50.835  49.508  1.00  0.00    -0.309 N 
HETATM   10  C   UNL     1      18.098  51.799  49.126  1.00  0.00     0.321 C 
HETATM   11  N   UNL     1      16.917  51.681  49.837  1.00  0.00    -0.338 N 
HETATM   12  O   UNL     1      18.267  52.694  48.307  1.00  0.00    -0.247 OA
HETATM   13  H   UNL     1      16.709  50.762  50.204  1.00  0.00     0.164 HD
HETATM   14  H   UNL     1      18.730  50.254  50.286  1.00  0.00     0.170 HD
BRANCH  11  15
HETATM   15  C   UNL     1      15.809  52.621  49.696  1.00  0.00     0.089 C 
HETATM   16  C   UNL     1      16.142  53.997  50.308  1.00  0.00     0.058 C 
HETATM   17  C   UNL     1      14.978  54.946  50.117  1.00  0.00     0.190 C 
HETATM   18  N   UNL     1      14.670  55.039  48.648  1.00  0.00    -0.067 N 
HETATM   19  C   UNL     1      15.214  56.403  50.463  1.00  0.00     0.035 C 
HETATM   20  H   UNL     1      15.549  55.280  48.159  1.00  0.00     0.280 HD
HETATM   21  C   UNL     1      14.192  53.745  48.076  1.00  0.00     0.237 C 
HETATM   22  C   UNL     1      13.765  56.234  48.500  1.00  0.00     0.235 C 
HETATM   23  C   UNL     1      15.303  52.714  48.243  1.00  0.00     0.053 C 
HETATM   24  C   UNL     1      14.098  57.116  49.704  1.00  0.00     0.030 C 
ENDBRANCH  11  15
ENDBRANCH   7   9
TORSDOF 2
ENDMDL
