MODEL 1
REMARK VINA RESULT:      -8.5      0.000      0.000
REMARK  7 active torsions:
REMARK  status: ('A' for Active; 'I' for Inactive)
REMARK    1  A    between atoms: C_2  and  C_3 
REMARK    2  A    between atoms: C_3  and  C_4 
REMARK    3  A    between atoms: C_7  and  C_8 
REMARK    4  A    between atoms: C_14  and  C_15 
REMARK    5  A    between atoms: C_18  and  O_19 
REMARK    6  A    between atoms: O_19  and  C_20 
REMARK       I    between atoms: C_20  and  N_21 
REMARK    7  A    between atoms: C_33  and  N_34 
ROOT
HETATM    1  C   UNL     1      26.588  45.676  51.941  1.00  0.00     0.099 A 
HETATM    2  N   UNL     1      26.800  45.912  53.251  1.00  0.00    -0.172 NA
HETATM    3  N   UNL     1      27.253  44.744  53.744  1.00  0.00    -0.256 N 
HETATM    4  H   UNL     1      27.486  44.687  54.730  1.00  0.00     0.191 HD
HETATM    5  C   UNL     1      27.318  43.768  52.807  1.00  0.00     0.175 A 
HETATM    6  C   UNL     1      26.904  44.324  51.624  1.00  0.00     0.040 A 
HETATM    7  C   UNL     1      26.835  43.478  50.396  1.00  0.00     0.105 A 
HETATM    8  C   UNL     1      27.366  42.079  50.688  1.00  0.00     0.067 A 
HETATM    9  C   UNL     1      27.591  41.189  49.474  1.00  0.00     0.020 C 
HETATM   10  N   UNL     1      27.778  40.452  48.470  1.00  0.00    -0.096 N 
HETATM   11  C   UNL     1      27.761  41.665  51.921  1.00  0.00     0.139 A 
HETATM   12  O   UNL     1      27.699  42.516  53.040  1.00  0.00    -0.279 OA
ENDROOT
BRANCH   7  13
HETATM   13  C   UNL     1      25.382  43.497  49.943  1.00  0.00    -0.044 A 
HETATM   14  C   UNL     1      25.041  44.188  48.767  1.00  0.00     0.011 A 
HETATM   15  C   UNL     1      23.706  44.338  48.391  1.00  0.00     0.038 A 
HETATM   16  C   UNL     1      22.699  43.786  49.179  1.00  0.00     0.081 A 
HETATM   17  C   UNL     1      23.012  43.050  50.317  1.00  0.00     0.038 A 
HETATM   18  C   UNL     1      24.350  42.888  50.683  1.00  0.00     0.011 A 
BRANCH  16  19
HETATM   19  O   UNL     1      21.383  44.157  48.834  1.00  0.00    -0.261 OA
BRANCH  19  20
HETATM   20  C   UNL     1      20.939  44.291  47.521  1.00  0.00     0.368 C 
HETATM   21  N   UNL     1      20.573  45.593  47.227  1.00  0.00    -0.324 N 
HETATM   22  C   UNL     1      20.199  45.957  45.864  1.00  0.00     0.154 C 
HETATM   23  C   UNL     1      20.774  46.721  48.137  1.00  0.00     0.154 C 
HETATM   24  C   UNL     1      19.063  46.983  45.863  1.00  0.00     0.187 C 
HETATM   25  O   UNL     1      19.390  48.120  46.679  1.00  0.00    -0.388 OA
HETATM   26  C   UNL     1      19.613  47.716  48.038  1.00  0.00     0.187 C 
HETATM   27  O   UNL     1      20.865  43.369  46.717  1.00  0.00    -0.238 OA
ENDBRANCH  19  20
ENDBRANCH  16  19
ENDBRANCH   7  13
BRANCH  11  28
HETATM   28  N   UNL     1      28.272  40.423  52.220  1.00  0.00    -0.282 NA
HETATM   29  H   UNL     1      27.614  39.651  52.154  1.00  0.00     0.126 HD
HETATM   30  H   UNL     1      28.791  40.424  53.096  1.00  0.00     0.126 HD
ENDBRANCH  11  28
BRANCH   1  31
HETATM   31  C   UNL     1      26.040  46.713  51.066  1.00  0.00    -0.005 A 
HETATM   32  C   UNL     1      26.870  47.502  50.265  1.00  0.00     0.014 A 
HETATM   33  C   UNL     1      26.322  48.428  49.371  1.00  0.00     0.008 A 
HETATM   34  C   UNL     1      24.934  48.595  49.274  1.00  0.00    -0.058 A 
HETATM   35  C   UNL     1      24.107  47.841  50.113  1.00  0.00     0.008 A 
HETATM   36  C   UNL     1      24.654  46.906  50.995  1.00  0.00     0.014 A 
BRANCH  34  37
HETATM   37  C   UNL     1      24.353  49.582  48.288  1.00  0.00     0.042 C 
BRANCH  37  38
HETATM   38  C   UNL     1      22.905  50.051  48.553  1.00  0.00    -0.019 C 
HETATM   39  C   UNL     1      22.119  50.325  47.270  1.00  0.00     0.010 C 
HETATM   40  C   UNL     1      22.828  51.259  49.488  1.00  0.00     0.010 C 
ENDBRANCH  37  38
ENDBRANCH  34  37
ENDBRANCH   1  31
TORSDOF 7
ENDMDL
MODEL 2
REMARK VINA RESULT:      -8.3      2.673      7.415
REMARK  7 active torsions:
REMARK  status: ('A' for Active; 'I' for Inactive)
REMARK    1  A    between atoms: C_2  and  C_3 
REMARK    2  A    between atoms: C_3  and  C_4 
REMARK    3  A    between atoms: C_7  and  C_8 
REMARK    4  A    between atoms: C_14  and  C_15 
REMARK    5  A    between atoms: C_18  and  O_19 
REMARK    6  A    between atoms: O_19  and  C_20 
REMARK       I    between atoms: C_20  and  N_21 
REMARK    7  A    between atoms: C_33  and  N_34 
ROOT
HETATM    1  C   UNL     1      26.088  47.641  49.653  1.00  0.00     0.099 A 
HETATM    2  N   UNL     1      27.049  48.367  49.049  1.00  0.00    -0.172 NA
HETATM    3  N   UNL     1      26.383  49.266  48.299  1.00  0.00    -0.256 N 
HETATM    4  H   UNL     1      26.913  49.933  47.749  1.00  0.00     0.191 HD
HETATM    5  C   UNL     1      25.038  49.128  48.384  1.00  0.00     0.175 A 
HETATM    6  C   UNL     1      24.798  48.094  49.253  1.00  0.00     0.040 A 
HETATM    7  C   UNL     1      23.392  47.676  49.532  1.00  0.00     0.105 A 
HETATM    8  C   UNL     1      22.414  48.604  48.821  1.00  0.00     0.067 A 
HETATM    9  C   UNL     1      20.953  48.455  49.215  1.00  0.00     0.020 C 
HETATM   10  N   UNL     1      19.742  48.331  49.542  1.00  0.00    -0.096 N 
HETATM   11  C   UNL     1      22.798  49.611  47.990  1.00  0.00     0.139 A 
HETATM   12  O   UNL     1      24.155  49.865  47.718  1.00  0.00    -0.279 OA
ENDROOT
BRANCH   7  13
HETATM   13  C   UNL     1      23.283  46.223  49.093  1.00  0.00    -0.044 A 
HETATM   14  C   UNL     1      23.466  45.205  50.046  1.00  0.00     0.011 A 
HETATM   15  C   UNL     1      23.503  43.865  49.659  1.00  0.00     0.038 A 
HETATM   16  C   UNL     1      23.341  43.528  48.318  1.00  0.00     0.081 A 
HETATM   17  C   UNL     1      23.102  44.512  47.363  1.00  0.00     0.038 A 
HETATM   18  C   UNL     1      23.050  45.851  47.755  1.00  0.00     0.011 A 
BRANCH  16  19
HETATM   19  O   UNL     1      23.592  42.179  47.993  1.00  0.00    -0.261 OA
BRANCH  19  20
HETATM   20  C   UNL     1      24.378  41.778  46.915  1.00  0.00     0.368 C 
HETATM   21  N   UNL     1      25.587  41.244  47.324  1.00  0.00    -0.324 N 
HETATM   22  C   UNL     1      26.494  40.654  46.344  1.00  0.00     0.154 C 
HETATM   23  C   UNL     1      25.934  40.989  48.723  1.00  0.00     0.154 C 
HETATM   24  C   UNL     1      27.953  40.951  46.700  1.00  0.00     0.187 C 
HETATM   25  O   UNL     1      28.248  40.555  48.049  1.00  0.00    -0.388 OA
HETATM   26  C   UNL     1      27.418  41.269  48.977  1.00  0.00     0.187 C 
HETATM   27  O   UNL     1      24.051  41.893  45.739  1.00  0.00    -0.238 OA
ENDBRANCH  19  20
ENDBRANCH  16  19
ENDBRANCH   7  13
BRANCH  11  28
HETATM   28  N   UNL     1      21.950  50.487  47.354  1.00  0.00    -0.282 NA
HETATM   29  H   UNL     1      20.963  50.243  47.388  1.00  0.00     0.126 HD
HETATM   30  H   UNL     1      22.268  50.712  46.414  1.00  0.00     0.126 HD
ENDBRANCH  11  28
BRANCH   1  31
HETATM   31  C   UNL     1      26.428  46.518  50.527  1.00  0.00    -0.005 A 
HETATM   32  C   UNL     1      27.017  45.355  50.021  1.00  0.00     0.014 A 
HETATM   33  C   UNL     1      27.414  44.328  50.884  1.00  0.00     0.008 A 
HETATM   34  C   UNL     1      27.213  44.435  52.266  1.00  0.00    -0.058 A 
HETATM   35  C   UNL     1      26.577  45.576  52.765  1.00  0.00     0.008 A 
HETATM   36  C   UNL     1      26.194  46.609  51.905  1.00  0.00     0.014 A 
BRANCH  34  37
HETATM   37  C   UNL     1      27.667  43.328  53.190  1.00  0.00     0.042 C 
BRANCH  37  38
HETATM   38  C   UNL     1      28.979  42.606  52.808  1.00  0.00    -0.019 C 
HETATM   39  C   UNL     1      28.818  41.090  52.696  1.00  0.00     0.010 C 
HETATM   40  C   UNL     1      30.144  42.948  53.739  1.00  0.00     0.010 C 
ENDBRANCH  37  38
ENDBRANCH  34  37
ENDBRANCH   1  31
TORSDOF 7
ENDMDL
MODEL 3
REMARK VINA RESULT:      -8.0      2.904      7.121
REMARK  7 active torsions:
REMARK  status: ('A' for Active; 'I' for Inactive)
REMARK    1  A    between atoms: C_2  and  C_3 
REMARK    2  A    between atoms: C_3  and  C_4 
REMARK    3  A    between atoms: C_7  and  C_8 
REMARK    4  A    between atoms: C_14  and  C_15 
REMARK    5  A    between atoms: C_18  and  O_19 
REMARK    6  A    between atoms: O_19  and  C_20 
REMARK       I    between atoms: C_20  and  N_21 
REMARK    7  A    between atoms: C_33  and  N_34 
ROOT
HETATM    1  C   UNL     1      26.018  47.883  49.572  1.00  0.00     0.099 A 
HETATM    2  N   UNL     1      26.964  48.602  48.935  1.00  0.00    -0.172 NA
HETATM    3  N   UNL     1      26.279  49.483  48.182  1.00  0.00    -0.256 N 
HETATM    4  H   UNL     1      26.795  50.142  47.609  1.00  0.00     0.191 HD
HETATM    5  C   UNL     1      24.936  49.342  48.297  1.00  0.00     0.175 A 
HETATM    6  C   UNL     1      24.719  48.323  49.190  1.00  0.00     0.040 A 
HETATM    7  C   UNL     1      23.321  47.905  49.505  1.00  0.00     0.105 A 
HETATM    8  C   UNL     1      22.324  48.816  48.797  1.00  0.00     0.067 A 
HETATM    9  C   UNL     1      20.872  48.667  49.223  1.00  0.00     0.020 C 
HETATM   10  N   UNL     1      19.669  48.545  49.577  1.00  0.00    -0.096 N 
HETATM   11  C   UNL     1      22.687  49.807  47.940  1.00  0.00     0.139 A 
HETATM   12  O   UNL     1      24.037  50.063  47.635  1.00  0.00    -0.279 OA
ENDROOT
BRANCH   7  13
HETATM   13  C   UNL     1      23.209  46.443  49.096  1.00  0.00    -0.044 A 
HETATM   14  C   UNL     1      22.868  46.128  47.769  1.00  0.00     0.011 A 
HETATM   15  C   UNL     1      22.629  44.806  47.390  1.00  0.00     0.038 A 
HETATM   16  C   UNL     1      22.745  43.786  48.330  1.00  0.00     0.081 A 
HETATM   17  C   UNL     1      23.136  44.064  49.636  1.00  0.00     0.038 A 
HETATM   18  C   UNL     1      23.389  45.386  50.009  1.00  0.00     0.011 A 
BRANCH  16  19
HETATM   19  O   UNL     1      22.292  42.517  47.912  1.00  0.00    -0.261 OA
BRANCH  19  20
HETATM   20  C   UNL     1      22.701  41.905  46.729  1.00  0.00     0.368 C 
HETATM   21  N   UNL     1      23.873  41.188  46.893  1.00  0.00    -0.324 N 
HETATM   22  C   UNL     1      24.392  40.375  45.798  1.00  0.00     0.154 C 
HETATM   23  C   UNL     1      24.522  40.973  48.188  1.00  0.00     0.154 C 
HETATM   24  C   UNL     1      25.922  40.425  45.757  1.00  0.00     0.187 C 
HETATM   25  O   UNL     1      26.486  40.077  47.032  1.00  0.00    -0.388 OA
HETATM   26  C   UNL     1      26.047  40.995  48.044  1.00  0.00     0.187 C 
HETATM   27  O   UNL     1      22.105  41.994  45.661  1.00  0.00    -0.238 OA
ENDBRANCH  19  20
ENDBRANCH  16  19
ENDBRANCH   7  13
BRANCH  11  28
HETATM   28  N   UNL     1      21.822  50.668  47.305  1.00  0.00    -0.282 NA
HETATM   29  H   UNL     1      20.946  50.257  46.992  1.00  0.00     0.126 HD
HETATM   30  H   UNL     1      22.286  51.207  46.576  1.00  0.00     0.126 HD
ENDBRANCH  11  28
BRANCH   1  31
HETATM   31  C   UNL     1      26.381  46.778  50.460  1.00  0.00    -0.005 A 
HETATM   32  C   UNL     1      26.103  46.824  51.829  1.00  0.00     0.014 A 
HETATM   33  C   UNL     1      26.378  45.721  52.646  1.00  0.00     0.008 A 
HETATM   34  C   UNL     1      26.954  44.560  52.113  1.00  0.00    -0.058 A 
HETATM   35  C   UNL     1      27.278  44.536  50.753  1.00  0.00     0.008 A 
HETATM   36  C   UNL     1      26.990  45.631  49.934  1.00  0.00     0.014 A 
BRANCH  34  37
HETATM   37  C   UNL     1      27.225  43.368  53.002  1.00  0.00     0.042 C 
BRANCH  37  38
HETATM   38  C   UNL     1      28.593  43.340  53.720  1.00  0.00    -0.019 C 
HETATM   39  C   UNL     1      28.854  44.591  54.561  1.00  0.00     0.010 C 
HETATM   40  C   UNL     1      29.764  43.087  52.769  1.00  0.00     0.010 C 
ENDBRANCH  37  38
ENDBRANCH  34  37
ENDBRANCH   1  31
TORSDOF 7
ENDMDL
MODEL 4
REMARK VINA RESULT:      -7.9      3.131      6.951
REMARK  7 active torsions:
REMARK  status: ('A' for Active; 'I' for Inactive)
REMARK    1  A    between atoms: C_2  and  C_3 
REMARK    2  A    between atoms: C_3  and  C_4 
REMARK    3  A    between atoms: C_7  and  C_8 
REMARK    4  A    between atoms: C_14  and  C_15 
REMARK    5  A    between atoms: C_18  and  O_19 
REMARK    6  A    between atoms: O_19  and  C_20 
REMARK       I    between atoms: C_20  and  N_21 
REMARK    7  A    between atoms: C_33  and  N_34 
ROOT
HETATM    1  C   UNL     1      26.170  47.787  49.571  1.00  0.00     0.099 A 
HETATM    2  N   UNL     1      27.128  48.467  48.911  1.00  0.00    -0.172 NA
HETATM    3  N   UNL     1      26.460  49.359  48.155  1.00  0.00    -0.256 N 
HETATM    4  H   UNL     1      26.988  49.994  47.566  1.00  0.00     0.191 HD
HETATM    5  C   UNL     1      25.115  49.261  48.291  1.00  0.00     0.175 A 
HETATM    6  C   UNL     1      24.880  48.261  49.201  1.00  0.00     0.040 A 
HETATM    7  C   UNL     1      23.474  47.891  49.540  1.00  0.00     0.105 A 
HETATM    8  C   UNL     1      22.496  48.822  48.833  1.00  0.00     0.067 A 
HETATM    9  C   UNL     1      21.046  48.724  49.282  1.00  0.00     0.020 C 
HETATM   10  N   UNL     1      19.845  48.644  49.653  1.00  0.00    -0.096 N 
HETATM   11  C   UNL     1      22.876  49.791  47.958  1.00  0.00     0.139 A 
HETATM   12  O   UNL     1      24.229  50.000  47.632  1.00  0.00    -0.279 OA
ENDROOT
BRANCH   7  13
HETATM   13  C   UNL     1      23.312  46.427  49.153  1.00  0.00    -0.044 A 
HETATM   14  C   UNL     1      22.929  46.105  47.839  1.00  0.00     0.011 A 
HETATM   15  C   UNL     1      22.644  44.787  47.483  1.00  0.00     0.038 A 
HETATM   16  C   UNL     1      22.755  43.775  48.434  1.00  0.00     0.081 A 
HETATM   17  C   UNL     1      23.187  44.059  49.725  1.00  0.00     0.038 A 
HETATM   18  C   UNL     1      23.486  45.377  50.075  1.00  0.00     0.011 A 
BRANCH  16  19
HETATM   19  O   UNL     1      22.257  42.514  48.042  1.00  0.00    -0.261 OA
BRANCH  19  20
HETATM   20  C   UNL     1      22.977  41.608  47.266  1.00  0.00     0.368 C 
HETATM   21  N   UNL     1      22.277  41.224  46.135  1.00  0.00    -0.324 N 
HETATM   22  C   UNL     1      22.916  40.376  45.135  1.00  0.00     0.154 C 
HETATM   23  C   UNL     1      21.002  41.814  45.726  1.00  0.00     0.154 C 
HETATM   24  C   UNL     1      21.916  39.378  44.544  1.00  0.00     0.187 C 
HETATM   25  O   UNL     1      20.746  40.049  44.048  1.00  0.00    -0.388 OA
HETATM   26  C   UNL     1      20.084  40.755  45.108  1.00  0.00     0.187 C 
HETATM   27  O   UNL     1      24.093  41.187  47.549  1.00  0.00    -0.238 OA
ENDBRANCH  19  20
ENDBRANCH  16  19
ENDBRANCH   7  13
BRANCH  11  28
HETATM   28  N   UNL     1      22.030  50.669  47.323  1.00  0.00    -0.282 NA
HETATM   29  H   UNL     1      22.325  51.643  47.329  1.00  0.00     0.126 HD
HETATM   30  H   UNL     1      21.063  50.549  47.619  1.00  0.00     0.126 HD
ENDBRANCH  11  28
BRANCH   1  31
HETATM   31  C   UNL     1      26.511  46.683  50.469  1.00  0.00    -0.005 A 
HETATM   32  C   UNL     1      26.258  46.757  51.842  1.00  0.00     0.014 A 
HETATM   33  C   UNL     1      26.511  45.658  52.670  1.00  0.00     0.008 A 
HETATM   34  C   UNL     1      27.039  44.471  52.145  1.00  0.00    -0.058 A 
HETATM   35  C   UNL     1      27.339  44.416  50.780  1.00  0.00     0.008 A 
HETATM   36  C   UNL     1      27.073  45.509  49.950  1.00  0.00     0.014 A 
BRANCH  34  37
HETATM   37  C   UNL     1      27.285  43.283  53.046  1.00  0.00     0.042 C 
BRANCH  37  38
HETATM   38  C   UNL     1      28.681  42.626  52.955  1.00  0.00    -0.019 C 
HETATM   39  C   UNL     1      28.628  41.098  53.000  1.00  0.00     0.010 C 
HETATM   40  C   UNL     1      29.661  43.153  54.004  1.00  0.00     0.010 C 
ENDBRANCH  37  38
ENDBRANCH  34  37
ENDBRANCH   1  31
TORSDOF 7
ENDMDL
MODEL 5
REMARK VINA RESULT:      -7.5      2.891      5.429
REMARK  7 active torsions:
REMARK  status: ('A' for Active; 'I' for Inactive)
REMARK    1  A    between atoms: C_2  and  C_3 
REMARK    2  A    between atoms: C_3  and  C_4 
REMARK    3  A    between atoms: C_7  and  C_8 
REMARK    4  A    between atoms: C_14  and  C_15 
REMARK    5  A    between atoms: C_18  and  O_19 
REMARK    6  A    between atoms: O_19  and  C_20 
REMARK       I    between atoms: C_20  and  N_21 
REMARK    7  A    between atoms: C_33  and  N_34 
ROOT
HETATM    1  C   UNL     1      29.010  39.959  51.695  1.00  0.00     0.099 A 
HETATM    2  N   UNL     1      29.271  38.774  52.281  1.00  0.00    -0.172 NA
HETATM    3  N   UNL     1      29.259  37.881  51.274  1.00  0.00    -0.256 N 
HETATM    4  H   UNL     1      29.439  36.905  51.484  1.00  0.00     0.191 HD
HETATM    5  C   UNL     1      28.981  38.444  50.074  1.00  0.00     0.175 A 
HETATM    6  C   UNL     1      28.818  39.789  50.295  1.00  0.00     0.040 A 
HETATM    7  C   UNL     1      28.468  40.685  49.154  1.00  0.00     0.105 A 
HETATM    8  C   UNL     1      28.448  39.897  47.849  1.00  0.00     0.067 A 
HETATM    9  C   UNL     1      28.355  40.725  46.576  1.00  0.00     0.020 C 
HETATM   10  N   UNL     1      28.278  41.411  45.522  1.00  0.00    -0.096 N 
HETATM   11  C   UNL     1      28.643  38.554  47.776  1.00  0.00     0.139 A 
HETATM   12  O   UNL     1      28.876  37.779  48.928  1.00  0.00    -0.279 OA
ENDROOT
BRANCH   7  13
HETATM   13  C   UNL     1      27.129  41.320  49.504  1.00  0.00    -0.044 A 
HETATM   14  C   UNL     1      25.945  40.607  49.246  1.00  0.00     0.011 A 
HETATM   15  C   UNL     1      24.699  41.205  49.431  1.00  0.00     0.038 A 
HETATM   16  C   UNL     1      24.623  42.517  49.892  1.00  0.00     0.081 A 
HETATM   17  C   UNL     1      25.778  43.226  50.208  1.00  0.00     0.038 A 
HETATM   18  C   UNL     1      27.024  42.619  50.036  1.00  0.00     0.011 A 
BRANCH  16  19
HETATM   19  O   UNL     1      23.340  43.103  49.857  1.00  0.00    -0.261 OA
BRANCH  19  20
HETATM   20  C   UNL     1      22.639  43.353  48.679  1.00  0.00     0.368 C 
HETATM   21  N   UNL     1      22.738  44.677  48.287  1.00  0.00    -0.324 N 
HETATM   22  C   UNL     1      22.175  45.105  47.011  1.00  0.00     0.154 C 
HETATM   23  C   UNL     1      23.601  45.659  48.946  1.00  0.00     0.154 C 
HETATM   24  C   UNL     1      21.569  46.507  47.124  1.00  0.00     0.187 C 
HETATM   25  O   UNL     1      22.520  47.441  47.660  1.00  0.00    -0.388 OA
HETATM   26  C   UNL     1      22.935  47.038  48.974  1.00  0.00     0.187 C 
HETATM   27  O   UNL     1      21.997  42.510  48.062  1.00  0.00    -0.238 OA
ENDBRANCH  19  20
ENDBRANCH  16  19
ENDBRANCH   7  13
BRANCH  11  28
HETATM   28  N   UNL     1      28.663  37.811  46.619  1.00  0.00    -0.282 NA
HETATM   29  H   UNL     1      27.931  37.110  46.537  1.00  0.00     0.126 HD
HETATM   30  H   UNL     1      29.589  37.439  46.419  1.00  0.00     0.126 HD
ENDBRANCH  11  28
BRANCH   1  31
HETATM   31  C   UNL     1      28.892  41.184  52.488  1.00  0.00    -0.005 A 
HETATM   32  C   UNL     1      29.848  42.200  52.402  1.00  0.00     0.014 A 
HETATM   33  C   UNL     1      29.673  43.400  53.102  1.00  0.00     0.008 A 
HETATM   34  C   UNL     1      28.548  43.598  53.914  1.00  0.00    -0.058 A 
HETATM   35  C   UNL     1      27.619  42.560  54.038  1.00  0.00     0.008 A 
HETATM   36  C   UNL     1      27.787  41.368  53.328  1.00  0.00     0.014 A 
BRANCH  34  37
HETATM   37  C   UNL     1      28.358  44.907  54.645  1.00  0.00     0.042 C 
BRANCH  37  38
HETATM   38  C   UNL     1      27.315  45.882  54.056  1.00  0.00    -0.019 C 
HETATM   39  C   UNL     1      27.489  47.318  54.552  1.00  0.00     0.010 C 
HETATM   40  C   UNL     1      25.873  45.419  54.271  1.00  0.00     0.010 C 
ENDBRANCH  37  38
ENDBRANCH  34  37
ENDBRANCH   1  31
TORSDOF 7
ENDMDL
MODEL 6
REMARK VINA RESULT:      -7.2     10.257     12.913
REMARK  7 active torsions:
REMARK  status: ('A' for Active; 'I' for Inactive)
REMARK    1  A    between atoms: C_2  and  C_3 
REMARK    2  A    between atoms: C_3  and  C_4 
REMARK    3  A    between atoms: C_7  and  C_8 
REMARK    4  A    between atoms: C_14  and  C_15 
REMARK    5  A    between atoms: C_18  and  O_19 
REMARK    6  A    between atoms: O_19  and  C_20 
REMARK       I    between atoms: C_20  and  N_21 
REMARK    7  A    between atoms: C_33  and  N_34 
ROOT
HETATM    1  C   UNL     1      25.936  48.980  38.645  1.00  0.00     0.099 A 
HETATM    2  N   UNL     1      25.279  49.080  37.473  1.00  0.00    -0.172 NA
HETATM    3  N   UNL     1      24.679  47.885  37.311  1.00  0.00    -0.256 N 
HETATM    4  H   UNL     1      24.115  47.729  36.483  1.00  0.00     0.191 HD
HETATM    5  C   UNL     1      24.945  47.021  38.321  1.00  0.00     0.175 A 
HETATM    6  C   UNL     1      25.749  47.687  39.211  1.00  0.00     0.040 A 
HETATM    7  C   UNL     1      26.242  46.979  40.429  1.00  0.00     0.105 A 
HETATM    8  C   UNL     1      25.641  45.581  40.509  1.00  0.00     0.067 A 
HETATM    9  C   UNL     1      25.854  44.841  41.821  1.00  0.00     0.020 C 
HETATM   10  N   UNL     1      26.030  44.228  42.907  1.00  0.00    -0.096 N 
HETATM   11  C   UNL     1      24.837  45.050  39.549  1.00  0.00     0.139 A 
HETATM   12  O   UNL     1      24.504  45.769  38.385  1.00  0.00    -0.279 OA
ENDROOT
BRANCH   7  13
HETATM   13  C   UNL     1      27.762  46.985  40.342  1.00  0.00    -0.044 A 
HETATM   14  C   UNL     1      28.496  47.777  41.243  1.00  0.00     0.011 A 
HETATM   15  C   UNL     1      29.879  47.910  41.110  1.00  0.00     0.038 A 
HETATM   16  C   UNL     1      30.543  47.240  40.086  1.00  0.00     0.081 A 
HETATM   17  C   UNL     1      29.849  46.406  39.216  1.00  0.00     0.038 A 
HETATM   18  C   UNL     1      28.467  46.262  39.360  1.00  0.00     0.011 A 
BRANCH  16  19
HETATM   19  O   UNL     1      31.898  47.591  39.908  1.00  0.00    -0.261 OA
BRANCH  19  20
HETATM   20  C   UNL     1      32.732  47.998  40.946  1.00  0.00     0.368 C 
HETATM   21  N   UNL     1      32.970  49.361  40.917  1.00  0.00    -0.324 N 
HETATM   22  C   UNL     1      33.720  49.995  41.996  1.00  0.00     0.154 C 
HETATM   23  C   UNL     1      32.302  50.285  39.999  1.00  0.00     0.154 C 
HETATM   24  C   UNL     1      34.617  51.112  41.457  1.00  0.00     0.187 C 
HETATM   25  O   UNL     1      33.863  52.049  40.670  1.00  0.00    -0.388 OA
HETATM   26  C   UNL     1      33.260  51.391  39.546  1.00  0.00     0.187 C 
HETATM   27  O   UNL     1      33.214  47.244  41.785  1.00  0.00    -0.238 OA
ENDBRANCH  19  20
ENDBRANCH  16  19
ENDBRANCH   7  13
BRANCH  11  28
HETATM   28  N   UNL     1      24.251  43.807  39.596  1.00  0.00    -0.282 NA
HETATM   29  H   UNL     1      24.689  43.141  40.227  1.00  0.00     0.126 HD
HETATM   30  H   UNL     1      24.093  43.424  38.667  1.00  0.00     0.126 HD
ENDBRANCH  11  28
BRANCH   1  31
HETATM   31  C   UNL     1      26.759  50.082  39.145  1.00  0.00    -0.005 A 
HETATM   32  C   UNL     1      27.628  50.781  38.303  1.00  0.00     0.014 A 
HETATM   33  C   UNL     1      28.341  51.887  38.779  1.00  0.00     0.008 A 
HETATM   34  C   UNL     1      28.212  52.304  40.110  1.00  0.00    -0.058 A 
HETATM   35  C   UNL     1      27.381  51.573  40.965  1.00  0.00     0.008 A 
HETATM   36  C   UNL     1      26.658  50.477  40.485  1.00  0.00     0.014 A 
BRANCH  34  37
HETATM   37  C   UNL     1      28.970  53.514  40.606  1.00  0.00     0.042 C 
BRANCH  37  38
HETATM   38  C   UNL     1      30.469  53.309  40.918  1.00  0.00    -0.019 C 
HETATM   39  C   UNL     1      30.718  52.738  42.315  1.00  0.00     0.010 C 
HETATM   40  C   UNL     1      31.303  54.574  40.707  1.00  0.00     0.010 C 
ENDBRANCH  37  38
ENDBRANCH  34  37
ENDBRANCH   1  31
TORSDOF 7
ENDMDL
MODEL 7
REMARK VINA RESULT:      -7.0      5.549      8.626
REMARK  7 active torsions:
REMARK  status: ('A' for Active; 'I' for Inactive)
REMARK    1  A    between atoms: C_2  and  C_3 
REMARK    2  A    between atoms: C_3  and  C_4 
REMARK    3  A    between atoms: C_7  and  C_8 
REMARK    4  A    between atoms: C_14  and  C_15 
REMARK    5  A    between atoms: C_18  and  O_19 
REMARK    6  A    between atoms: O_19  and  C_20 
REMARK       I    between atoms: C_20  and  N_21 
REMARK    7  A    between atoms: C_33  and  N_34 
ROOT
HETATM    1  C   UNL     1      18.435  50.971  47.226  1.00  0.00     0.099 A 
HETATM    2  N   UNL     1      17.620  51.884  47.790  1.00  0.00    -0.172 NA
HETATM    3  N   UNL     1      18.217  52.210  48.952  1.00  0.00    -0.256 N 
HETATM    4  H   UNL     1      17.775  52.897  49.553  1.00  0.00     0.191 HD
HETATM    5  C   UNL     1      19.369  51.528  49.161  1.00  0.00     0.175 A 
HETATM    6  C   UNL     1      19.555  50.719  48.069  1.00  0.00     0.040 A 
HETATM    7  C   UNL     1      20.738  49.810  48.019  1.00  0.00     0.105 A 
HETATM    8  C   UNL     1      21.631  50.037  49.234  1.00  0.00     0.067 A 
HETATM    9  C   UNL     1      22.994  49.364  49.189  1.00  0.00     0.020 C 
HETATM   10  N   UNL     1      24.124  48.807  49.152  1.00  0.00    -0.096 N 
HETATM   11  C   UNL     1      21.325  50.892  50.245  1.00  0.00     0.139 A 
HETATM   12  O   UNL     1      20.132  51.640  50.243  1.00  0.00    -0.279 OA
ENDROOT
BRANCH   7  13
HETATM   13  C   UNL     1      20.187  48.394  47.922  1.00  0.00    -0.044 A 
HETATM   14  C   UNL     1      20.493  47.617  46.791  1.00  0.00     0.011 A 
HETATM   15  C   UNL     1      19.902  46.367  46.605  1.00  0.00     0.038 A 
HETATM   16  C   UNL     1      19.011  45.875  47.556  1.00  0.00     0.081 A 
HETATM   17  C   UNL     1      18.735  46.599  48.711  1.00  0.00     0.038 A 
HETATM   18  C   UNL     1      19.339  47.844  48.902  1.00  0.00     0.011 A 
BRANCH  16  19
HETATM   19  O   UNL     1      18.314  44.705  47.190  1.00  0.00    -0.261 OA
BRANCH  19  20
HETATM   20  C   UNL     1      18.774  43.800  46.235  1.00  0.00     0.368 C 
HETATM   21  N   UNL     1      18.036  43.861  45.066  1.00  0.00    -0.324 N 
HETATM   22  C   UNL     1      18.443  43.077  43.904  1.00  0.00     0.154 C 
HETATM   23  C   UNL     1      16.997  44.859  44.808  1.00  0.00     0.154 C 
HETATM   24  C   UNL     1      17.224  42.543  43.149  1.00  0.00     0.187 C 
HETATM   25  O   UNL     1      16.312  43.604  42.819  1.00  0.00    -0.388 OA
HETATM   26  C   UNL     1      15.839  44.249  44.011  1.00  0.00     0.187 C 
HETATM   27  O   UNL     1      19.712  43.030  46.405  1.00  0.00    -0.238 OA
ENDBRANCH  19  20
ENDBRANCH  16  19
ENDBRANCH   7  13
BRANCH  11  28
HETATM   28  N   UNL     1      22.115  51.147  51.341  1.00  0.00    -0.282 NA
HETATM   29  H   UNL     1      23.060  50.775  51.295  1.00  0.00     0.126 HD
HETATM   30  H   UNL     1      21.644  50.917  52.213  1.00  0.00     0.126 HD
ENDBRANCH  11  28
BRANCH   1  31
HETATM   31  C   UNL     1      18.092  50.335  45.954  1.00  0.00    -0.005 A 
HETATM   32  C   UNL     1      18.634  50.785  44.746  1.00  0.00     0.014 A 
HETATM   33  C   UNL     1      18.362  50.109  43.551  1.00  0.00     0.008 A 
HETATM   34  C   UNL     1      17.527  48.984  43.539  1.00  0.00    -0.058 A 
HETATM   35  C   UNL     1      16.944  48.567  44.739  1.00  0.00     0.008 A 
HETATM   36  C   UNL     1      17.228  49.232  45.936  1.00  0.00     0.014 A 
BRANCH  34  37
HETATM   37  C   UNL     1      17.259  48.249  42.245  1.00  0.00     0.042 C 
BRANCH  37  38
HETATM   38  C   UNL     1      18.397  47.347  41.716  1.00  0.00    -0.019 C 
HETATM   39  C   UNL     1      17.888  46.163  40.892  1.00  0.00     0.010 C 
HETATM   40  C   UNL     1      19.337  46.860  42.819  1.00  0.00     0.010 C 
ENDBRANCH  37  38
ENDBRANCH  34  37
ENDBRANCH   1  31
TORSDOF 7
ENDMDL
MODEL 8
REMARK VINA RESULT:      -7.0      2.949      7.499
REMARK  7 active torsions:
REMARK  status: ('A' for Active; 'I' for Inactive)
REMARK    1  A    between atoms: C_2  and  C_3 
REMARK    2  A    between atoms: C_3  and  C_4 
REMARK    3  A    between atoms: C_7  and  C_8 
REMARK    4  A    between atoms: C_14  and  C_15 
REMARK    5  A    between atoms: C_18  and  O_19 
REMARK    6  A    between atoms: O_19  and  C_20 
REMARK       I    between atoms: C_20  and  N_21 
REMARK    7  A    between atoms: C_33  and  N_34 
ROOT
HETATM    1  C   UNL     1      24.483  47.583  49.558  1.00  0.00     0.099 A 
HETATM    2  N   UNL     1      25.237  48.641  49.202  1.00  0.00    -0.172 NA
HETATM    3  N   UNL     1      24.407  49.436  48.499  1.00  0.00    -0.256 N 
HETATM    4  H   UNL     1      24.765  50.309  48.128  1.00  0.00     0.191 HD
HETATM    5  C   UNL     1      23.162  48.917  48.376  1.00  0.00     0.175 A 
HETATM    6  C   UNL     1      23.160  47.722  49.050  1.00  0.00     0.040 A 
HETATM    7  C   UNL     1      21.922  46.889  49.068  1.00  0.00     0.105 A 
HETATM    8  C   UNL     1      20.783  47.618  48.365  1.00  0.00     0.067 A 
HETATM    9  C   UNL     1      19.402  47.001  48.527  1.00  0.00     0.020 C 
HETATM   10  N   UNL     1      18.258  46.491  48.661  1.00  0.00    -0.096 N 
HETATM   11  C   UNL     1      20.926  48.820  47.745  1.00  0.00     0.139 A 
HETATM   12  O   UNL     1      22.166  49.485  47.703  1.00  0.00    -0.279 OA
ENDROOT
BRANCH   7  13
HETATM   13  C   UNL     1      22.290  45.562  48.420  1.00  0.00    -0.044 A 
HETATM   14  C   UNL     1      22.375  44.409  49.221  1.00  0.00     0.011 A 
HETATM   15  C   UNL     1      22.835  43.204  48.688  1.00  0.00     0.038 A 
HETATM   16  C   UNL     1      23.200  43.136  47.346  1.00  0.00     0.081 A 
HETATM   17  C   UNL     1      23.071  44.247  46.518  1.00  0.00     0.038 A 
HETATM   18  C   UNL     1      22.596  45.447  47.050  1.00  0.00     0.011 A 
BRANCH  16  19
HETATM   19  O   UNL     1      23.838  41.943  46.948  1.00  0.00    -0.261 OA
BRANCH  19  20
HETATM   20  C   UNL     1      24.295  41.708  45.652  1.00  0.00     0.368 C 
HETATM   21  N   UNL     1      25.558  41.142  45.642  1.00  0.00    -0.324 N 
HETATM   22  C   UNL     1      26.153  40.709  44.382  1.00  0.00     0.154 C 
HETATM   23  C   UNL     1      26.264  40.703  46.846  1.00  0.00     0.154 C 
HETATM   24  C   UNL     1      27.660  40.978  44.367  1.00  0.00     0.187 C 
HETATM   25  O   UNL     1      28.301  40.405  45.519  1.00  0.00    -0.388 OA
HETATM   26  C   UNL     1      27.767  40.971  46.726  1.00  0.00     0.187 C 
HETATM   27  O   UNL     1      23.664  41.978  44.636  1.00  0.00    -0.238 OA
ENDBRANCH  19  20
ENDBRANCH  16  19
ENDBRANCH   7  13
BRANCH  11  28
HETATM   28  N   UNL     1      19.919  49.523  47.126  1.00  0.00    -0.282 NA
HETATM   29  H   UNL     1      19.170  49.842  47.736  1.00  0.00     0.126 HD
HETATM   30  H   UNL     1      19.576  49.046  46.296  1.00  0.00     0.126 HD
ENDBRANCH  11  28
BRANCH   1  31
HETATM   31  C   UNL     1      25.058  46.464  50.305  1.00  0.00    -0.005 A 
HETATM   32  C   UNL     1      25.853  45.502  49.675  1.00  0.00     0.014 A 
HETATM   33  C   UNL     1      26.466  44.488  50.421  1.00  0.00     0.008 A 
HETATM   34  C   UNL     1      26.280  44.407  51.807  1.00  0.00    -0.058 A 
HETATM   35  C   UNL     1      25.443  45.340  52.428  1.00  0.00     0.008 A 
HETATM   36  C   UNL     1      24.843  46.361  51.685  1.00  0.00     0.014 A 
BRANCH  34  37
HETATM   37  C   UNL     1      26.965  43.322  52.605  1.00  0.00     0.042 C 
BRANCH  37  38
HETATM   38  C   UNL     1      28.441  43.573  52.986  1.00  0.00    -0.019 C 
HETATM   39  C   UNL     1      29.330  42.346  52.783  1.00  0.00     0.010 C 
HETATM   40  C   UNL     1      28.609  44.119  54.405  1.00  0.00     0.010 C 
ENDBRANCH  37  38
ENDBRANCH  34  37
ENDBRANCH   1  31
TORSDOF 7
ENDMDL
MODEL 9
REMARK VINA RESULT:      -6.9      1.964      3.061
REMARK  7 active torsions:
REMARK  status: ('A' for Active; 'I' for Inactive)
REMARK    1  A    between atoms: C_2  and  C_3 
REMARK    2  A    between atoms: C_3  and  C_4 
REMARK    3  A    between atoms: C_7  and  C_8 
REMARK    4  A    between atoms: C_14  and  C_15 
REMARK    5  A    between atoms: C_18  and  O_19 
REMARK    6  A    between atoms: O_19  and  C_20 
REMARK       I    between atoms: C_20  and  N_21 
REMARK    7  A    between atoms: C_33  and  N_34 
ROOT
HETATM    1  C   UNL     1      26.534  42.573  50.786  1.00  0.00     0.099 A 
HETATM    2  N   UNL     1      26.783  42.129  52.034  1.00  0.00    -0.172 NA
HETATM    3  N   UNL     1      26.905  40.794  51.907  1.00  0.00    -0.256 N 
HETATM    4  H   UNL     1      27.102  40.241  52.734  1.00  0.00     0.191 HD
HETATM    5  C   UNL     1      26.723  40.367  50.635  1.00  0.00     0.175 A 
HETATM    6  C   UNL     1      26.486  41.482  49.871  1.00  0.00     0.040 A 
HETATM    7  C   UNL     1      26.213  41.331  48.412  1.00  0.00     0.105 A 
HETATM    8  C   UNL     1      26.353  39.871  47.996  1.00  0.00     0.067 A 
HETATM    9  C   UNL     1      26.351  39.606  46.498  1.00  0.00     0.020 C 
HETATM   10  N   UNL     1      26.350  39.386  45.257  1.00  0.00    -0.096 N 
HETATM   11  C   UNL     1      26.608  38.860  48.868  1.00  0.00     0.139 A 
HETATM   12  O   UNL     1      26.758  39.096  50.247  1.00  0.00    -0.279 OA
ENDROOT
BRANCH   7  13
HETATM   13  C   UNL     1      24.823  41.904  48.175  1.00  0.00    -0.044 A 
HETATM   14  C   UNL     1      24.697  43.186  47.612  1.00  0.00     0.011 A 
HETATM   15  C   UNL     1      23.447  43.796  47.501  1.00  0.00     0.038 A 
HETATM   16  C   UNL     1      22.309  43.123  47.936  1.00  0.00     0.081 A 
HETATM   17  C   UNL     1      22.399  41.831  48.445  1.00  0.00     0.038 A 
HETATM   18  C   UNL     1      23.649  41.217  48.541  1.00  0.00     0.011 A 
BRANCH  16  19
HETATM   19  O   UNL     1      21.125  43.889  47.971  1.00  0.00    -0.261 OA
BRANCH  19  20
HETATM   20  C   UNL     1      20.608  44.561  46.866  1.00  0.00     0.368 C 
HETATM   21  N   UNL     1      20.479  45.919  47.097  1.00  0.00    -0.324 N 
HETATM   22  C   UNL     1      20.072  46.809  46.015  1.00  0.00     0.154 C 
HETATM   23  C   UNL     1      20.969  46.590  48.302  1.00  0.00     0.154 C 
HETATM   24  C   UNL     1      19.159  47.922  46.536  1.00  0.00     0.187 C 
HETATM   25  O   UNL     1      19.767  48.618  47.638  1.00  0.00    -0.388 OA
HETATM   26  C   UNL     1      20.018  47.715  48.725  1.00  0.00     0.187 C 
HETATM   27  O   UNL     1      20.291  44.020  45.812  1.00  0.00    -0.238 OA
ENDBRANCH  19  20
ENDBRANCH  16  19
ENDBRANCH   7  13
BRANCH  11  28
HETATM   28  N   UNL     1      26.770  37.537  48.530  1.00  0.00    -0.282 NA
HETATM   29  H   UNL     1      26.710  37.329  47.536  1.00  0.00     0.126 HD
HETATM   30  H   UNL     1      26.188  36.924  49.096  1.00  0.00     0.126 HD
ENDBRANCH  11  28
BRANCH   1  31
HETATM   31  C   UNL     1      26.290  43.992  50.524  1.00  0.00    -0.005 A 
HETATM   32  C   UNL     1      25.160  44.641  51.030  1.00  0.00     0.014 A 
HETATM   33  C   UNL     1      24.988  46.017  50.842  1.00  0.00     0.008 A 
HETATM   34  C   UNL     1      25.934  46.766  50.130  1.00  0.00    -0.058 A 
HETATM   35  C   UNL     1      27.038  46.106  49.580  1.00  0.00     0.008 A 
HETATM   36  C   UNL     1      27.216  44.734  49.780  1.00  0.00     0.014 A 
BRANCH  34  37
HETATM   37  C   UNL     1      25.749  48.256  49.954  1.00  0.00     0.042 C 
BRANCH  37  38
HETATM   38  C   UNL     1      26.509  48.911  48.778  1.00  0.00    -0.019 C 
HETATM   39  C   UNL     1      27.868  49.482  49.187  1.00  0.00     0.010 C 
HETATM   40  C   UNL     1      25.685  49.975  48.051  1.00  0.00     0.010 C 
ENDBRANCH  37  38
ENDBRANCH  34  37
ENDBRANCH   1  31
TORSDOF 7
ENDMDL
MODEL 10
REMARK VINA RESULT:      -6.8      3.704      5.685
REMARK  7 active torsions:
REMARK  status: ('A' for Active; 'I' for Inactive)
REMARK    1  A    between atoms: C_2  and  C_3 
REMARK    2  A    between atoms: C_3  and  C_4 
REMARK    3  A    between atoms: C_7  and  C_8 
REMARK    4  A    between atoms: C_14  and  C_15 
REMARK    5  A    between atoms: C_18  and  O_19 
REMARK    6  A    between atoms: O_19  and  C_20 
REMARK       I    between atoms: C_20  and  N_21 
REMARK    7  A    between atoms: C_33  and  N_34 
ROOT
HETATM    1  C   UNL     1      23.040  45.868  48.566  1.00  0.00     0.099 A 
HETATM    2  N   UNL     1      23.612  45.301  49.647  1.00  0.00    -0.172 NA
HETATM    3  N   UNL     1      23.955  44.063  49.246  1.00  0.00    -0.256 N 
HETATM    4  H   UNL     1      24.414  43.445  49.907  1.00  0.00     0.191 HD
HETATM    5  C   UNL     1      23.607  43.810  47.961  1.00  0.00     0.175 A 
HETATM    6  C   UNL     1      23.018  44.950  47.478  1.00  0.00     0.040 A 
HETATM    7  C   UNL     1      22.493  44.973  46.080  1.00  0.00     0.105 A 
HETATM    8  C   UNL     1      22.819  43.663  45.372  1.00  0.00     0.067 A 
HETATM    9  C   UNL     1      22.569  43.641  43.872  1.00  0.00     0.020 C 
HETATM   10  N   UNL     1      22.363  43.622  42.629  1.00  0.00    -0.096 N 
HETATM   11  C   UNL     1      23.429  42.609  45.978  1.00  0.00     0.139 A 
HETATM   12  O   UNL     1      23.803  42.654  47.334  1.00  0.00    -0.279 OA
ENDROOT
BRANCH   7  13
HETATM   13  C   UNL     1      21.001  45.254  46.188  1.00  0.00    -0.044 A 
HETATM   14  C   UNL     1      20.493  46.459  45.670  1.00  0.00     0.011 A 
HETATM   15  C   UNL     1      19.157  46.810  45.865  1.00  0.00     0.038 A 
HETATM   16  C   UNL     1      18.312  45.953  46.566  1.00  0.00     0.081 A 
HETATM   17  C   UNL     1      18.775  44.730  47.039  1.00  0.00     0.038 A 
HETATM   18  C   UNL     1      20.109  44.373  46.830  1.00  0.00     0.011 A 
BRANCH  16  19
HETATM   19  O   UNL     1      17.042  46.477  46.886  1.00  0.00    -0.261 OA
BRANCH  19  20
HETATM   20  C   UNL     1      16.849  47.565  47.736  1.00  0.00     0.368 C 
HETATM   21  N   UNL     1      16.034  48.528  47.168  1.00  0.00    -0.324 N 
HETATM   22  C   UNL     1      15.615  49.685  47.952  1.00  0.00     0.154 C 
HETATM   23  C   UNL     1      15.335  48.356  45.893  1.00  0.00     0.154 C 
HETATM   24  C   UNL     1      15.560  50.945  47.084  1.00  0.00     0.187 C 
HETATM   25  O   UNL     1      14.750  50.734  45.916  1.00  0.00    -0.388 OA
HETATM   26  C   UNL     1      15.290  49.674  45.113  1.00  0.00     0.187 C 
HETATM   27  O   UNL     1      17.348  47.670  48.851  1.00  0.00    -0.238 OA
ENDBRANCH  19  20
ENDBRANCH  16  19
ENDBRANCH   7  13
BRANCH  11  28
HETATM   28  N   UNL     1      23.766  41.424  45.369  1.00  0.00    -0.282 NA
HETATM   29  H   UNL     1      23.204  41.173  44.559  1.00  0.00     0.126 HD
HETATM   30  H   UNL     1      23.854  40.662  46.038  1.00  0.00     0.126 HD
ENDBRANCH  11  28
BRANCH   1  31
HETATM   31  C   UNL     1      22.487  47.222  48.627  1.00  0.00    -0.005 A 
HETATM   32  C   UNL     1      23.242  48.334  48.245  1.00  0.00     0.014 A 
HETATM   33  C   UNL     1      22.667  49.610  48.229  1.00  0.00     0.008 A 
HETATM   34  C   UNL     1      21.332  49.800  48.611  1.00  0.00    -0.058 A 
HETATM   35  C   UNL     1      20.594  48.693  49.041  1.00  0.00     0.008 A 
HETATM   36  C   UNL     1      21.164  47.416  49.044  1.00  0.00     0.014 A 
BRANCH  34  37
HETATM   37  C   UNL     1      20.716  51.179  48.566  1.00  0.00     0.042 C 
BRANCH  37  38
HETATM   38  C   UNL     1      19.256  51.266  48.066  1.00  0.00    -0.019 C 
HETATM   39  C   UNL     1      19.083  50.768  46.631  1.00  0.00     0.010 C 
HETATM   40  C   UNL     1      18.654  52.664  48.217  1.00  0.00     0.010 C 
ENDBRANCH  37  38
ENDBRANCH  34  37
ENDBRANCH   1  31
TORSDOF 7
ENDMDL
