MODEL 1
REMARK VINA RESULT:      -8.6      0.000      0.000
REMARK  6 active torsions:
REMARK  status: ('A' for Active; 'I' for Inactive)
REMARK    1  A    between atoms: C_2  and  O_3 
REMARK    2  A    between atoms: C_2  and  C_4 
REMARK    3  A    between atoms: C_6  and  N_7 
REMARK       I    between atoms: N_7  and  C_8 
REMARK    4  A    between atoms: C_8  and  C_9 
REMARK    5  A    between atoms: C_12  and  C_13 
REMARK    6  A    between atoms: C_18  and  C_19 
ROOT
HETATM    1  C   UNL     1      23.952  46.091  49.348  1.00  0.00     0.096 A 
HETATM    2  C   UNL     1      25.060  45.418  49.828  1.00  0.00     0.138 A 
HETATM    3  N   UNL     1      24.950  44.132  49.357  1.00  0.00    -0.240 N 
HETATM    4  C   UNL     1      25.932  43.084  49.560  1.00  0.00     0.221 C 
HETATM    5  C   UNL     1      27.242  43.672  50.115  1.00  0.00     0.067 C 
HETATM    6  C   UNL     1      27.045  44.802  51.142  1.00  0.00     0.125 C 
HETATM    7  N   UNL     1      26.117  45.805  50.595  1.00  0.00    -0.365 N 
HETATM    8  N   UNL     1      23.850  43.917  48.621  1.00  0.00    -0.181 NA
HETATM    9  C   UNL     1      23.222  45.096  48.654  1.00  0.00     0.160 A 
HETATM   10  H   UNL     1      25.988  46.591  51.237  1.00  0.00     0.162 HD
ENDROOT
BRANCH   1  11
HETATM   11  C   UNL     1      23.590  47.493  49.477  1.00  0.00     0.261 C 
HETATM   12  N   UNL     1      22.429  47.814  48.797  1.00  0.00    -0.323 N 
HETATM   13  H   UNL     1      21.949  47.029  48.369  1.00  0.00     0.169 HD
HETATM   14  O   UNL     1      24.251  48.246  50.179  1.00  0.00    -0.267 OA
BRANCH  12  15
HETATM   15  C   UNL     1      21.760  49.053  48.767  1.00  0.00     0.035 A 
HETATM   16  C   UNL     1      20.463  49.251  49.248  1.00  0.00     0.039 A 
HETATM   17  C   UNL     1      19.842  50.511  49.161  1.00  0.00    -0.028 A 
HETATM   18  C   UNL     1      20.543  51.573  48.571  1.00  0.00     0.010 A 
HETATM   19  C   UNL     1      21.842  51.388  48.103  1.00  0.00     0.003 A 
HETATM   20  C   UNL     1      22.448  50.135  48.207  1.00  0.00     0.029 A 
BRANCH  17  21
HETATM   21  C   UNL     1      18.426  50.689  49.666  1.00  0.00     0.147 C 
HETATM   22  C   UNL     1      18.072  52.156  49.867  1.00  0.00     0.044 C 
BRANCH  21  23
HETATM   23  O   UNL     1      18.246  49.999  50.901  1.00  0.00    -0.391 OA
HETATM   24  H   UNL     1      18.807  49.205  50.861  1.00  0.00     0.210 HD
ENDBRANCH  21  23
ENDBRANCH  17  21
ENDBRANCH  12  15
ENDBRANCH   1  11
BRANCH   4  25
HETATM   25  C   UNL     1      25.355  41.962  50.396  1.00  0.00     0.409 C 
HETATM   26  F   UNL     1      26.259  41.346  51.179  1.00  0.00    -0.169 F 
HETATM   27  F   UNL     1      24.347  42.385  51.193  1.00  0.00    -0.169 F 
HETATM   28  F   UNL     1      24.816  41.011  49.587  1.00  0.00    -0.169 F 
ENDBRANCH   4  25
BRANCH   6  29
HETATM   29  C   UNL     1      26.711  44.318  52.534  1.00  0.00     0.005 A 
HETATM   30  S   UNL     1      27.855  43.375  53.408  1.00  0.00    -0.104 SA
HETATM   31  C   UNL     1      26.822  43.247  54.762  1.00  0.00     0.050 A 
HETATM   32  C   UNL     1      25.641  43.928  54.578  1.00  0.00     0.008 A 
HETATM   33  C   UNL     1      25.583  44.557  53.300  1.00  0.00     0.017 A 
ENDBRANCH   6  29
TORSDOF 6
ENDMDL
MODEL 2
REMARK VINA RESULT:      -8.4      4.631      8.885
REMARK  6 active torsions:
REMARK  status: ('A' for Active; 'I' for Inactive)
REMARK    1  A    between atoms: C_2  and  O_3 
REMARK    2  A    between atoms: C_2  and  C_4 
REMARK    3  A    between atoms: C_6  and  N_7 
REMARK       I    between atoms: N_7  and  C_8 
REMARK    4  A    between atoms: C_8  and  C_9 
REMARK    5  A    between atoms: C_12  and  C_13 
REMARK    6  A    between atoms: C_18  and  C_19 
ROOT
HETATM    1  C   UNL     1      21.865  46.999  48.376  1.00  0.00     0.096 A 
HETATM    2  C   UNL     1      20.627  47.511  48.719  1.00  0.00     0.138 A 
HETATM    3  N   UNL     1      19.791  47.197  47.674  1.00  0.00    -0.240 N 
HETATM    4  C   UNL     1      18.370  47.481  47.631  1.00  0.00     0.221 C 
HETATM    5  C   UNL     1      17.863  47.914  49.019  1.00  0.00     0.067 C 
HETATM    6  C   UNL     1      18.841  48.810  49.799  1.00  0.00     0.125 C 
HETATM    7  N   UNL     1      20.175  48.186  49.811  1.00  0.00    -0.365 N 
HETATM    8  N   UNL     1      20.395  46.534  46.677  1.00  0.00    -0.181 NA
HETATM    9  C   UNL     1      21.665  46.454  47.086  1.00  0.00     0.160 A 
HETATM   10  H   UNL     1      20.846  48.738  50.352  1.00  0.00     0.162 HD
ENDROOT
BRANCH   1  11
HETATM   11  C   UNL     1      23.103  46.979  49.138  1.00  0.00     0.261 C 
HETATM   12  N   UNL     1      23.445  45.712  49.576  1.00  0.00    -0.323 N 
HETATM   13  H   UNL     1      22.840  44.966  49.251  1.00  0.00     0.169 HD
HETATM   14  O   UNL     1      23.761  48.000  49.287  1.00  0.00    -0.267 OA
BRANCH  12  15
HETATM   15  C   UNL     1      24.605  45.323  50.273  1.00  0.00     0.035 A 
HETATM   16  C   UNL     1      24.650  45.103  51.652  1.00  0.00     0.039 A 
HETATM   17  C   UNL     1      25.850  44.741  52.290  1.00  0.00    -0.028 A 
HETATM   18  C   UNL     1      27.016  44.614  51.521  1.00  0.00     0.010 A 
HETATM   19  C   UNL     1      26.977  44.816  50.143  1.00  0.00     0.003 A 
HETATM   20  C   UNL     1      25.775  45.163  49.523  1.00  0.00     0.029 A 
BRANCH  17  21
HETATM   21  C   UNL     1      25.874  44.536  53.790  1.00  0.00     0.147 C 
HETATM   22  C   UNL     1      27.059  43.690  54.232  1.00  0.00     0.044 C 
BRANCH  21  23
HETATM   23  O   UNL     1      24.671  43.906  54.226  1.00  0.00    -0.391 OA
HETATM   24  H   UNL     1      24.916  43.313  54.957  1.00  0.00     0.210 HD
ENDBRANCH  21  23
ENDBRANCH  17  21
ENDBRANCH  12  15
ENDBRANCH   1  11
BRANCH   4  25
HETATM   25  C   UNL     1      18.052  48.463  46.523  1.00  0.00     0.409 C 
HETATM   26  F   UNL     1      17.015  49.275  46.797  1.00  0.00    -0.169 F 
HETATM   27  F   UNL     1      19.112  49.246  46.215  1.00  0.00    -0.169 F 
HETATM   28  F   UNL     1      17.741  47.791  45.383  1.00  0.00    -0.169 F 
ENDBRANCH   4  25
BRANCH   6  29
HETATM   29  C   UNL     1      18.821  50.261  49.377  1.00  0.00     0.005 A 
HETATM   30  S   UNL     1      17.411  51.209  49.648  1.00  0.00    -0.104 SA
HETATM   31  C   UNL     1      18.126  52.600  48.961  1.00  0.00     0.050 A 
HETATM   32  C   UNL     1      19.420  52.368  48.557  1.00  0.00     0.008 A 
HETATM   33  C   UNL     1      19.826  51.025  48.809  1.00  0.00     0.017 A 
ENDBRANCH   6  29
TORSDOF 6
ENDMDL
MODEL 3
REMARK VINA RESULT:      -8.2     13.188     15.353
REMARK  6 active torsions:
REMARK  status: ('A' for Active; 'I' for Inactive)
REMARK    1  A    between atoms: C_2  and  O_3 
REMARK    2  A    between atoms: C_2  and  C_4 
REMARK    3  A    between atoms: C_6  and  N_7 
REMARK       I    between atoms: N_7  and  C_8 
REMARK    4  A    between atoms: C_8  and  C_9 
REMARK    5  A    between atoms: C_12  and  C_13 
REMARK    6  A    between atoms: C_18  and  C_19 
ROOT
HETATM    1  C   UNL     1      33.399  50.235  42.180  1.00  0.00     0.096 A 
HETATM    2  C   UNL     1      32.051  50.028  41.948  1.00  0.00     0.138 A 
HETATM    3  N   UNL     1      31.968  48.838  41.268  1.00  0.00    -0.240 N 
HETATM    4  C   UNL     1      30.732  48.189  40.874  1.00  0.00     0.221 C 
HETATM    5  C   UNL     1      29.528  48.855  41.566  1.00  0.00     0.067 C 
HETATM    6  C   UNL     1      29.633  50.386  41.686  1.00  0.00     0.125 C 
HETATM    7  N   UNL     1      30.938  50.743  42.267  1.00  0.00    -0.365 N 
HETATM    8  N   UNL     1      33.156  48.264  41.031  1.00  0.00    -0.181 NA
HETATM    9  C   UNL     1      34.027  49.137  41.546  1.00  0.00     0.160 A 
HETATM   10  H   UNL     1      31.030  51.754  42.396  1.00  0.00     0.162 HD
ENDROOT
BRANCH   1  11
HETATM   11  C   UNL     1      34.061  51.299  42.916  1.00  0.00     0.261 C 
HETATM   12  N   UNL     1      35.435  51.289  42.760  1.00  0.00    -0.323 N 
HETATM   13  H   UNL     1      35.788  50.600  42.104  1.00  0.00     0.169 HD
HETATM   14  O   UNL     1      33.408  52.125  43.541  1.00  0.00    -0.267 OA
BRANCH  12  15
HETATM   15  C   UNL     1      36.370  52.210  43.271  1.00  0.00     0.035 A 
HETATM   16  C   UNL     1      36.788  52.239  44.604  1.00  0.00     0.039 A 
HETATM   17  C   UNL     1      37.707  53.205  45.054  1.00  0.00    -0.028 A 
HETATM   18  C   UNL     1      38.193  54.155  44.144  1.00  0.00     0.010 A 
HETATM   19  C   UNL     1      37.793  54.123  42.809  1.00  0.00     0.003 A 
HETATM   20  C   UNL     1      36.891  53.151  42.375  1.00  0.00     0.029 A 
BRANCH  17  21
HETATM   21  C   UNL     1      38.121  53.230  46.510  1.00  0.00     0.147 C 
HETATM   22  C   UNL     1      38.503  54.629  46.972  1.00  0.00     0.044 C 
BRANCH  21  23
HETATM   23  O   UNL     1      39.227  52.355  46.728  1.00  0.00    -0.391 OA
HETATM   24  H   UNL     1      39.883  52.558  46.040  1.00  0.00     0.210 HD
ENDBRANCH  21  23
ENDBRANCH  17  21
ENDBRANCH  12  15
ENDBRANCH   1  11
BRANCH   4  25
HETATM   25  C   UNL     1      30.618  48.123  39.366  1.00  0.00     0.409 C 
HETATM   26  F   UNL     1      31.256  49.121  38.728  1.00  0.00    -0.169 F 
HETATM   27  F   UNL     1      31.090  46.956  38.868  1.00  0.00    -0.169 F 
HETATM   28  F   UNL     1      29.311  48.185  38.996  1.00  0.00    -0.169 F 
ENDBRANCH   4  25
BRANCH   6  29
HETATM   29  C   UNL     1      29.274  51.130  40.421  1.00  0.00     0.005 A 
HETATM   30  S   UNL     1      27.703  50.950  39.741  1.00  0.00    -0.104 SA
HETATM   31  C   UNL     1      28.059  52.017  38.456  1.00  0.00     0.050 A 
HETATM   32  C   UNL     1      29.333  52.529  38.547  1.00  0.00     0.008 A 
HETATM   33  C   UNL     1      30.028  52.029  39.687  1.00  0.00     0.017 A 
ENDBRANCH   6  29
TORSDOF 6
ENDMDL
MODEL 4
REMARK VINA RESULT:      -8.1      6.405      8.721
REMARK  6 active torsions:
REMARK  status: ('A' for Active; 'I' for Inactive)
REMARK    1  A    between atoms: C_2  and  O_3 
REMARK    2  A    between atoms: C_2  and  C_4 
REMARK    3  A    between atoms: C_6  and  N_7 
REMARK       I    between atoms: N_7  and  C_8 
REMARK    4  A    between atoms: C_8  and  C_9 
REMARK    5  A    between atoms: C_12  and  C_13 
REMARK    6  A    between atoms: C_18  and  C_19 
ROOT
HETATM    1  C   UNL     1      27.302  42.202  50.986  1.00  0.00     0.096 A 
HETATM    2  C   UNL     1      27.675  41.454  49.885  1.00  0.00     0.138 A 
HETATM    3  N   UNL     1      26.867  41.875  48.856  1.00  0.00    -0.240 N 
HETATM    4  C   UNL     1      26.953  41.407  47.486  1.00  0.00     0.221 C 
HETATM    5  C   UNL     1      28.247  40.601  47.270  1.00  0.00     0.067 C 
HETATM    6  C   UNL     1      28.638  39.700  48.455  1.00  0.00     0.125 C 
HETATM    7  N   UNL     1      28.618  40.490  49.698  1.00  0.00    -0.365 N 
HETATM    8  N   UNL     1      25.992  42.827  49.208  1.00  0.00    -0.181 NA
HETATM    9  C   UNL     1      26.227  42.993  50.514  1.00  0.00     0.160 A 
HETATM   10  H   UNL     1      28.907  39.932  50.505  1.00  0.00     0.162 HD
ENDROOT
BRANCH   1  11
HETATM   11  C   UNL     1      27.865  42.226  52.325  1.00  0.00     0.261 C 
HETATM   12  N   UNL     1      28.578  43.381  52.590  1.00  0.00    -0.323 N 
HETATM   13  H   UNL     1      28.551  44.081  51.856  1.00  0.00     0.169 HD
HETATM   14  O   UNL     1      27.643  41.315  53.113  1.00  0.00    -0.267 OA
BRANCH  12  15
HETATM   15  C   UNL     1      29.190  43.762  53.800  1.00  0.00     0.035 A 
HETATM   16  C   UNL     1      28.767  44.838  54.584  1.00  0.00     0.039 A 
HETATM   17  C   UNL     1      29.442  45.181  55.769  1.00  0.00    -0.028 A 
HETATM   18  C   UNL     1      30.563  44.430  56.153  1.00  0.00     0.010 A 
HETATM   19  C   UNL     1      30.982  43.345  55.386  1.00  0.00     0.003 A 
HETATM   20  C   UNL     1      30.294  43.010  54.218  1.00  0.00     0.029 A 
BRANCH  17  21
HETATM   21  C   UNL     1      28.978  46.369  56.585  1.00  0.00     0.147 C 
HETATM   22  C   UNL     1      28.768  46.010  58.049  1.00  0.00     0.044 C 
BRANCH  21  23
HETATM   23  O   UNL     1      27.757  46.888  56.059  1.00  0.00    -0.391 OA
HETATM   24  H   UNL     1      27.244  47.216  56.817  1.00  0.00     0.210 HD
ENDBRANCH  21  23
ENDBRANCH  17  21
ENDBRANCH  12  15
ENDBRANCH   1  11
BRANCH   4  25
HETATM   25  C   UNL     1      25.692  40.668  47.091  1.00  0.00     0.409 C 
HETATM   26  F   UNL     1      25.881  39.743  46.133  1.00  0.00    -0.169 F 
HETATM   27  F   UNL     1      25.111  40.050  48.145  1.00  0.00    -0.169 F 
HETATM   28  F   UNL     1      24.768  41.548  46.619  1.00  0.00    -0.169 F 
ENDBRANCH   4  25
BRANCH   6  29
HETATM   29  C   UNL     1      27.876  38.397  48.517  1.00  0.00     0.005 A 
HETATM   30  S   UNL     1      27.884  37.338  47.160  1.00  0.00    -0.104 SA
HETATM   31  C   UNL     1      26.895  36.196  47.955  1.00  0.00     0.050 A 
HETATM   32  C   UNL     1      26.582  36.586  49.237  1.00  0.00     0.008 A 
HETATM   33  C   UNL     1      27.159  37.847  49.565  1.00  0.00     0.017 A 
ENDBRANCH   6  29
TORSDOF 6
ENDMDL
MODEL 5
REMARK VINA RESULT:      -7.9      5.608      9.902
REMARK  6 active torsions:
REMARK  status: ('A' for Active; 'I' for Inactive)
REMARK    1  A    between atoms: C_2  and  O_3 
REMARK    2  A    between atoms: C_2  and  C_4 
REMARK    3  A    between atoms: C_6  and  N_7 
REMARK       I    between atoms: N_7  and  C_8 
REMARK    4  A    between atoms: C_8  and  C_9 
REMARK    5  A    between atoms: C_12  and  C_13 
REMARK    6  A    between atoms: C_18  and  C_19 
ROOT
HETATM    1  C   UNL     1      21.144  50.347  48.853  1.00  0.00     0.096 A 
HETATM    2  C   UNL     1      20.080  50.677  48.034  1.00  0.00     0.138 A 
HETATM    3  N   UNL     1      19.234  51.433  48.808  1.00  0.00    -0.240 N 
HETATM    4  C   UNL     1      18.011  52.057  48.339  1.00  0.00     0.221 C 
HETATM    5  C   UNL     1      17.934  52.006  46.802  1.00  0.00     0.067 C 
HETATM    6  C   UNL     1      18.462  50.700  46.183  1.00  0.00     0.125 C 
HETATM    7  N   UNL     1      19.795  50.401  46.732  1.00  0.00    -0.365 N 
HETATM    8  N   UNL     1      19.660  51.608  50.067  1.00  0.00    -0.181 NA
HETATM    9  C   UNL     1      20.799  50.910  50.105  1.00  0.00     0.160 A 
HETATM   10  H   UNL     1      20.195  49.555  46.316  1.00  0.00     0.162 HD
ENDROOT
BRANCH   1  11
HETATM   11  C   UNL     1      22.363  49.620  48.542  1.00  0.00     0.261 C 
HETATM   12  N   UNL     1      22.825  48.863  49.603  1.00  0.00    -0.323 N 
HETATM   13  H   UNL     1      22.223  48.854  50.420  1.00  0.00     0.169 HD
HETATM   14  O   UNL     1      22.848  49.664  47.418  1.00  0.00    -0.267 OA
BRANCH  12  15
HETATM   15  C   UNL     1      23.930  47.989  49.626  1.00  0.00     0.035 A 
HETATM   16  C   UNL     1      25.260  48.411  49.551  1.00  0.00     0.039 A 
HETATM   17  C   UNL     1      26.316  47.481  49.552  1.00  0.00    -0.028 A 
HETATM   18  C   UNL     1      26.015  46.113  49.618  1.00  0.00     0.010 A 
HETATM   19  C   UNL     1      24.692  45.685  49.709  1.00  0.00     0.003 A 
HETATM   20  C   UNL     1      23.656  46.620  49.719  1.00  0.00     0.029 A 
BRANCH  17  21
HETATM   21  C   UNL     1      27.746  47.966  49.443  1.00  0.00     0.147 C 
HETATM   22  C   UNL     1      27.823  49.430  49.033  1.00  0.00     0.044 C 
BRANCH  21  23
HETATM   23  O   UNL     1      28.466  47.183  48.493  1.00  0.00    -0.391 OA
HETATM   24  H   UNL     1      28.160  47.461  47.613  1.00  0.00     0.210 HD
ENDBRANCH  21  23
ENDBRANCH  17  21
ENDBRANCH  12  15
ENDBRANCH   1  11
BRANCH   4  25
HETATM   25  C   UNL     1      16.805  51.465  49.037  1.00  0.00     0.409 C 
HETATM   26  F   UNL     1      16.459  52.111  50.166  1.00  0.00    -0.169 F 
HETATM   27  F   UNL     1      15.715  51.432  48.237  1.00  0.00    -0.169 F 
HETATM   28  F   UNL     1      17.056  50.173  49.380  1.00  0.00    -0.169 F 
ENDBRANCH   4  25
BRANCH   6  29
HETATM   29  C   UNL     1      17.480  49.552  46.236  1.00  0.00     0.005 A 
HETATM   30  S   UNL     1      15.999  49.655  45.367  1.00  0.00    -0.104 SA
HETATM   31  C   UNL     1      15.503  48.106  45.886  1.00  0.00     0.050 A 
HETATM   32  C   UNL     1      16.449  47.500  46.681  1.00  0.00     0.008 A 
HETATM   33  C   UNL     1      17.594  48.327  46.871  1.00  0.00     0.017 A 
ENDBRANCH   6  29
TORSDOF 6
ENDMDL
MODEL 6
REMARK VINA RESULT:      -7.9      4.773      8.783
REMARK  6 active torsions:
REMARK  status: ('A' for Active; 'I' for Inactive)
REMARK    1  A    between atoms: C_2  and  O_3 
REMARK    2  A    between atoms: C_2  and  C_4 
REMARK    3  A    between atoms: C_6  and  N_7 
REMARK       I    between atoms: N_7  and  C_8 
REMARK    4  A    between atoms: C_8  and  C_9 
REMARK    5  A    between atoms: C_12  and  C_13 
REMARK    6  A    between atoms: C_18  and  C_19 
ROOT
HETATM    1  C   UNL     1      27.676  42.176  52.214  1.00  0.00     0.096 A 
HETATM    2  C   UNL     1      26.414  42.541  51.783  1.00  0.00     0.138 A 
HETATM    3  N   UNL     1      26.215  41.872  50.599  1.00  0.00    -0.240 N 
HETATM    4  C   UNL     1      24.992  41.905  49.820  1.00  0.00     0.221 C 
HETATM    5  C   UNL     1      23.852  42.546  50.632  1.00  0.00     0.067 C 
HETATM    6  C   UNL     1      24.286  43.740  51.501  1.00  0.00     0.125 C 
HETATM    7  N   UNL     1      25.460  43.360  52.305  1.00  0.00    -0.365 N 
HETATM    8  N   UNL     1      27.254  41.112  50.224  1.00  0.00    -0.181 NA
HETATM    9  C   UNL     1      28.158  41.333  51.184  1.00  0.00     0.160 A 
HETATM   10  H   UNL     1      25.757  44.119  52.923  1.00  0.00     0.162 HD
ENDROOT
BRANCH   1  11
HETATM   11  C   UNL     1      28.376  42.526  53.439  1.00  0.00     0.261 C 
HETATM   12  N   UNL     1      28.346  43.882  53.708  1.00  0.00    -0.323 N 
HETATM   13  H   UNL     1      27.786  44.435  53.068  1.00  0.00     0.169 HD
HETATM   14  O   UNL     1      28.866  41.656  54.148  1.00  0.00    -0.267 OA
BRANCH  12  15
HETATM   15  C   UNL     1      28.858  44.551  54.836  1.00  0.00     0.035 A 
HETATM   16  C   UNL     1      30.031  44.179  55.498  1.00  0.00     0.039 A 
HETATM   17  C   UNL     1      30.473  44.875  56.638  1.00  0.00    -0.028 A 
HETATM   18  C   UNL     1      29.707  45.950  57.115  1.00  0.00     0.010 A 
HETATM   19  C   UNL     1      28.545  46.337  56.452  1.00  0.00     0.003 A 
HETATM   20  C   UNL     1      28.127  45.643  55.315  1.00  0.00     0.029 A 
BRANCH  17  21
HETATM   21  C   UNL     1      31.733  44.433  57.350  1.00  0.00     0.147 C 
HETATM   22  C   UNL     1      31.964  42.934  57.226  1.00  0.00     0.044 C 
BRANCH  21  23
HETATM   23  O   UNL     1      31.672  44.777  58.733  1.00  0.00    -0.391 OA
HETATM   24  H   UNL     1      31.250  44.028  59.187  1.00  0.00     0.210 HD
ENDBRANCH  21  23
ENDBRANCH  17  21
ENDBRANCH  12  15
ENDBRANCH   1  11
BRANCH   4  25
HETATM   25  C   UNL     1      25.231  42.552  48.473  1.00  0.00     0.409 C 
HETATM   26  F   UNL     1      24.117  43.042  47.900  1.00  0.00    -0.169 F 
HETATM   27  F   UNL     1      26.131  43.559  48.542  1.00  0.00    -0.169 F 
HETATM   28  F   UNL     1      25.756  41.642  47.609  1.00  0.00    -0.169 F 
ENDBRANCH   4  25
BRANCH   6  29
HETATM   29  C   UNL     1      24.429  45.037  50.740  1.00  0.00     0.005 A 
HETATM   30  S   UNL     1      25.802  46.039  51.011  1.00  0.00    -0.104 SA
HETATM   31  C   UNL     1      25.270  47.198  49.875  1.00  0.00     0.050 A 
HETATM   32  C   UNL     1      24.089  46.828  49.273  1.00  0.00     0.008 A 
HETATM   33  C   UNL     1      23.612  45.577  49.761  1.00  0.00     0.017 A 
ENDBRANCH   6  29
TORSDOF 6
ENDMDL
MODEL 7
REMARK VINA RESULT:      -7.9      5.443      9.817
REMARK  6 active torsions:
REMARK  status: ('A' for Active; 'I' for Inactive)
REMARK    1  A    between atoms: C_2  and  O_3 
REMARK    2  A    between atoms: C_2  and  C_4 
REMARK    3  A    between atoms: C_6  and  N_7 
REMARK       I    between atoms: N_7  and  C_8 
REMARK    4  A    between atoms: C_8  and  C_9 
REMARK    5  A    between atoms: C_12  and  C_13 
REMARK    6  A    between atoms: C_18  and  C_19 
ROOT
HETATM    1  C   UNL     1      21.354  50.027  48.904  1.00  0.00     0.096 A 
HETATM    2  C   UNL     1      20.259  50.468  48.184  1.00  0.00     0.138 A 
HETATM    3  N   UNL     1      19.654  51.419  48.970  1.00  0.00    -0.240 N 
HETATM    4  C   UNL     1      18.496  52.203  48.585  1.00  0.00     0.221 C 
HETATM    5  C   UNL     1      18.212  52.043  47.080  1.00  0.00     0.067 C 
HETATM    6  C   UNL     1      18.438  50.620  46.540  1.00  0.00     0.125 C 
HETATM    7  N   UNL     1      19.766  50.142  46.958  1.00  0.00    -0.365 N 
HETATM    8  N   UNL     1      20.264  51.618  50.147  1.00  0.00    -0.181 NA
HETATM    9  C   UNL     1      21.271  50.740  50.124  1.00  0.00     0.160 A 
HETATM   10  H   UNL     1      19.967  49.209  46.587  1.00  0.00     0.162 HD
ENDROOT
BRANCH   1  11
HETATM   11  C   UNL     1      22.390  49.078  48.529  1.00  0.00     0.261 C 
HETATM   12  N   UNL     1      23.156  48.665  49.604  1.00  0.00    -0.323 N 
HETATM   13  H   UNL     1      22.853  49.013  50.507  1.00  0.00     0.169 HD
HETATM   14  O   UNL     1      22.482  48.678  47.376  1.00  0.00    -0.267 OA
BRANCH  12  15
HETATM   15  C   UNL     1      24.189  47.707  49.611  1.00  0.00     0.035 A 
HETATM   16  C   UNL     1      23.974  46.327  49.568  1.00  0.00     0.039 A 
HETATM   17  C   UNL     1      25.051  45.424  49.606  1.00  0.00    -0.028 A 
HETATM   18  C   UNL     1      26.357  45.929  49.702  1.00  0.00     0.010 A 
HETATM   19  C   UNL     1      26.581  47.304  49.730  1.00  0.00     0.003 A 
HETATM   20  C   UNL     1      25.501  48.187  49.679  1.00  0.00     0.029 A 
BRANCH  17  21
HETATM   21  C   UNL     1      24.786  43.933  49.585  1.00  0.00     0.147 C 
HETATM   22  C   UNL     1      24.864  43.319  50.975  1.00  0.00     0.044 C 
BRANCH  21  23
HETATM   23  O   UNL     1      25.724  43.273  48.736  1.00  0.00    -0.391 OA
HETATM   24  H   UNL     1      25.296  43.178  47.869  1.00  0.00     0.210 HD
ENDBRANCH  21  23
ENDBRANCH  17  21
ENDBRANCH  12  15
ENDBRANCH   1  11
BRANCH   4  25
HETATM   25  C   UNL     1      17.313  51.886  49.474  1.00  0.00     0.409 C 
HETATM   26  F   UNL     1      17.414  50.706  50.113  1.00  0.00    -0.169 F 
HETATM   27  F   UNL     1      17.106  52.839  50.410  1.00  0.00    -0.169 F 
HETATM   28  F   UNL     1      16.174  51.839  48.731  1.00  0.00    -0.169 F 
ENDBRANCH   4  25
BRANCH   6  29
HETATM   29  C   UNL     1      17.300  49.666  46.821  1.00  0.00     0.005 A 
HETATM   30  S   UNL     1      15.809  49.844  45.980  1.00  0.00    -0.104 SA
HETATM   31  C   UNL     1      15.114  48.506  46.783  1.00  0.00     0.050 A 
HETATM   32  C   UNL     1      15.998  47.910  47.653  1.00  0.00     0.008 A 
HETATM   33  C   UNL     1      17.261  48.570  47.665  1.00  0.00     0.017 A 
ENDBRANCH   6  29
TORSDOF 6
ENDMDL
MODEL 8
REMARK VINA RESULT:      -7.8      2.426      3.810
REMARK  6 active torsions:
REMARK  status: ('A' for Active; 'I' for Inactive)
REMARK    1  A    between atoms: C_2  and  O_3 
REMARK    2  A    between atoms: C_2  and  C_4 
REMARK    3  A    between atoms: C_6  and  N_7 
REMARK       I    between atoms: N_7  and  C_8 
REMARK    4  A    between atoms: C_8  and  C_9 
REMARK    5  A    between atoms: C_12  and  C_13 
REMARK    6  A    between atoms: C_18  and  C_19 
ROOT
HETATM    1  C   UNL     1      23.682  47.362  49.287  1.00  0.00     0.096 A 
HETATM    2  C   UNL     1      23.807  46.091  49.819  1.00  0.00     0.138 A 
HETATM    3  N   UNL     1      25.080  46.025  50.331  1.00  0.00    -0.240 N 
HETATM    4  C   UNL     1      25.630  44.891  51.049  1.00  0.00     0.221 C 
HETATM    5  C   UNL     1      24.517  43.892  51.416  1.00  0.00     0.067 C 
HETATM    6  C   UNL     1      23.442  43.714  50.329  1.00  0.00     0.125 C 
HETATM    7  N   UNL     1      22.952  45.036  49.903  1.00  0.00    -0.365 N 
HETATM    8  N   UNL     1      25.793  47.148  50.162  1.00  0.00    -0.181 NA
HETATM    9  C   UNL     1      24.957  47.943  49.487  1.00  0.00     0.160 A 
HETATM   10  H   UNL     1      22.209  44.956  49.205  1.00  0.00     0.162 HD
ENDROOT
BRANCH   1  11
HETATM   11  C   UNL     1      22.528  48.003  48.680  1.00  0.00     0.261 C 
HETATM   12  N   UNL     1      21.471  48.156  49.559  1.00  0.00    -0.323 N 
HETATM   13  H   UNL     1      21.662  47.875  50.515  1.00  0.00     0.169 HD
HETATM   14  O   UNL     1      22.572  48.402  47.523  1.00  0.00    -0.267 OA
BRANCH  12  15
HETATM   15  C   UNL     1      20.238  48.794  49.325  1.00  0.00     0.035 A 
HETATM   16  C   UNL     1      20.037  50.172  49.445  1.00  0.00     0.039 A 
HETATM   17  C   UNL     1      18.770  50.742  49.224  1.00  0.00    -0.028 A 
HETATM   18  C   UNL     1      17.697  49.902  48.890  1.00  0.00     0.010 A 
HETATM   19  C   UNL     1      17.893  48.529  48.753  1.00  0.00     0.003 A 
HETATM   20  C   UNL     1      19.158  47.981  48.964  1.00  0.00     0.029 A 
BRANCH  17  21
HETATM   21  C   UNL     1      18.576  52.235  49.387  1.00  0.00     0.147 C 
HETATM   22  C   UNL     1      17.165  52.581  49.839  1.00  0.00     0.044 C 
BRANCH  21  23
HETATM   23  O   UNL     1      18.846  52.909  48.160  1.00  0.00    -0.391 OA
HETATM   24  H   UNL     1      19.605  53.494  48.324  1.00  0.00     0.210 HD
ENDBRANCH  21  23
ENDBRANCH  17  21
ENDBRANCH  12  15
ENDBRANCH   1  11
BRANCH   4  25
HETATM   25  C   UNL     1      26.782  44.277  50.282  1.00  0.00     0.409 C 
HETATM   26  F   UNL     1      27.952  44.921  50.450  1.00  0.00    -0.169 F 
HETATM   27  F   UNL     1      26.981  42.980  50.608  1.00  0.00    -0.169 F 
HETATM   28  F   UNL     1      26.510  44.289  48.949  1.00  0.00    -0.169 F 
ENDBRANCH   4  25
BRANCH   6  29
HETATM   29  C   UNL     1      23.850  42.793  49.203  1.00  0.00     0.005 A 
HETATM   30  S   UNL     1      23.531  43.245  47.573  1.00  0.00    -0.104 SA
HETATM   31  C   UNL     1      24.235  41.813  46.963  1.00  0.00     0.050 A 
HETATM   32  C   UNL     1      24.732  41.014  47.967  1.00  0.00     0.008 A 
HETATM   33  C   UNL     1      24.523  41.585  49.256  1.00  0.00     0.017 A 
ENDBRANCH   6  29
TORSDOF 6
ENDMDL
MODEL 9
REMARK VINA RESULT:      -7.7      4.740      8.509
REMARK  6 active torsions:
REMARK  status: ('A' for Active; 'I' for Inactive)
REMARK    1  A    between atoms: C_2  and  O_3 
REMARK    2  A    between atoms: C_2  and  C_4 
REMARK    3  A    between atoms: C_6  and  N_7 
REMARK       I    between atoms: N_7  and  C_8 
REMARK    4  A    between atoms: C_8  and  C_9 
REMARK    5  A    between atoms: C_12  and  C_13 
REMARK    6  A    between atoms: C_18  and  C_19 
ROOT
HETATM    1  C   UNL     1      26.769  42.219  51.806  1.00  0.00     0.096 A 
HETATM    2  C   UNL     1      25.787  43.158  51.550  1.00  0.00     0.138 A 
HETATM    3  N   UNL     1      25.118  42.705  50.438  1.00  0.00    -0.240 N 
HETATM    4  C   UNL     1      23.958  43.345  49.847  1.00  0.00     0.221 C 
HETATM    5  C   UNL     1      23.398  44.425  50.789  1.00  0.00     0.067 C 
HETATM    6  C   UNL     1      24.473  45.236  51.534  1.00  0.00     0.125 C 
HETATM    7  N   UNL     1      25.428  44.315  52.172  1.00  0.00    -0.365 N 
HETATM    8  N   UNL     1      25.599  41.554  49.947  1.00  0.00    -0.181 NA
HETATM    9  C   UNL     1      26.631  41.284  50.753  1.00  0.00     0.160 A 
HETATM   10  H   UNL     1      26.140  44.818  52.708  1.00  0.00     0.162 HD
ENDROOT
BRANCH   1  11
HETATM   11  C   UNL     1      27.724  42.151  52.899  1.00  0.00     0.261 C 
HETATM   12  N   UNL     1      28.278  43.379  53.209  1.00  0.00    -0.323 N 
HETATM   13  H   UNL     1      27.896  44.166  52.694  1.00  0.00     0.169 HD
HETATM   14  O   UNL     1      27.927  41.095  53.486  1.00  0.00    -0.267 OA
BRANCH  12  15
HETATM   15  C   UNL     1      29.176  43.685  54.249  1.00  0.00     0.035 A 
HETATM   16  C   UNL     1      28.982  44.719  55.170  1.00  0.00     0.039 A 
HETATM   17  C   UNL     1      29.935  44.988  56.169  1.00  0.00    -0.028 A 
HETATM   18  C   UNL     1      31.099  44.208  56.225  1.00  0.00     0.010 A 
HETATM   19  C   UNL     1      31.293  43.165  55.321  1.00  0.00     0.003 A 
HETATM   20  C   UNL     1      30.333  42.903  54.343  1.00  0.00     0.029 A 
BRANCH  17  21
HETATM   21  C   UNL     1      29.710  46.132  57.135  1.00  0.00     0.147 C 
HETATM   22  C   UNL     1      30.185  45.794  58.541  1.00  0.00     0.044 C 
BRANCH  21  23
HETATM   23  O   UNL     1      28.327  46.477  57.187  1.00  0.00    -0.391 OA
HETATM   24  H   UNL     1      28.144  46.757  58.100  1.00  0.00     0.210 HD
ENDBRANCH  21  23
ENDBRANCH  17  21
ENDBRANCH  12  15
ENDBRANCH   1  11
BRANCH   4  25
HETATM   25  C   UNL     1      24.274  43.843  48.452  1.00  0.00     0.409 C 
HETATM   26  F   UNL     1      23.471  44.840  48.037  1.00  0.00    -0.169 F 
HETATM   27  F   UNL     1      25.550  44.276  48.341  1.00  0.00    -0.169 F 
HETATM   28  F   UNL     1      24.144  42.829  47.557  1.00  0.00    -0.169 F 
ENDBRANCH   4  25
BRANCH   6  29
HETATM   29  C   UNL     1      25.103  46.333  50.706  1.00  0.00     0.005 A 
HETATM   30  S   UNL     1      24.104  47.516  49.955  1.00  0.00    -0.104 SA
HETATM   31  C   UNL     1      25.448  48.324  49.278  1.00  0.00     0.050 A 
HETATM   32  C   UNL     1      26.639  47.733  49.633  1.00  0.00     0.008 A 
HETATM   33  C   UNL     1      26.441  46.595  50.467  1.00  0.00     0.017 A 
ENDBRANCH   6  29
TORSDOF 6
ENDMDL
MODEL 10
REMARK VINA RESULT:      -7.6      5.745      9.352
REMARK  6 active torsions:
REMARK  status: ('A' for Active; 'I' for Inactive)
REMARK    1  A    between atoms: C_2  and  O_3 
REMARK    2  A    between atoms: C_2  and  C_4 
REMARK    3  A    between atoms: C_6  and  N_7 
REMARK       I    between atoms: N_7  and  C_8 
REMARK    4  A    between atoms: C_8  and  C_9 
REMARK    5  A    between atoms: C_12  and  C_13 
REMARK    6  A    between atoms: C_18  and  C_19 
ROOT
HETATM    1  C   UNL     1      20.413  48.046  48.231  1.00  0.00     0.096 A 
HETATM    2  C   UNL     1      19.456  48.131  47.237  1.00  0.00     0.138 A 
HETATM    3  N   UNL     1      18.328  48.625  47.846  1.00  0.00    -0.240 N 
HETATM    4  C   UNL     1      17.086  48.942  47.166  1.00  0.00     0.221 C 
HETATM    5  C   UNL     1      17.287  48.928  45.640  1.00  0.00     0.067 C 
HETATM    6  C   UNL     1      18.223  47.816  45.133  1.00  0.00     0.125 C 
HETATM    7  N   UNL     1      19.475  47.839  45.907  1.00  0.00    -0.365 N 
HETATM    8  N   UNL     1      18.476  48.856  49.158  1.00  0.00    -0.181 NA
HETATM    9  C   UNL     1      19.730  48.461  49.400  1.00  0.00     0.160 A 
HETATM   10  H   UNL     1      20.138  47.134  45.575  1.00  0.00     0.162 HD
ENDROOT
BRANCH   1  11
HETATM   11  C   UNL     1      21.810  47.656  48.143  1.00  0.00     0.261 C 
HETATM   12  N   UNL     1      22.465  47.717  49.360  1.00  0.00    -0.323 N 
HETATM   13  H   UNL     1      21.877  47.949  50.153  1.00  0.00     0.169 HD
HETATM   14  O   UNL     1      22.283  47.263  47.084  1.00  0.00    -0.267 OA
BRANCH  12  15
HETATM   15  C   UNL     1      23.792  47.344  49.647  1.00  0.00     0.035 A 
HETATM   16  C   UNL     1      24.905  48.143  49.369  1.00  0.00     0.039 A 
HETATM   17  C   UNL     1      26.207  47.697  49.657  1.00  0.00    -0.028 A 
HETATM   18  C   UNL     1      26.380  46.424  50.222  1.00  0.00     0.010 A 
HETATM   19  C   UNL     1      25.275  45.628  50.517  1.00  0.00     0.003 A 
HETATM   20  C   UNL     1      23.988  46.090  50.236  1.00  0.00     0.029 A 
BRANCH  17  21
HETATM   21  C   UNL     1      27.395  48.573  49.320  1.00  0.00     0.147 C 
HETATM   22  C   UNL     1      26.978  49.856  48.616  1.00  0.00     0.044 C 
BRANCH  21  23
HETATM   23  O   UNL     1      28.314  47.868  48.487  1.00  0.00    -0.391 OA
HETATM   24  H   UNL     1      28.741  47.199  49.048  1.00  0.00     0.210 HD
ENDBRANCH  21  23
ENDBRANCH  17  21
ENDBRANCH  12  15
ENDBRANCH   1  11
BRANCH   4  25
HETATM   25  C   UNL     1      15.966  48.045  47.649  1.00  0.00     0.409 C 
HETATM   26  F   UNL     1      15.064  47.741  46.699  1.00  0.00    -0.169 F 
HETATM   27  F   UNL     1      16.428  46.880  48.159  1.00  0.00    -0.169 F 
HETATM   28  F   UNL     1      15.289  48.652  48.660  1.00  0.00    -0.169 F 
ENDBRANCH   4  25
BRANCH   6  29
HETATM   29  C   UNL     1      17.566  46.460  45.024  1.00  0.00     0.005 A 
HETATM   30  S   UNL     1      16.284  46.219  43.902  1.00  0.00    -0.104 SA
HETATM   31  C   UNL     1      16.107  44.580  44.345  1.00  0.00     0.050 A 
HETATM   32  C   UNL     1      17.018  44.203  45.305  1.00  0.00     0.008 A 
HETATM   33  C   UNL     1      17.868  45.282  45.686  1.00  0.00     0.017 A 
ENDBRANCH   6  29
TORSDOF 6
ENDMDL
