MODEL 1
REMARK VINA RESULT:     -10.0      0.000      0.000
REMARK  8 active torsions:
REMARK  status: ('A' for Active; 'I' for Inactive)
REMARK    1  A    between atoms: N_5  and  C_6 
REMARK    2  A    between atoms: C_6  and  C_7 
REMARK       I    between atoms: C_7  and  N_8 
REMARK    3  A    between atoms: N_8  and  C_9 
REMARK    4  A    between atoms: N_19  and  C_20 
REMARK    5  A    between atoms: C_20  and  C_21 
REMARK    6  A    between atoms: C_24  and  C_25 
REMARK       I    between atoms: C_25  and  N_26 
REMARK    7  A    between atoms: N_26  and  C_27 
REMARK    8  A    between atoms: C_27  and  C_28 
ROOT
HETATM    1  C   UNL     1      28.782  44.408  54.467  1.00  0.00     0.001 A 
HETATM    2  C   UNL     1      28.697  43.211  53.764  1.00  0.00     0.019 A 
HETATM    3  C   UNL     1      27.620  42.984  52.892  1.00  0.00     0.059 A 
HETATM    4  C   UNL     1      26.626  43.942  52.707  1.00  0.00     0.055 A 
HETATM    5  N   UNL     1      25.552  43.668  51.816  1.00  0.00    -0.290 N 
HETATM    6  C   UNL     1      25.409  42.436  51.192  1.00  0.00     0.332 C 
HETATM    7  O   UNL     1      24.372  42.161  50.584  1.00  0.00    -0.246 OA
HETATM    8  N   UNL     1      26.447  41.530  51.331  1.00  0.00    -0.261 N 
HETATM    9  C   UNL     1      27.548  41.714  52.154  1.00  0.00     0.264 C 
HETATM   10  O   UNL     1      28.439  40.881  52.305  1.00  0.00    -0.267 OA
HETATM   11  C   UNL     1      26.724  45.144  53.428  1.00  0.00     0.031 A 
HETATM   12  C   UNL     1      27.795  45.372  54.300  1.00  0.00     0.002 A 
ENDROOT
BRANCH   8  13
HETATM   13  C   UNL     1      26.364  40.279  50.586  1.00  0.00     0.175 C 
BRANCH  13  14
HETATM   14  C   UNL     1      26.720  40.462  49.124  1.00  0.00    -0.040 A 
HETATM   15  C   UNL     1      28.041  40.722  48.733  1.00  0.00     0.010 A 
HETATM   16  C   UNL     1      28.374  40.892  47.382  1.00  0.00     0.017 A 
HETATM   17  C   UNL     1      27.387  40.803  46.395  1.00  0.00     0.032 A 
HETATM   18  C   UNL     1      26.064  40.544  46.787  1.00  0.00     0.017 A 
HETATM   19  C   UNL     1      25.732  40.381  48.135  1.00  0.00     0.010 A 
BRANCH  17  20
HETATM   20  C   UNL     1      27.654  40.971  44.932  1.00  0.00     0.251 C 
HETATM   21  N   UNL     1      26.650  41.496  44.145  1.00  0.00    -0.353 N 
HETATM   22  H   UNL     1      25.801  41.861  44.545  1.00  0.00     0.163 HD
HETATM   23  O   UNL     1      28.737  40.628  44.470  1.00  0.00    -0.268 OA
BRANCH  21  24
HETATM   24  C   UNL     1      26.843  41.690  42.723  1.00  0.00     0.161 C 
BRANCH  24  25
HETATM   25  C   UNL     1      26.616  43.122  42.296  1.00  0.00    -0.038 A 
HETATM   26  C   UNL     1      27.403  43.671  41.269  1.00  0.00     0.048 A 
HETATM   27  C   UNL     1      27.124  44.954  40.844  1.00  0.00     0.105 A 
HETATM   28  C   UNL     1      26.108  45.696  41.395  1.00  0.00     0.105 A 
HETATM   29  O   UNL     1      27.776  45.622  39.854  1.00  0.00    -0.323 OA
HETATM   30  O   UNL     1      25.994  46.926  40.826  1.00  0.00    -0.323 OA
HETATM   31  C   UNL     1      25.310  45.196  42.399  1.00  0.00     0.040 A 
HETATM   32  C   UNL     1      27.032  46.858  39.826  1.00  0.00     0.352 A 
HETATM   33  C   UNL     1      25.560  43.892  42.841  1.00  0.00     0.012 A 
ENDBRANCH  24  25
ENDBRANCH  21  24
ENDBRANCH  17  20
ENDBRANCH  13  14
ENDBRANCH   8  13
BRANCH   5  34
HETATM   34  C   UNL     1      24.566  44.712  51.501  1.00  0.00     0.237 C 
BRANCH  34  35
HETATM   35  C   UNL     1      24.922  45.609  50.309  1.00  0.00     0.240 C 
HETATM   36  N   UNL     1      25.220  46.914  50.655  1.00  0.00    -0.326 N 
HETATM   37  H   UNL     1      25.205  47.126  51.647  1.00  0.00     0.169 HD
HETATM   38  O   UNL     1      24.822  45.169  49.166  1.00  0.00    -0.271 OA
BRANCH  36  39
HETATM   39  C   UNL     1      25.491  47.995  49.791  1.00  0.00     0.036 A 
HETATM   40  C   UNL     1      24.509  48.752  49.148  1.00  0.00     0.053 A 
HETATM   41  C   UNL     1      24.874  49.823  48.328  1.00  0.00     0.036 A 
HETATM   42 CL   UNL     1      23.655  50.766  47.560  1.00  0.00    -0.084 Cl
HETATM   43  C   UNL     1      26.215  50.142  48.127  1.00  0.00     0.024 A 
HETATM   44  C   UNL     1      27.201  49.389  48.757  1.00  0.00     0.004 A 
HETATM   45  C   UNL     1      26.840  48.324  49.588  1.00  0.00     0.029 A 
ENDBRANCH  36  39
ENDBRANCH  34  35
ENDBRANCH   5  34
TORSDOF 8
ENDMDL
MODEL 2
REMARK VINA RESULT:      -9.9      5.122      8.658
REMARK  8 active torsions:
REMARK  status: ('A' for Active; 'I' for Inactive)
REMARK    1  A    between atoms: N_5  and  C_6 
REMARK    2  A    between atoms: C_6  and  C_7 
REMARK       I    between atoms: C_7  and  N_8 
REMARK    3  A    between atoms: N_8  and  C_9 
REMARK    4  A    between atoms: N_19  and  C_20 
REMARK    5  A    between atoms: C_20  and  C_21 
REMARK    6  A    between atoms: C_24  and  C_25 
REMARK       I    between atoms: C_25  and  N_26 
REMARK    7  A    between atoms: N_26  and  C_27 
REMARK    8  A    between atoms: C_27  and  C_28 
ROOT
HETATM    1  C   UNL     1      29.094  45.975  56.578  1.00  0.00     0.001 A 
HETATM    2  C   UNL     1      27.854  45.939  55.949  1.00  0.00     0.019 A 
HETATM    3  C   UNL     1      27.669  45.145  54.806  1.00  0.00     0.059 A 
HETATM    4  C   UNL     1      28.707  44.377  54.283  1.00  0.00     0.055 A 
HETATM    5  N   UNL     1      28.474  43.589  53.122  1.00  0.00    -0.290 N 
HETATM    6  C   UNL     1      27.270  43.631  52.433  1.00  0.00     0.332 C 
HETATM    7  O   UNL     1      27.164  43.093  51.328  1.00  0.00    -0.246 OA
HETATM    8  N   UNL     1      26.231  44.339  53.014  1.00  0.00    -0.261 N 
HETATM    9  C   UNL     1      26.349  45.116  54.157  1.00  0.00     0.264 C 
HETATM   10  O   UNL     1      25.431  45.778  54.635  1.00  0.00    -0.267 OA
HETATM   11  C   UNL     1      29.955  44.428  54.926  1.00  0.00     0.031 A 
HETATM   12  C   UNL     1      30.143  45.221  56.065  1.00  0.00     0.002 A 
ENDROOT
BRANCH   8  13
HETATM   13  C   UNL     1      24.927  44.294  52.361  1.00  0.00     0.175 C 
BRANCH  13  14
HETATM   14  C   UNL     1      24.711  45.479  51.440  1.00  0.00    -0.040 A 
HETATM   15  C   UNL     1      25.364  46.698  51.672  1.00  0.00     0.010 A 
HETATM   16  C   UNL     1      25.166  47.796  50.823  1.00  0.00     0.017 A 
HETATM   17  C   UNL     1      24.308  47.691  49.723  1.00  0.00     0.032 A 
HETATM   18  C   UNL     1      23.653  46.472  49.493  1.00  0.00     0.017 A 
HETATM   19  C   UNL     1      23.847  45.380  50.344  1.00  0.00     0.010 A 
BRANCH  17  20
HETATM   20  C   UNL     1      24.039  48.812  48.767  1.00  0.00     0.251 C 
HETATM   21  N   UNL     1      22.727  49.175  48.546  1.00  0.00    -0.353 N 
HETATM   22  H   UNL     1      21.972  48.784  49.085  1.00  0.00     0.163 HD
HETATM   23  O   UNL     1      24.976  49.362  48.198  1.00  0.00    -0.268 OA
BRANCH  21  24
HETATM   24  C   UNL     1      22.397  50.253  47.637  1.00  0.00     0.161 C 
BRANCH  24  25
HETATM   25  C   UNL     1      20.962  50.710  47.776  1.00  0.00    -0.038 A 
HETATM   26  C   UNL     1      19.979  50.168  46.929  1.00  0.00     0.048 A 
HETATM   27  C   UNL     1      18.665  50.541  47.127  1.00  0.00     0.105 A 
HETATM   28  C   UNL     1      18.302  51.420  48.119  1.00  0.00     0.105 A 
HETATM   29  O   UNL     1      17.597  50.098  46.412  1.00  0.00    -0.323 OA
HETATM   30  O   UNL     1      16.962  51.644  48.150  1.00  0.00    -0.323 OA
HETATM   31  C   UNL     1      19.231  51.971  48.973  1.00  0.00     0.040 A 
HETATM   32  C   UNL     1      16.518  50.775  47.088  1.00  0.00     0.352 A 
HETATM   33  C   UNL     1      20.570  51.599  48.806  1.00  0.00     0.012 A 
ENDBRANCH  24  25
ENDBRANCH  21  24
ENDBRANCH  17  20
ENDBRANCH  13  14
ENDBRANCH   8  13
BRANCH   5  34
HETATM   34  C   UNL     1      29.511  42.670  52.632  1.00  0.00     0.237 C 
BRANCH  34  35
HETATM   35  C   UNL     1      29.036  41.239  52.350  1.00  0.00     0.240 C 
HETATM   36  N   UNL     1      29.029  40.901  51.009  1.00  0.00    -0.326 N 
HETATM   37  H   UNL     1      29.366  41.611  50.369  1.00  0.00     0.169 HD
HETATM   38  O   UNL     1      28.608  40.548  53.271  1.00  0.00    -0.271 OA
BRANCH  36  39
HETATM   39  C   UNL     1      28.562  39.706  50.423  1.00  0.00     0.036 A 
HETATM   40  C   UNL     1      27.488  39.635  49.534  1.00  0.00     0.053 A 
HETATM   41  C   UNL     1      27.113  38.406  48.985  1.00  0.00     0.036 A 
HETATM   42 CL   UNL     1      25.802  38.332  47.870  1.00  0.00    -0.084 Cl
HETATM   43  C   UNL     1      27.791  37.237  49.322  1.00  0.00     0.024 A 
HETATM   44  C   UNL     1      28.858  37.297  50.214  1.00  0.00     0.004 A 
HETATM   45  C   UNL     1      29.244  38.526  50.757  1.00  0.00     0.029 A 
ENDBRANCH  36  39
ENDBRANCH  34  35
ENDBRANCH   5  34
TORSDOF 8
ENDMDL
MODEL 3
REMARK VINA RESULT:      -9.8      4.539      8.885
REMARK  8 active torsions:
REMARK  status: ('A' for Active; 'I' for Inactive)
REMARK    1  A    between atoms: N_5  and  C_6 
REMARK    2  A    between atoms: C_6  and  C_7 
REMARK       I    between atoms: C_7  and  N_8 
REMARK    3  A    between atoms: N_8  and  C_9 
REMARK    4  A    between atoms: N_19  and  C_20 
REMARK    5  A    between atoms: C_20  and  C_21 
REMARK    6  A    between atoms: C_24  and  C_25 
REMARK       I    between atoms: C_25  and  N_26 
REMARK    7  A    between atoms: N_26  and  C_27 
REMARK    8  A    between atoms: C_27  and  C_28 
ROOT
HETATM    1  C   UNL     1      18.626  50.497  50.329  1.00  0.00     0.001 A 
HETATM    2  C   UNL     1      18.530  49.160  49.956  1.00  0.00     0.019 A 
HETATM    3  C   UNL     1      19.556  48.567  49.203  1.00  0.00     0.059 A 
HETATM    4  C   UNL     1      20.683  49.291  48.819  1.00  0.00     0.055 A 
HETATM    5  N   UNL     1      21.696  48.649  48.054  1.00  0.00    -0.290 N 
HETATM    6  C   UNL     1      21.557  47.347  47.594  1.00  0.00     0.332 C 
HETATM    7  O   UNL     1      22.355  46.886  46.774  1.00  0.00    -0.246 OA
HETATM    8  N   UNL     1      20.467  46.625  48.051  1.00  0.00    -0.261 N 
HETATM    9  C   UNL     1      19.440  47.151  48.821  1.00  0.00     0.264 C 
HETATM   10  O   UNL     1      18.455  46.511  49.181  1.00  0.00    -0.267 OA
HETATM   11  C   UNL     1      20.762  50.641  49.199  1.00  0.00     0.031 A 
HETATM   12  C   UNL     1      19.740  51.236  49.948  1.00  0.00     0.002 A 
ENDROOT
BRANCH   8  13
HETATM   13  C   UNL     1      20.372  45.221  47.670  1.00  0.00     0.175 C 
BRANCH  13  14
HETATM   14  C   UNL     1      21.532  44.405  48.206  1.00  0.00    -0.040 A 
HETATM   15  C   UNL     1      21.943  44.532  49.540  1.00  0.00     0.010 A 
HETATM   16  C   UNL     1      23.017  43.780  50.040  1.00  0.00     0.017 A 
HETATM   17  C   UNL     1      23.697  42.884  49.209  1.00  0.00     0.032 A 
HETATM   18  C   UNL     1      23.286  42.759  47.873  1.00  0.00     0.017 A 
HETATM   19  C   UNL     1      22.220  43.514  47.374  1.00  0.00     0.010 A 
BRANCH  17  20
HETATM   20  C   UNL     1      24.851  42.043  49.658  1.00  0.00     0.251 C 
HETATM   21  N   UNL     1      25.314  42.212  50.946  1.00  0.00    -0.353 N 
HETATM   22  H   UNL     1      24.833  42.797  51.609  1.00  0.00     0.163 HD
HETATM   23  O   UNL     1      25.361  41.246  48.877  1.00  0.00    -0.268 OA
BRANCH  21  24
HETATM   24  C   UNL     1      26.424  41.427  51.446  1.00  0.00     0.161 C 
BRANCH  24  25
HETATM   25  C   UNL     1      27.388  42.247  52.273  1.00  0.00    -0.038 A 
HETATM   26  C   UNL     1      26.897  43.036  53.329  1.00  0.00     0.048 A 
HETATM   27  C   UNL     1      27.804  43.713  54.118  1.00  0.00     0.105 A 
HETATM   28  C   UNL     1      29.158  43.635  53.898  1.00  0.00     0.105 A 
HETATM   29  O   UNL     1      27.497  44.500  55.184  1.00  0.00    -0.323 OA
HETATM   30  O   UNL     1      29.874  44.366  54.793  1.00  0.00    -0.323 OA
HETATM   31  C   UNL     1      29.682  42.872  52.879  1.00  0.00     0.040 A 
HETATM   32  C   UNL     1      28.815  44.883  55.627  1.00  0.00     0.352 A 
HETATM   33  C   UNL     1      28.787  42.161  52.071  1.00  0.00     0.012 A 
ENDBRANCH  24  25
ENDBRANCH  21  24
ENDBRANCH  17  20
ENDBRANCH  13  14
ENDBRANCH   8  13
BRANCH   5  34
HETATM   34  C   UNL     1      22.952  49.350  47.753  1.00  0.00     0.237 C 
BRANCH  34  35
HETATM   35  C   UNL     1      24.138  48.983  48.653  1.00  0.00     0.240 C 
HETATM   36  N   UNL     1      24.063  47.712  49.194  1.00  0.00    -0.326 N 
HETATM   37  H   UNL     1      23.263  47.156  48.915  1.00  0.00     0.169 HD
HETATM   38  O   UNL     1      24.987  49.831  48.916  1.00  0.00    -0.271 OA
BRANCH  36  39
HETATM   39  C   UNL     1      24.939  47.119  50.126  1.00  0.00     0.036 A 
HETATM   40  C   UNL     1      24.983  47.449  51.483  1.00  0.00     0.053 A 
HETATM   41  C   UNL     1      25.870  46.787  52.336  1.00  0.00     0.036 A 
HETATM   42 CL   UNL     1      25.899  47.183  54.012  1.00  0.00    -0.084 Cl
HETATM   43  C   UNL     1      26.729  45.804  51.850  1.00  0.00     0.024 A 
HETATM   44  C   UNL     1      26.698  45.475  50.498  1.00  0.00     0.004 A 
HETATM   45  C   UNL     1      25.804  46.126  49.643  1.00  0.00     0.029 A 
ENDBRANCH  36  39
ENDBRANCH  34  35
ENDBRANCH   5  34
TORSDOF 8
ENDMDL
MODEL 4
REMARK VINA RESULT:      -9.7      5.354     10.707
REMARK  8 active torsions:
REMARK  status: ('A' for Active; 'I' for Inactive)
REMARK    1  A    between atoms: N_5  and  C_6 
REMARK    2  A    between atoms: C_6  and  C_7 
REMARK       I    between atoms: C_7  and  N_8 
REMARK    3  A    between atoms: N_8  and  C_9 
REMARK    4  A    between atoms: N_19  and  C_20 
REMARK    5  A    between atoms: C_20  and  C_21 
REMARK    6  A    between atoms: C_24  and  C_25 
REMARK       I    between atoms: C_25  and  N_26 
REMARK    7  A    between atoms: N_26  and  C_27 
REMARK    8  A    between atoms: C_27  and  C_28 
ROOT
HETATM    1  C   UNL     1      18.372  50.895  50.129  1.00  0.00     0.001 A 
HETATM    2  C   UNL     1      19.748  50.701  50.175  1.00  0.00     0.019 A 
HETATM    3  C   UNL     1      20.362  49.817  49.273  1.00  0.00     0.059 A 
HETATM    4  C   UNL     1      19.619  49.126  48.318  1.00  0.00     0.055 A 
HETATM    5  N   UNL     1      20.283  48.239  47.427  1.00  0.00    -0.290 N 
HETATM    6  C   UNL     1      21.640  47.964  47.536  1.00  0.00     0.332 C 
HETATM    7  O   UNL     1      22.146  47.050  46.881  1.00  0.00    -0.246 OA
HETATM    8  N   UNL     1      22.369  48.718  48.439  1.00  0.00    -0.261 N 
HETATM    9  C   UNL     1      21.819  49.626  49.333  1.00  0.00     0.264 C 
HETATM   10  O   UNL     1      22.473  50.254  50.163  1.00  0.00    -0.267 OA
HETATM   11  C   UNL     1      18.230  49.330  48.288  1.00  0.00     0.031 A 
HETATM   12  C   UNL     1      17.614  50.209  49.188  1.00  0.00     0.002 A 
ENDROOT
BRANCH   8  13
HETATM   13  C   UNL     1      23.814  48.523  48.481  1.00  0.00     0.175 C 
BRANCH  13  14
HETATM   14  C   UNL     1      24.215  47.450  49.474  1.00  0.00    -0.040 A 
HETATM   15  C   UNL     1      23.754  46.133  49.335  1.00  0.00     0.010 A 
HETATM   16  C   UNL     1      24.122  45.138  50.252  1.00  0.00     0.017 A 
HETATM   17  C   UNL     1      24.962  45.446  51.327  1.00  0.00     0.032 A 
HETATM   18  C   UNL     1      25.421  46.765  51.467  1.00  0.00     0.017 A 
HETATM   19  C   UNL     1      25.048  47.757  50.556  1.00  0.00     0.010 A 
BRANCH  17  20
HETATM   20  C   UNL     1      25.405  44.448  52.351  1.00  0.00     0.251 C 
HETATM   21  N   UNL     1      26.647  43.868  52.199  1.00  0.00    -0.353 N 
HETATM   22  H   UNL     1      27.291  44.178  51.490  1.00  0.00     0.163 HD
HETATM   23  O   UNL     1      24.657  44.160  53.280  1.00  0.00    -0.268 OA
BRANCH  21  24
HETATM   24  C   UNL     1      27.138  42.899  53.156  1.00  0.00     0.161 C 
BRANCH  24  25
HETATM   25  C   UNL     1      28.254  43.447  54.016  1.00  0.00    -0.038 A 
HETATM   26  C   UNL     1      28.023  44.589  54.803  1.00  0.00     0.048 A 
HETATM   27  C   UNL     1      29.032  45.023  55.639  1.00  0.00     0.105 A 
HETATM   28  C   UNL     1      30.240  44.374  55.717  1.00  0.00     0.105 A 
HETATM   29  O   UNL     1      28.965  46.094  56.475  1.00  0.00    -0.323 OA
HETATM   30  O   UNL     1      31.087  44.956  56.607  1.00  0.00    -0.323 OA
HETATM   31  C   UNL     1      30.507  43.250  54.968  1.00  0.00     0.040 A 
HETATM   32  C   UNL     1      30.258  46.025  57.109  1.00  0.00     0.352 A 
HETATM   33  C   UNL     1      29.497  42.777  54.122  1.00  0.00     0.012 A 
ENDBRANCH  24  25
ENDBRANCH  21  24
ENDBRANCH  17  20
ENDBRANCH  13  14
ENDBRANCH   8  13
BRANCH   5  34
HETATM   34  C   UNL     1      19.544  47.604  46.327  1.00  0.00     0.237 C 
BRANCH  34  35
HETATM   35  C   UNL     1      19.360  46.087  46.452  1.00  0.00     0.240 C 
HETATM   36  N   UNL     1      19.971  45.360  45.446  1.00  0.00    -0.326 N 
HETATM   37  H   UNL     1      20.495  45.896  44.765  1.00  0.00     0.169 HD
HETATM   38  O   UNL     1      18.629  45.633  47.330  1.00  0.00    -0.271 OA
BRANCH  36  39
HETATM   39  C   UNL     1      19.909  43.968  45.229  1.00  0.00     0.036 A 
HETATM   40  C   UNL     1      20.646  43.027  45.951  1.00  0.00     0.053 A 
HETATM   41  C   UNL     1      20.499  41.664  45.681  1.00  0.00     0.036 A 
HETATM   42 CL   UNL     1      21.394  40.509  46.594  1.00  0.00    -0.084 Cl
HETATM   43  C   UNL     1      19.630  41.224  44.685  1.00  0.00     0.024 A 
HETATM   44  C   UNL     1      18.897  42.155  43.955  1.00  0.00     0.004 A 
HETATM   45  C   UNL     1      19.033  43.519  44.230  1.00  0.00     0.029 A 
ENDBRANCH  36  39
ENDBRANCH  34  35
ENDBRANCH   5  34
TORSDOF 8
ENDMDL
MODEL 5
REMARK VINA RESULT:      -9.5      9.550     14.818
REMARK  8 active torsions:
REMARK  status: ('A' for Active; 'I' for Inactive)
REMARK    1  A    between atoms: N_5  and  C_6 
REMARK    2  A    between atoms: C_6  and  C_7 
REMARK       I    between atoms: C_7  and  N_8 
REMARK    3  A    between atoms: N_8  and  C_9 
REMARK    4  A    between atoms: N_19  and  C_20 
REMARK    5  A    between atoms: C_20  and  C_21 
REMARK    6  A    between atoms: C_24  and  C_25 
REMARK       I    between atoms: C_25  and  N_26 
REMARK    7  A    between atoms: N_26  and  C_27 
REMARK    8  A    between atoms: C_27  and  C_28 
ROOT
HETATM    1  C   UNL     1      17.478  45.777  44.776  1.00  0.00     0.001 A 
HETATM    2  C   UNL     1      17.427  47.167  44.800  1.00  0.00     0.019 A 
HETATM    3  C   UNL     1      18.094  47.877  45.812  1.00  0.00     0.059 A 
HETATM    4  C   UNL     1      18.820  47.216  46.801  1.00  0.00     0.055 A 
HETATM    5  N   UNL     1      19.477  47.976  47.807  1.00  0.00    -0.290 N 
HETATM    6  C   UNL     1      19.343  49.354  47.894  1.00  0.00     0.332 C 
HETATM    7  O   UNL     1      19.760  49.961  48.884  1.00  0.00    -0.246 OA
HETATM    8  N   UNL     1      18.682  49.994  46.860  1.00  0.00    -0.261 N 
HETATM    9  C   UNL     1      18.031  49.346  45.820  1.00  0.00     0.264 C 
HETATM   10  O   UNL     1      17.407  49.925  44.934  1.00  0.00    -0.267 OA
HETATM   11  C   UNL     1      18.859  45.812  46.765  1.00  0.00     0.031 A 
HETATM   12  C   UNL     1      18.193  45.101  45.758  1.00  0.00     0.002 A 
ENDROOT
BRANCH   8  13
HETATM   13  C   UNL     1      18.636  51.452  46.879  1.00  0.00     0.175 C 
BRANCH  13  14
HETATM   14  C   UNL     1      17.612  51.976  47.867  1.00  0.00    -0.040 A 
HETATM   15  C   UNL     1      16.239  51.839  47.620  1.00  0.00     0.010 A 
HETATM   16  C   UNL     1      15.289  52.323  48.531  1.00  0.00     0.017 A 
HETATM   17  C   UNL     1      15.700  52.953  49.711  1.00  0.00     0.032 A 
HETATM   18  C   UNL     1      17.075  53.091  49.956  1.00  0.00     0.017 A 
HETATM   19  C   UNL     1      18.021  52.614  49.044  1.00  0.00     0.010 A 
BRANCH  17  20
HETATM   20  C   UNL     1      14.756  53.498  50.737  1.00  0.00     0.251 C 
HETATM   21  N   UNL     1      15.226  54.461  51.604  1.00  0.00    -0.353 N 
HETATM   22  H   UNL     1      16.138  54.874  51.492  1.00  0.00     0.163 HD
HETATM   23  O   UNL     1      13.608  53.070  50.792  1.00  0.00    -0.268 OA
BRANCH  21  24
HETATM   24  C   UNL     1      14.364  55.035  52.617  1.00  0.00     0.161 C 
BRANCH  24  25
HETATM   25  C   UNL     1      14.788  56.430  53.017  1.00  0.00    -0.038 A 
HETATM   26  C   UNL     1      14.176  57.539  52.409  1.00  0.00     0.048 A 
HETATM   27  C   UNL     1      14.522  58.802  52.847  1.00  0.00     0.105 A 
HETATM   28  C   UNL     1      15.441  58.994  53.850  1.00  0.00     0.105 A 
HETATM   29  O   UNL     1      14.013  59.972  52.380  1.00  0.00    -0.323 OA
HETATM   30  O   UNL     1      15.630  60.309  54.138  1.00  0.00    -0.323 OA
HETATM   31  C   UNL     1      16.061  57.936  54.476  1.00  0.00     0.040 A 
HETATM   32  C   UNL     1      14.695  60.922  53.226  1.00  0.00     0.352 A 
HETATM   33  C   UNL     1      15.718  56.644  54.063  1.00  0.00     0.012 A 
ENDBRANCH  24  25
ENDBRANCH  21  24
ENDBRANCH  17  20
ENDBRANCH  13  14
ENDBRANCH   8  13
BRANCH   5  34
HETATM   34  C   UNL     1      20.358  47.312  48.779  1.00  0.00     0.237 C 
BRANCH  34  35
HETATM   35  C   UNL     1      21.853  47.349  48.439  1.00  0.00     0.240 C 
HETATM   36  N   UNL     1      22.673  47.590  49.526  1.00  0.00    -0.326 N 
HETATM   37  H   UNL     1      22.208  47.680  50.422  1.00  0.00     0.169 HD
HETATM   38  O   UNL     1      22.212  47.275  47.266  1.00  0.00    -0.271 OA
BRANCH  36  39
HETATM   39  C   UNL     1      24.071  47.775  49.527  1.00  0.00     0.036 A 
HETATM   40  C   UNL     1      24.717  48.877  48.963  1.00  0.00     0.053 A 
HETATM   41  C   UNL     1      26.109  48.986  49.035  1.00  0.00     0.036 A 
HETATM   42 CL   UNL     1      26.895  50.361  48.358  1.00  0.00    -0.084 Cl
HETATM   43  C   UNL     1      26.870  47.999  49.655  1.00  0.00     0.024 A 
HETATM   44  C   UNL     1      26.235  46.893  50.213  1.00  0.00     0.004 A 
HETATM   45  C   UNL     1      24.843  46.785  50.153  1.00  0.00     0.029 A 
ENDBRANCH  36  39
ENDBRANCH  34  35
ENDBRANCH   5  34
TORSDOF 8
ENDMDL
MODEL 6
REMARK VINA RESULT:      -9.3      5.815     10.994
REMARK  8 active torsions:
REMARK  status: ('A' for Active; 'I' for Inactive)
REMARK    1  A    between atoms: N_5  and  C_6 
REMARK    2  A    between atoms: C_6  and  C_7 
REMARK       I    between atoms: C_7  and  N_8 
REMARK    3  A    between atoms: N_8  and  C_9 
REMARK    4  A    between atoms: N_19  and  C_20 
REMARK    5  A    between atoms: C_20  and  C_21 
REMARK    6  A    between atoms: C_24  and  C_25 
REMARK       I    between atoms: C_25  and  N_26 
REMARK    7  A    between atoms: N_26  and  C_27 
REMARK    8  A    between atoms: C_27  and  C_28 
ROOT
HETATM    1  C   UNL     1      15.987  49.235  43.721  1.00  0.00     0.001 A 
HETATM    2  C   UNL     1      16.721  50.048  44.578  1.00  0.00     0.019 A 
HETATM    3  C   UNL     1      17.103  49.572  45.842  1.00  0.00     0.059 A 
HETATM    4  C   UNL     1      16.766  48.286  46.263  1.00  0.00     0.055 A 
HETATM    5  N   UNL     1      17.172  47.848  47.554  1.00  0.00    -0.290 N 
HETATM    6  C   UNL     1      17.815  48.691  48.450  1.00  0.00     0.332 C 
HETATM    7  O   UNL     1      17.978  48.347  49.623  1.00  0.00    -0.246 OA
HETATM    8  N   UNL     1      18.206  49.934  47.983  1.00  0.00    -0.261 N 
HETATM    9  C   UNL     1      17.882  50.444  46.734  1.00  0.00     0.264 C 
HETATM   10  O   UNL     1      18.196  51.569  46.349  1.00  0.00    -0.267 OA
HETATM   11  C   UNL     1      16.021  47.480  45.388  1.00  0.00     0.031 A 
HETATM   12  C   UNL     1      15.636  47.952  44.127  1.00  0.00     0.002 A 
ENDROOT
BRANCH   8  13
HETATM   13  C   UNL     1      18.984  50.784  48.876  1.00  0.00     0.175 C 
BRANCH  13  14
HETATM   14  C   UNL     1      20.461  50.442  48.844  1.00  0.00    -0.040 A 
HETATM   15  C   UNL     1      21.412  51.400  48.463  1.00  0.00     0.010 A 
HETATM   16  C   UNL     1      22.778  51.087  48.431  1.00  0.00     0.017 A 
HETATM   17  C   UNL     1      23.218  49.807  48.783  1.00  0.00     0.032 A 
HETATM   18  C   UNL     1      22.265  48.849  49.163  1.00  0.00     0.017 A 
HETATM   19  C   UNL     1      20.902  49.159  49.188  1.00  0.00     0.010 A 
BRANCH  17  20
HETATM   20  C   UNL     1      24.655  49.389  48.778  1.00  0.00     0.251 C 
HETATM   21  N   UNL     1      25.003  48.254  49.479  1.00  0.00    -0.353 N 
HETATM   22  H   UNL     1      24.309  47.654  49.894  1.00  0.00     0.163 HD
HETATM   23  O   UNL     1      25.481  50.064  48.172  1.00  0.00    -0.268 OA
BRANCH  21  24
HETATM   24  C   UNL     1      26.375  47.790  49.511  1.00  0.00     0.161 C 
BRANCH  24  25
HETATM   25  C   UNL     1      26.556  46.572  50.387  1.00  0.00    -0.038 A 
HETATM   26  C   UNL     1      26.182  46.632  51.741  1.00  0.00     0.048 A 
HETATM   27  C   UNL     1      26.283  45.484  52.501  1.00  0.00     0.105 A 
HETATM   28  C   UNL     1      26.736  44.301  51.971  1.00  0.00     0.105 A 
HETATM   29  O   UNL     1      25.948  45.369  53.814  1.00  0.00    -0.323 OA
HETATM   30  O   UNL     1      26.747  43.293  52.883  1.00  0.00    -0.323 OA
HETATM   31  C   UNL     1      27.108  44.195  50.650  1.00  0.00     0.040 A 
HETATM   32  C   UNL     1      26.213  43.969  54.040  1.00  0.00     0.352 A 
HETATM   33  C   UNL     1      27.001  45.340  49.851  1.00  0.00     0.012 A 
ENDBRANCH  24  25
ENDBRANCH  21  24
ENDBRANCH  17  20
ENDBRANCH  13  14
ENDBRANCH   8  13
BRANCH   5  34
HETATM   34  C   UNL     1      16.947  46.455  47.966  1.00  0.00     0.237 C 
BRANCH  34  35
HETATM   35  C   UNL     1      18.128  45.505  47.735  1.00  0.00     0.240 C 
HETATM   36  N   UNL     1      19.346  46.006  48.160  1.00  0.00    -0.326 N 
HETATM   37  H   UNL     1      19.322  46.917  48.603  1.00  0.00     0.169 HD
HETATM   38  O   UNL     1      17.954  44.455  47.121  1.00  0.00    -0.271 OA
BRANCH  36  39
HETATM   39  C   UNL     1      20.620  45.421  48.005  1.00  0.00     0.036 A 
HETATM   40  C   UNL     1      21.332  44.806  49.037  1.00  0.00     0.053 A 
HETATM   41  C   UNL     1      22.580  44.231  48.781  1.00  0.00     0.036 A 
HETATM   42 CL   UNL     1      23.440  43.452  50.054  1.00  0.00    -0.084 Cl
HETATM   43  C   UNL     1      23.136  44.272  47.504  1.00  0.00     0.024 A 
HETATM   44  C   UNL     1      22.437  44.890  46.472  1.00  0.00     0.004 A 
HETATM   45  C   UNL     1      21.183  45.457  46.721  1.00  0.00     0.029 A 
ENDBRANCH  36  39
ENDBRANCH  34  35
ENDBRANCH   5  34
TORSDOF 8
ENDMDL
MODEL 7
REMARK VINA RESULT:      -9.2      9.700     14.640
REMARK  8 active torsions:
REMARK  status: ('A' for Active; 'I' for Inactive)
REMARK    1  A    between atoms: N_5  and  C_6 
REMARK    2  A    between atoms: C_6  and  C_7 
REMARK       I    between atoms: C_7  and  N_8 
REMARK    3  A    between atoms: N_8  and  C_9 
REMARK    4  A    between atoms: N_19  and  C_20 
REMARK    5  A    between atoms: C_20  and  C_21 
REMARK    6  A    between atoms: C_24  and  C_25 
REMARK       I    between atoms: C_25  and  N_26 
REMARK    7  A    between atoms: N_26  and  C_27 
REMARK    8  A    between atoms: C_27  and  C_28 
ROOT
HETATM    1  C   UNL     1      28.795  53.711  38.880  1.00  0.00     0.001 A 
HETATM    2  C   UNL     1      29.444  53.487  40.090  1.00  0.00     0.019 A 
HETATM    3  C   UNL     1      29.945  52.210  40.392  1.00  0.00     0.059 A 
HETATM    4  C   UNL     1      29.812  51.150  39.497  1.00  0.00     0.055 A 
HETATM    5  N   UNL     1      30.332  49.874  39.847  1.00  0.00    -0.290 N 
HETATM    6  C   UNL     1      30.888  49.622  41.094  1.00  0.00     0.332 C 
HETATM    7  O   UNL     1      31.150  48.467  41.438  1.00  0.00    -0.246 OA
HETATM    8  N   UNL     1      31.078  50.705  41.935  1.00  0.00    -0.261 N 
HETATM    9  C   UNL     1      30.631  51.993  41.675  1.00  0.00     0.264 C 
HETATM   10  O   UNL     1      30.765  52.935  42.452  1.00  0.00    -0.267 OA
HETATM   11  C   UNL     1      29.150  51.392  38.282  1.00  0.00     0.031 A 
HETATM   12  C   UNL     1      28.648  52.664  37.978  1.00  0.00     0.002 A 
ENDROOT
BRANCH   8  13
HETATM   13  C   UNL     1      31.767  50.473  43.199  1.00  0.00     0.175 C 
BRANCH  13  14
HETATM   14  C   UNL     1      33.185  51.010  43.181  1.00  0.00    -0.040 A 
HETATM   15  C   UNL     1      33.634  51.886  44.179  1.00  0.00     0.010 A 
HETATM   16  C   UNL     1      34.945  52.385  44.166  1.00  0.00     0.017 A 
HETATM   17  C   UNL     1      35.832  52.012  43.151  1.00  0.00     0.032 A 
HETATM   18  C   UNL     1      35.381  51.136  42.151  1.00  0.00     0.017 A 
HETATM   19  C   UNL     1      34.072  50.645  42.162  1.00  0.00     0.010 A 
BRANCH  17  20
HETATM   20  C   UNL     1      37.245  52.496  43.060  1.00  0.00     0.251 C 
HETATM   21  N   UNL     1      38.213  51.807  43.759  1.00  0.00    -0.353 N 
HETATM   22  H   UNL     1      38.010  50.940  44.230  1.00  0.00     0.163 HD
HETATM   23  O   UNL     1      37.504  53.489  42.388  1.00  0.00    -0.268 OA
BRANCH  21  24
HETATM   24  C   UNL     1      39.601  52.218  43.711  1.00  0.00     0.161 C 
BRANCH  24  25
HETATM   25  C   UNL     1      40.086  52.780  45.028  1.00  0.00    -0.038 A 
HETATM   26  C   UNL     1      39.194  52.873  46.111  1.00  0.00     0.048 A 
HETATM   27  C   UNL     1      39.681  53.315  47.324  1.00  0.00     0.105 A 
HETATM   28  C   UNL     1      40.998  53.664  47.494  1.00  0.00     0.105 A 
HETATM   29  O   UNL     1      38.958  53.445  48.469  1.00  0.00    -0.323 OA
HETATM   30  O   UNL     1      41.272  54.061  48.766  1.00  0.00    -0.323 OA
HETATM   31  C   UNL     1      41.907  53.584  46.463  1.00  0.00     0.040 A 
HETATM   32  C   UNL     1      39.981  53.885  49.386  1.00  0.00     0.352 A 
HETATM   33  C   UNL     1      41.445  53.124  45.224  1.00  0.00     0.012 A 
ENDBRANCH  24  25
ENDBRANCH  21  24
ENDBRANCH  17  20
ENDBRANCH  13  14
ENDBRANCH   8  13
BRANCH   5  34
HETATM   34  C   UNL     1      30.325  48.778  38.867  1.00  0.00     0.237 C 
BRANCH  34  35
HETATM   35  C   UNL     1      29.128  47.825  38.962  1.00  0.00     0.240 C 
HETATM   36  N   UNL     1      28.333  48.026  40.075  1.00  0.00    -0.326 N 
HETATM   37  H   UNL     1      28.602  48.793  40.681  1.00  0.00     0.169 HD
HETATM   38  O   UNL     1      29.010  46.914  38.145  1.00  0.00    -0.271 OA
BRANCH  36  39
HETATM   39  C   UNL     1      27.224  47.261  40.492  1.00  0.00     0.036 A 
HETATM   40  C   UNL     1      27.308  45.947  40.959  1.00  0.00     0.053 A 
HETATM   41  C   UNL     1      26.154  45.277  41.375  1.00  0.00     0.036 A 
HETATM   42 CL   UNL     1      26.271  43.666  41.973  1.00  0.00    -0.084 Cl
HETATM   43  C   UNL     1      24.909  45.898  41.320  1.00  0.00     0.024 A 
HETATM   44  C   UNL     1      24.815  47.204  40.848  1.00  0.00     0.004 A 
HETATM   45  C   UNL     1      25.967  47.883  40.442  1.00  0.00     0.029 A 
ENDBRANCH  36  39
ENDBRANCH  34  35
ENDBRANCH   5  34
TORSDOF 8
ENDMDL
MODEL 8
REMARK VINA RESULT:      -9.0      8.914     14.124
REMARK  8 active torsions:
REMARK  status: ('A' for Active; 'I' for Inactive)
REMARK    1  A    between atoms: N_5  and  C_6 
REMARK    2  A    between atoms: C_6  and  C_7 
REMARK       I    between atoms: C_7  and  N_8 
REMARK    3  A    between atoms: N_8  and  C_9 
REMARK    4  A    between atoms: N_19  and  C_20 
REMARK    5  A    between atoms: C_20  and  C_21 
REMARK    6  A    between atoms: C_24  and  C_25 
REMARK       I    between atoms: C_25  and  N_26 
REMARK    7  A    between atoms: N_26  and  C_27 
REMARK    8  A    between atoms: C_27  and  C_28 
ROOT
HETATM    1  C   UNL     1      17.697  45.677  44.231  1.00  0.00     0.001 A 
HETATM    2  C   UNL     1      17.956  47.025  44.458  1.00  0.00     0.019 A 
HETATM    3  C   UNL     1      18.652  47.421  45.612  1.00  0.00     0.059 A 
HETATM    4  C   UNL     1      19.100  46.486  46.543  1.00  0.00     0.055 A 
HETATM    5  N   UNL     1      19.798  46.934  47.698  1.00  0.00    -0.290 N 
HETATM    6  C   UNL     1      19.968  48.282  47.980  1.00  0.00     0.332 C 
HETATM    7  O   UNL     1      20.401  48.641  49.077  1.00  0.00    -0.246 OA
HETATM    8  N   UNL     1      19.584  49.187  47.005  1.00  0.00    -0.261 N 
HETATM    9  C   UNL     1      18.920  48.850  45.834  1.00  0.00     0.264 C 
HETATM   10  O   UNL     1      18.542  49.669  44.999  1.00  0.00    -0.267 OA
HETATM   11  C   UNL     1      18.827  45.130  46.301  1.00  0.00     0.031 A 
HETATM   12  C   UNL     1      18.131  44.732  45.153  1.00  0.00     0.002 A 
ENDROOT
BRANCH   8  13
HETATM   13  C   UNL     1      19.864  50.600  47.238  1.00  0.00     0.175 C 
BRANCH  13  14
HETATM   14  C   UNL     1      18.698  51.310  47.898  1.00  0.00    -0.040 A 
HETATM   15  C   UNL     1      18.798  51.784  49.213  1.00  0.00     0.010 A 
HETATM   16  C   UNL     1      17.722  52.441  49.828  1.00  0.00     0.017 A 
HETATM   17  C   UNL     1      16.525  52.638  49.131  1.00  0.00     0.032 A 
HETATM   18  C   UNL     1      16.426  52.162  47.815  1.00  0.00     0.017 A 
HETATM   19  C   UNL     1      17.497  51.500  47.206  1.00  0.00     0.010 A 
BRANCH  17  20
HETATM   20  C   UNL     1      15.329  53.328  49.708  1.00  0.00     0.251 C 
HETATM   21  N   UNL     1      15.097  54.638  49.346  1.00  0.00    -0.353 N 
HETATM   22  H   UNL     1      15.642  55.093  48.632  1.00  0.00     0.163 HD
HETATM   23  O   UNL     1      14.602  52.726  50.492  1.00  0.00    -0.268 OA
BRANCH  21  24
HETATM   24  C   UNL     1      13.955  55.363  49.863  1.00  0.00     0.161 C 
BRANCH  24  25
HETATM   25  C   UNL     1      14.337  56.357  50.936  1.00  0.00    -0.038 A 
HETATM   26  C   UNL     1      14.942  55.899  52.119  1.00  0.00     0.048 A 
HETATM   27  C   UNL     1      15.353  56.833  53.049  1.00  0.00     0.105 A 
HETATM   28  C   UNL     1      15.184  58.181  52.847  1.00  0.00     0.105 A 
HETATM   29  O   UNL     1      15.968  56.560  54.231  1.00  0.00    -0.323 OA
HETATM   30  O   UNL     1      15.666  58.927  53.877  1.00  0.00    -0.323 OA
HETATM   31  C   UNL     1      14.600  58.673  51.701  1.00  0.00     0.040 A 
HETATM   32  C   UNL     1      16.194  57.893  54.734  1.00  0.00     0.352 A 
HETATM   33  C   UNL     1      14.187  57.750  50.733  1.00  0.00     0.012 A 
ENDBRANCH  24  25
ENDBRANCH  21  24
ENDBRANCH  17  20
ENDBRANCH  13  14
ENDBRANCH   8  13
BRANCH   5  34
HETATM   34  C   UNL     1      20.398  45.961  48.624  1.00  0.00     0.237 C 
BRANCH  34  35
HETATM   35  C   UNL     1      21.923  45.828  48.535  1.00  0.00     0.240 C 
HETATM   36  N   UNL     1      22.612  46.639  49.419  1.00  0.00    -0.326 N 
HETATM   37  H   UNL     1      22.044  47.200  50.043  1.00  0.00     0.169 HD
HETATM   38  O   UNL     1      22.422  45.127  47.658  1.00  0.00    -0.271 OA
BRANCH  36  39
HETATM   39  C   UNL     1      24.008  46.816  49.518  1.00  0.00     0.036 A 
HETATM   40  C   UNL     1      24.915  45.780  49.753  1.00  0.00     0.053 A 
HETATM   41  C   UNL     1      26.285  46.049  49.811  1.00  0.00     0.036 A 
HETATM   42 CL   UNL     1      27.398  44.762  50.076  1.00  0.00    -0.084 Cl
HETATM   43  C   UNL     1      26.765  47.346  49.648  1.00  0.00     0.024 A 
HETATM   44  C   UNL     1      25.868  48.385  49.420  1.00  0.00     0.004 A 
HETATM   45  C   UNL     1      24.497  48.120  49.351  1.00  0.00     0.029 A 
ENDBRANCH  36  39
ENDBRANCH  34  35
ENDBRANCH   5  34
TORSDOF 8
ENDMDL
MODEL 9
REMARK VINA RESULT:      -9.0      5.824      8.025
REMARK  8 active torsions:
REMARK  status: ('A' for Active; 'I' for Inactive)
REMARK    1  A    between atoms: N_5  and  C_6 
REMARK    2  A    between atoms: C_6  and  C_7 
REMARK       I    between atoms: C_7  and  N_8 
REMARK    3  A    between atoms: N_8  and  C_9 
REMARK    4  A    between atoms: N_19  and  C_20 
REMARK    5  A    between atoms: C_20  and  C_21 
REMARK    6  A    between atoms: C_24  and  C_25 
REMARK       I    between atoms: C_25  and  N_26 
REMARK    7  A    between atoms: N_26  and  C_27 
REMARK    8  A    between atoms: C_27  and  C_28 
ROOT
HETATM    1  C   UNL     1      25.801  45.419  54.162  1.00  0.00     0.001 A 
HETATM    2  C   UNL     1      25.259  44.541  53.229  1.00  0.00     0.019 A 
HETATM    3  C   UNL     1      24.977  44.986  51.927  1.00  0.00     0.059 A 
HETATM    4  C   UNL     1      25.237  46.299  51.540  1.00  0.00     0.055 A 
HETATM    5  N   UNL     1      24.933  46.707  50.212  1.00  0.00    -0.290 N 
HETATM    6  C   UNL     1      24.298  45.864  49.310  1.00  0.00     0.332 C 
HETATM    7  O   UNL     1      23.873  46.303  48.239  1.00  0.00    -0.246 OA
HETATM    8  N   UNL     1      24.120  44.545  49.692  1.00  0.00    -0.261 N 
HETATM    9  C   UNL     1      24.407  44.044  50.953  1.00  0.00     0.264 C 
HETATM   10  O   UNL     1      24.200  42.881  51.293  1.00  0.00    -0.267 OA
HETATM   11  C   UNL     1      25.781  47.174  52.495  1.00  0.00     0.031 A 
HETATM   12  C   UNL     1      26.060  46.734  53.795  1.00  0.00     0.002 A 
ENDROOT
BRANCH   8  13
HETATM   13  C   UNL     1      23.561  43.621  48.711  1.00  0.00     0.175 C 
BRANCH  13  14
HETATM   14  C   UNL     1      22.192  44.062  48.231  1.00  0.00    -0.040 A 
HETATM   15  C   UNL     1      21.820  43.913  46.887  1.00  0.00     0.010 A 
HETATM   16  C   UNL     1      20.555  44.319  46.438  1.00  0.00     0.017 A 
HETATM   17  C   UNL     1      19.637  44.882  47.331  1.00  0.00     0.032 A 
HETATM   18  C   UNL     1      20.011  45.033  48.676  1.00  0.00     0.017 A 
HETATM   19  C   UNL     1      21.275  44.633  49.120  1.00  0.00     0.010 A 
BRANCH  17  20
HETATM   20  C   UNL     1      18.268  45.343  46.939  1.00  0.00     0.251 C 
HETATM   21  N   UNL     1      18.151  46.173  45.844  1.00  0.00    -0.353 N 
HETATM   22  H   UNL     1      18.939  46.381  45.252  1.00  0.00     0.163 HD
HETATM   23  O   UNL     1      17.297  44.990  47.600  1.00  0.00    -0.268 OA
BRANCH  21  24
HETATM   24  C   UNL     1      16.856  46.651  45.407  1.00  0.00     0.161 C 
BRANCH  24  25
HETATM   25  C   UNL     1      16.507  48.000  45.993  1.00  0.00    -0.038 A 
HETATM   26  C   UNL     1      16.795  49.166  45.263  1.00  0.00     0.048 A 
HETATM   27  C   UNL     1      16.396  50.381  45.784  1.00  0.00     0.105 A 
HETATM   28  C   UNL     1      15.734  50.473  46.985  1.00  0.00     0.105 A 
HETATM   29  O   UNL     1      16.580  51.595  45.199  1.00  0.00    -0.323 OA
HETATM   30  O   UNL     1      15.422  51.756  47.309  1.00  0.00    -0.323 OA
HETATM   31  C   UNL     1      15.429  49.357  47.730  1.00  0.00     0.040 A 
HETATM   32  C   UNL     1      15.930  52.457  46.155  1.00  0.00     0.352 A 
HETATM   33  C   UNL     1      15.807  48.110  47.219  1.00  0.00     0.012 A 
ENDBRANCH  24  25
ENDBRANCH  21  24
ENDBRANCH  17  20
ENDBRANCH  13  14
ENDBRANCH   8  13
BRANCH   5  34
HETATM   34  C   UNL     1      25.322  48.044  49.741  1.00  0.00     0.237 C 
BRANCH  34  35
HETATM   35  C   UNL     1      24.203  48.853  49.074  1.00  0.00     0.240 C 
HETATM   36  N   UNL     1      22.941  48.591  49.576  1.00  0.00    -0.326 N 
HETATM   37  H   UNL     1      22.896  47.928  50.342  1.00  0.00     0.169 HD
HETATM   38  O   UNL     1      24.462  49.570  48.111  1.00  0.00    -0.271 OA
BRANCH  36  39
HETATM   39  C   UNL     1      21.708  49.097  49.116  1.00  0.00     0.036 A 
HETATM   40  C   UNL     1      21.052  50.195  49.678  1.00  0.00     0.053 A 
HETATM   41  C   UNL     1      19.843  50.640  49.136  1.00  0.00     0.036 A 
HETATM   42 CL   UNL     1      19.053  52.010  49.819  1.00  0.00    -0.084 Cl
HETATM   43  C   UNL     1      19.269  49.994  48.044  1.00  0.00     0.024 A 
HETATM   44  C   UNL     1      19.912  48.894  47.483  1.00  0.00     0.004 A 
HETATM   45  C   UNL     1      21.127  48.452  48.014  1.00  0.00     0.029 A 
ENDBRANCH  36  39
ENDBRANCH  34  35
ENDBRANCH   5  34
TORSDOF 8
ENDMDL
MODEL 10
REMARK VINA RESULT:      -9.0     19.898     23.799
REMARK  8 active torsions:
REMARK  status: ('A' for Active; 'I' for Inactive)
REMARK    1  A    between atoms: N_5  and  C_6 
REMARK    2  A    between atoms: C_6  and  C_7 
REMARK       I    between atoms: C_7  and  N_8 
REMARK    3  A    between atoms: N_8  and  C_9 
REMARK    4  A    between atoms: N_19  and  C_20 
REMARK    5  A    between atoms: C_20  and  C_21 
REMARK    6  A    between atoms: C_24  and  C_25 
REMARK       I    between atoms: C_25  and  N_26 
REMARK    7  A    between atoms: N_26  and  C_27 
REMARK    8  A    between atoms: C_27  and  C_28 
ROOT
HETATM    1  C   UNL     1      36.034  47.677  67.263  1.00  0.00     0.001 A 
HETATM    2  C   UNL     1      35.771  46.570  66.463  1.00  0.00     0.019 A 
HETATM    3  C   UNL     1      36.783  46.036  65.648  1.00  0.00     0.059 A 
HETATM    4  C   UNL     1      38.062  46.590  65.626  1.00  0.00     0.055 A 
HETATM    5  N   UNL     1      39.054  46.018  64.783  1.00  0.00    -0.290 N 
HETATM    6  C   UNL     1      38.767  44.979  63.908  1.00  0.00     0.332 C 
HETATM    7  O   UNL     1      39.589  44.636  63.055  1.00  0.00    -0.246 OA
HETATM    8  N   UNL     1      37.514  44.396  64.003  1.00  0.00    -0.261 N 
HETATM    9  C   UNL     1      36.488  44.863  64.811  1.00  0.00     0.264 C 
HETATM   10  O   UNL     1      35.365  44.365  64.851  1.00  0.00    -0.267 OA
HETATM   11  C   UNL     1      38.310  47.710  66.436  1.00  0.00     0.031 A 
HETATM   12  C   UNL     1      37.302  48.247  67.248  1.00  0.00     0.002 A 
ENDROOT
BRANCH   8  13
HETATM   13  C   UNL     1      37.241  43.230  63.172  1.00  0.00     0.175 C 
BRANCH  13  14
HETATM   14  C   UNL     1      38.055  42.024  63.598  1.00  0.00    -0.040 A 
HETATM   15  C   UNL     1      37.998  41.548  64.915  1.00  0.00     0.010 A 
HETATM   16  C   UNL     1      38.750  40.433  65.314  1.00  0.00     0.017 A 
HETATM   17  C   UNL     1      39.573  39.773  64.395  1.00  0.00     0.032 A 
HETATM   18  C   UNL     1      39.630  40.251  63.077  1.00  0.00     0.017 A 
HETATM   19  C   UNL     1      38.885  41.366  62.683  1.00  0.00     0.010 A 
BRANCH  17  20
HETATM   20  C   UNL     1      40.408  38.577  64.733  1.00  0.00     0.251 C 
HETATM   21  N   UNL     1      40.656  38.314  66.064  1.00  0.00    -0.353 N 
HETATM   22  H   UNL     1      40.205  38.835  66.799  1.00  0.00     0.163 HD
HETATM   23  O   UNL     1      40.860  37.878  63.832  1.00  0.00    -0.268 OA
BRANCH  21  24
HETATM   24  C   UNL     1      41.452  37.171  66.461  1.00  0.00     0.161 C 
BRANCH  24  25
HETATM   25  C   UNL     1      40.607  35.958  66.779  1.00  0.00    -0.038 A 
HETATM   26  C   UNL     1      39.720  36.000  67.869  1.00  0.00     0.048 A 
HETATM   27  C   UNL     1      38.903  34.909  68.091  1.00  0.00     0.105 A 
HETATM   28  C   UNL     1      38.940  33.799  67.283  1.00  0.00     0.105 A 
HETATM   29  O   UNL     1      37.982  34.797  69.085  1.00  0.00    -0.323 OA
HETATM   30  O   UNL     1      38.050  32.846  67.668  1.00  0.00    -0.323 OA
HETATM   31  C   UNL     1      39.790  33.718  66.203  1.00  0.00     0.040 A 
HETATM   32  C   UNL     1      37.421  33.501  68.789  1.00  0.00     0.352 A 
HETATM   33  C   UNL     1      40.619  34.816  65.944  1.00  0.00     0.012 A 
ENDBRANCH  24  25
ENDBRANCH  21  24
ENDBRANCH  17  20
ENDBRANCH  13  14
ENDBRANCH   8  13
BRANCH   5  34
HETATM   34  C   UNL     1      40.442  46.498  64.843  1.00  0.00     0.237 C 
BRANCH  34  35
HETATM   35  C   UNL     1      41.402  45.624  65.659  1.00  0.00     0.240 C 
HETATM   36  N   UNL     1      41.930  44.558  64.955  1.00  0.00    -0.326 N 
HETATM   37  H   UNL     1      41.658  44.489  63.981  1.00  0.00     0.169 HD
HETATM   38  O   UNL     1      41.555  45.845  66.858  1.00  0.00    -0.271 OA
BRANCH  36  39
HETATM   39  C   UNL     1      42.761  43.528  65.444  1.00  0.00     0.036 A 
HETATM   40  C   UNL     1      44.131  43.668  65.675  1.00  0.00     0.053 A 
HETATM   41  C   UNL     1      44.869  42.597  66.186  1.00  0.00     0.036 A 
HETATM   42 CL   UNL     1      46.553  42.787  66.491  1.00  0.00    -0.084 Cl
HETATM   43  C   UNL     1      44.258  41.376  66.459  1.00  0.00     0.024 A 
HETATM   44  C   UNL     1      42.894  41.225  66.225  1.00  0.00     0.004 A 
HETATM   45  C   UNL     1      42.150  42.297  65.724  1.00  0.00     0.029 A 
ENDBRANCH  36  39
ENDBRANCH  34  35
ENDBRANCH   5  34
TORSDOF 8
ENDMDL
