MODEL 1
REMARK VINA RESULT:      -9.8      0.000      0.000
REMARK  6 active torsions:
REMARK  status: ('A' for Active; 'I' for Inactive)
REMARK    1  A    between atoms: C_2  and  O_3 
REMARK    2  A    between atoms: O_3  and  C_4 
REMARK    3  A    between atoms: C_5  and  N_6 
REMARK    4  A    between atoms: N_6  and  C_7 
REMARK    5  A    between atoms: C_8  and  C_9 
REMARK    6  A    between atoms: C_12  and  C_13 
ROOT
HETATM    1  C   UNL     1      24.206  42.746  50.672  1.00  0.00     0.087 C 
HETATM    2  C   UNL     1      23.957  44.053  50.480  1.00  0.00     0.077 C 
HETATM    3  C   UNL     1      22.817  44.502  49.581  1.00  0.00     0.023 C 
HETATM    4  N   UNL     1      21.871  44.875  48.835  1.00  0.00    -0.096 N 
ENDROOT
BRANCH   2   5
HETATM    5  C   UNL     1      24.774  45.062  51.097  1.00  0.00     0.118 A 
HETATM    6  S   UNL     1      24.941  46.621  50.336  1.00  0.00    -0.078 SA
HETATM    7  C   UNL     1      25.920  47.162  51.621  1.00  0.00     0.084 A 
HETATM    8  C   UNL     1      26.090  46.158  52.548  1.00  0.00     0.081 A 
HETATM    9  N   UNL     1      25.411  44.978  52.256  1.00  0.00    -0.239 NA
BRANCH   8  10
HETATM   10  C   UNL     1      26.842  46.245  53.774  1.00  0.00     0.070 A 
HETATM   11  C   UNL     1      26.495  47.298  54.785  1.00  0.00     0.301 A 
HETATM   12  O   UNL     1      25.618  48.139  54.602  1.00  0.00    -0.259 OA
HETATM   13  O   UNL     1      27.208  47.300  55.981  1.00  0.00    -0.274 OA
HETATM   14  C   UNL     1      28.259  46.404  56.223  1.00  0.00     0.089 A 
HETATM   15  C   UNL     1      28.614  45.460  55.269  1.00  0.00     0.000 A 
HETATM   16  C   UNL     1      28.925  46.507  57.442  1.00  0.00     0.039 A 
HETATM   17  C   UNL     1      29.672  44.590  55.540  1.00  0.00     0.033 A 
HETATM   18  C   UNL     1      27.862  45.403  54.029  1.00  0.00     0.034 A 
HETATM   19  C   UNL     1      30.348  44.684  56.759  1.00  0.00     0.012 A 
HETATM   20  C   UNL     1      29.979  45.637  57.712  1.00  0.00     0.022 A 
HETATM   21 BR   UNL     1      31.780  43.505  57.125  1.00  0.00    -0.051 Br
ENDBRANCH   8  10
ENDBRANCH   2   5
BRANCH   1  22
HETATM   22  N   UNL     1      25.281  42.149  51.307  1.00  0.00    -0.266 NA
HETATM   23  H   UNL     1      25.016  41.725  52.205  1.00  0.00     0.133 HD
BRANCH  22  24
HETATM   24  C   UNL     1      26.186  41.241  50.688  1.00  0.00     0.045 A 
HETATM   25  C   UNL     1      27.488  41.102  51.221  1.00  0.00     0.090 A 
HETATM   26  C   UNL     1      28.373  40.161  50.684  1.00  0.00     0.038 A 
HETATM   27  C   UNL     1      27.986  39.376  49.599  1.00  0.00     0.003 A 
HETATM   28  C   UNL     1      26.717  39.529  49.045  1.00  0.00     0.002 A 
HETATM   29  C   UNL     1      25.825  40.461  49.580  1.00  0.00     0.026 A 
BRANCH  25  30
HETATM   30  O   UNL     1      27.802  41.893  52.303  1.00  0.00    -0.350 OA
BRANCH  30  31
HETATM   31  C   UNL     1      28.948  41.463  53.045  1.00  0.00     0.171 C 
HETATM   32  C   UNL     1      30.027  42.524  52.919  1.00  0.00     0.034 C 
ENDBRANCH  30  31
ENDBRANCH  25  30
ENDBRANCH  22  24
ENDBRANCH   1  22
TORSDOF 6
ENDMDL
MODEL 2
REMARK VINA RESULT:      -9.6      2.834      5.637
REMARK  6 active torsions:
REMARK  status: ('A' for Active; 'I' for Inactive)
REMARK    1  A    between atoms: C_2  and  O_3 
REMARK    2  A    between atoms: O_3  and  C_4 
REMARK    3  A    between atoms: C_5  and  N_6 
REMARK    4  A    between atoms: N_6  and  C_7 
REMARK    5  A    between atoms: C_8  and  C_9 
REMARK    6  A    between atoms: C_12  and  C_13 
ROOT
HETATM    1  C   UNL     1      23.549  46.139  49.207  1.00  0.00     0.087 C 
HETATM    2  C   UNL     1      23.884  44.840  49.288  1.00  0.00     0.077 C 
HETATM    3  C   UNL     1      23.064  43.781  48.571  1.00  0.00     0.023 C 
HETATM    4  N   UNL     1      22.383  42.901  47.977  1.00  0.00    -0.096 N 
ENDROOT
BRANCH   2   5
HETATM    5  C   UNL     1      25.009  44.412  50.073  1.00  0.00     0.118 A 
HETATM    6  S   UNL     1      25.972  43.061  49.537  1.00  0.00    -0.078 SA
HETATM    7  C   UNL     1      27.012  43.250  50.874  1.00  0.00     0.084 A 
HETATM    8  C   UNL     1      26.589  44.295  51.664  1.00  0.00     0.081 A 
HETATM    9  N   UNL     1      25.468  44.968  51.185  1.00  0.00    -0.239 NA
BRANCH   8  10
HETATM   10  C   UNL     1      27.221  44.764  52.871  1.00  0.00     0.070 A 
HETATM   11  C   UNL     1      26.721  46.014  53.534  1.00  0.00     0.301 A 
HETATM   12  O   UNL     1      25.816  46.702  53.070  1.00  0.00    -0.259 OA
HETATM   13  O   UNL     1      27.322  46.389  54.733  1.00  0.00    -0.274 OA
HETATM   14  C   UNL     1      28.399  45.678  55.281  1.00  0.00     0.089 A 
HETATM   15  C   UNL     1      28.894  44.549  54.645  1.00  0.00     0.000 A 
HETATM   16  C   UNL     1      28.945  46.153  56.472  1.00  0.00     0.039 A 
HETATM   17  C   UNL     1      29.973  43.870  55.215  1.00  0.00     0.033 A 
HETATM   18  C   UNL     1      28.262  44.105  53.415  1.00  0.00     0.034 A 
HETATM   19  C   UNL     1      30.530  44.337  56.408  1.00  0.00     0.012 A 
HETATM   20  C   UNL     1      30.020  45.474  57.041  1.00  0.00     0.022 A 
HETATM   21 BR   UNL     1      31.991  43.417  57.179  1.00  0.00    -0.051 Br
ENDBRANCH   8  10
ENDBRANCH   2   5
BRANCH   1  22
HETATM   22  N   UNL     1      24.062  47.215  49.911  1.00  0.00    -0.266 NA
HETATM   23  H   UNL     1      24.329  46.960  50.871  1.00  0.00     0.133 HD
BRANCH  22  24
HETATM   24  C   UNL     1      25.081  48.086  49.431  1.00  0.00     0.045 A 
HETATM   25  C   UNL     1      24.722  49.149  48.571  1.00  0.00     0.090 A 
HETATM   26  C   UNL     1      25.688  50.068  48.146  1.00  0.00     0.038 A 
HETATM   27  C   UNL     1      27.017  49.922  48.544  1.00  0.00     0.003 A 
HETATM   28  C   UNL     1      27.386  48.858  49.363  1.00  0.00     0.002 A 
HETATM   29  C   UNL     1      26.426  47.940  49.798  1.00  0.00     0.026 A 
BRANCH  25  30
HETATM   30  O   UNL     1      23.393  49.250  48.230  1.00  0.00    -0.350 OA
BRANCH  30  31
HETATM   31  C   UNL     1      22.875  50.584  48.227  1.00  0.00     0.171 C 
HETATM   32  C   UNL     1      22.135  50.815  49.533  1.00  0.00     0.034 C 
ENDBRANCH  30  31
ENDBRANCH  25  30
ENDBRANCH  22  24
ENDBRANCH   1  22
TORSDOF 6
ENDMDL
MODEL 3
REMARK VINA RESULT:      -9.4      3.691      7.803
REMARK  6 active torsions:
REMARK  status: ('A' for Active; 'I' for Inactive)
REMARK    1  A    between atoms: C_2  and  O_3 
REMARK    2  A    between atoms: O_3  and  C_4 
REMARK    3  A    between atoms: C_5  and  N_6 
REMARK    4  A    between atoms: N_6  and  C_7 
REMARK    5  A    between atoms: C_8  and  C_9 
REMARK    6  A    between atoms: C_12  and  C_13 
ROOT
HETATM    1  C   UNL     1      29.711  42.871  53.533  1.00  0.00     0.087 C 
HETATM    2  C   UNL     1      28.612  42.411  52.911  1.00  0.00     0.077 C 
HETATM    3  C   UNL     1      28.639  41.089  52.162  1.00  0.00     0.023 C 
HETATM    4  N   UNL     1      28.662  39.993  51.540  1.00  0.00    -0.096 N 
ENDROOT
BRANCH   2   5
HETATM    5  C   UNL     1      27.387  43.164  52.914  1.00  0.00     0.118 A 
HETATM    6  S   UNL     1      26.641  43.593  54.429  1.00  0.00    -0.078 SA
HETATM    7  C   UNL     1      25.407  44.431  53.604  1.00  0.00     0.084 A 
HETATM    8  C   UNL     1      25.598  44.343  52.243  1.00  0.00     0.081 A 
HETATM    9  N   UNL     1      26.741  43.645  51.861  1.00  0.00    -0.239 NA
BRANCH   8  10
HETATM   10  C   UNL     1      24.769  44.935  51.225  1.00  0.00     0.070 A 
HETATM   11  C   UNL     1      23.728  44.102  50.536  1.00  0.00     0.301 A 
HETATM   12  O   UNL     1      23.572  42.904  50.762  1.00  0.00    -0.259 OA
HETATM   13  O   UNL     1      22.910  44.736  49.606  1.00  0.00    -0.274 OA
HETATM   14  C   UNL     1      23.079  46.085  49.262  1.00  0.00     0.089 A 
HETATM   15  C   UNL     1      24.072  46.846  49.862  1.00  0.00     0.000 A 
HETATM   16  C   UNL     1      22.223  46.617  48.300  1.00  0.00     0.039 A 
HETATM   17  C   UNL     1      24.219  48.183  49.489  1.00  0.00     0.033 A 
HETATM   18  C   UNL     1      24.915  46.225  50.868  1.00  0.00     0.034 A 
HETATM   19  C   UNL     1      23.366  48.727  48.525  1.00  0.00     0.012 A 
HETATM   20  C   UNL     1      22.368  47.952  47.930  1.00  0.00     0.022 A 
HETATM   21 BR   UNL     1      23.565  50.539  48.020  1.00  0.00    -0.051 Br
ENDBRANCH   8  10
ENDBRANCH   2   5
BRANCH   1  22
HETATM   22  N   UNL     1      29.927  44.108  54.114  1.00  0.00    -0.266 NA
HETATM   23  H   UNL     1      29.142  44.754  53.958  1.00  0.00     0.133 HD
BRANCH  22  24
HETATM   24  C   UNL     1      30.347  44.309  55.460  1.00  0.00     0.045 A 
HETATM   25  C   UNL     1      29.971  45.500  56.123  1.00  0.00     0.090 A 
HETATM   26  C   UNL     1      30.301  45.691  57.470  1.00  0.00     0.038 A 
HETATM   27  C   UNL     1      31.029  44.720  58.156  1.00  0.00     0.003 A 
HETATM   28  C   UNL     1      31.433  43.559  57.502  1.00  0.00     0.002 A 
HETATM   29  C   UNL     1      31.101  43.357  56.160  1.00  0.00     0.026 A 
BRANCH  25  30
HETATM   30  O   UNL     1      29.239  46.410  55.396  1.00  0.00    -0.350 OA
BRANCH  30  31
HETATM   31  C   UNL     1      28.006  46.808  56.004  1.00  0.00     0.171 C 
HETATM   32  C   UNL     1      27.170  47.534  54.964  1.00  0.00     0.034 C 
ENDBRANCH  30  31
ENDBRANCH  25  30
ENDBRANCH  22  24
ENDBRANCH   1  22
TORSDOF 6
ENDMDL
MODEL 4
REMARK VINA RESULT:      -9.4      3.357      6.439
REMARK  6 active torsions:
REMARK  status: ('A' for Active; 'I' for Inactive)
REMARK    1  A    between atoms: C_2  and  O_3 
REMARK    2  A    between atoms: O_3  and  C_4 
REMARK    3  A    between atoms: C_5  and  N_6 
REMARK    4  A    between atoms: N_6  and  C_7 
REMARK    5  A    between atoms: C_8  and  C_9 
REMARK    6  A    between atoms: C_12  and  C_13 
ROOT
HETATM    1  C   UNL     1      23.759  48.541  49.187  1.00  0.00     0.087 C 
HETATM    2  C   UNL     1      25.009  48.308  49.623  1.00  0.00     0.077 C 
HETATM    3  C   UNL     1      26.194  49.034  49.008  1.00  0.00     0.023 C 
HETATM    4  N   UNL     1      27.177  49.637  48.498  1.00  0.00    -0.096 N 
ENDROOT
BRANCH   2   5
HETATM    5  C   UNL     1      25.266  47.351  50.664  1.00  0.00     0.118 A 
HETATM    6  S   UNL     1      24.631  45.734  50.526  1.00  0.00    -0.078 SA
HETATM    7  C   UNL     1      25.373  45.298  51.996  1.00  0.00     0.084 A 
HETATM    8  C   UNL     1      26.046  46.375  52.529  1.00  0.00     0.081 A 
HETATM    9  N   UNL     1      26.003  47.529  51.751  1.00  0.00    -0.239 NA
BRANCH   8  10
HETATM   10  C   UNL     1      26.804  46.387  53.755  1.00  0.00     0.070 A 
HETATM   11  C   UNL     1      26.483  47.399  54.816  1.00  0.00     0.301 A 
HETATM   12  O   UNL     1      25.625  48.267  54.677  1.00  0.00    -0.259 OA
HETATM   13  O   UNL     1      27.200  47.328  56.008  1.00  0.00    -0.274 OA
HETATM   14  C   UNL     1      28.231  46.399  56.203  1.00  0.00     0.089 A 
HETATM   15  C   UNL     1      28.562  45.493  55.204  1.00  0.00     0.000 A 
HETATM   16  C   UNL     1      28.904  46.429  57.423  1.00  0.00     0.039 A 
HETATM   17  C   UNL     1      29.600  44.587  55.429  1.00  0.00     0.033 A 
HETATM   18  C   UNL     1      27.804  45.511  53.966  1.00  0.00     0.034 A 
HETATM   19  C   UNL     1      30.282  44.608  56.648  1.00  0.00     0.012 A 
HETATM   20  C   UNL     1      29.938  45.523  57.647  1.00  0.00     0.022 A 
HETATM   21 BR   UNL     1      31.689  43.382  56.953  1.00  0.00    -0.051 Br
ENDBRANCH   8  10
ENDBRANCH   2   5
BRANCH   1  22
HETATM   22  N   UNL     1      22.590  47.869  49.499  1.00  0.00    -0.266 NA
HETATM   23  H   UNL     1      22.121  48.266  50.323  1.00  0.00     0.133 HD
BRANCH  22  24
HETATM   24  C   UNL     1      21.561  47.557  48.565  1.00  0.00     0.045 A 
HETATM   25  C   UNL     1      20.297  48.173  48.711  1.00  0.00     0.090 A 
HETATM   26  C   UNL     1      19.291  47.949  47.765  1.00  0.00     0.038 A 
HETATM   27  C   UNL     1      19.520  47.091  46.690  1.00  0.00     0.003 A 
HETATM   28  C   UNL     1      20.750  46.453  46.557  1.00  0.00     0.002 A 
HETATM   29  C   UNL     1      21.763  46.677  47.493  1.00  0.00     0.026 A 
BRANCH  25  30
HETATM   30  O   UNL     1      20.141  49.023  49.782  1.00  0.00    -0.350 OA
BRANCH  30  31
HETATM   31  C   UNL     1      19.622  50.315  49.450  1.00  0.00     0.171 C 
HETATM   32  C   UNL     1      20.761  51.168  48.918  1.00  0.00     0.034 C 
ENDBRANCH  30  31
ENDBRANCH  25  30
ENDBRANCH  22  24
ENDBRANCH   1  22
TORSDOF 6
ENDMDL
MODEL 5
REMARK VINA RESULT:      -9.3      3.908      7.339
REMARK  6 active torsions:
REMARK  status: ('A' for Active; 'I' for Inactive)
REMARK    1  A    between atoms: C_2  and  O_3 
REMARK    2  A    between atoms: O_3  and  C_4 
REMARK    3  A    between atoms: C_5  and  N_6 
REMARK    4  A    between atoms: N_6  and  C_7 
REMARK    5  A    between atoms: C_8  and  C_9 
REMARK    6  A    between atoms: C_12  and  C_13 
ROOT
HETATM    1  C   UNL     1      27.920  42.107  52.901  1.00  0.00     0.087 C 
HETATM    2  C   UNL     1      27.548  41.779  51.652  1.00  0.00     0.077 C 
HETATM    3  C   UNL     1      28.127  40.552  50.967  1.00  0.00     0.023 C 
HETATM    4  N   UNL     1      28.607  39.534  50.399  1.00  0.00    -0.096 N 
ENDROOT
BRANCH   2   5
HETATM    5  C   UNL     1      26.614  42.589  50.918  1.00  0.00     0.118 A 
HETATM    6  S   UNL     1      25.200  41.852  50.213  1.00  0.00    -0.078 SA
HETATM    7  C   UNL     1      24.673  43.370  49.644  1.00  0.00     0.084 A 
HETATM    8  C   UNL     1      25.576  44.350  49.991  1.00  0.00     0.081 A 
HETATM    9  N   UNL     1      26.661  43.901  50.740  1.00  0.00    -0.239 NA
BRANCH   8  10
HETATM   10  C   UNL     1      25.465  45.756  49.696  1.00  0.00     0.070 A 
HETATM   11  C   UNL     1      26.698  46.545  49.369  1.00  0.00     0.301 A 
HETATM   12  O   UNL     1      27.827  46.062  49.385  1.00  0.00    -0.259 OA
HETATM   13  O   UNL     1      26.531  47.885  49.028  1.00  0.00    -0.274 OA
HETATM   14  C   UNL     1      25.275  48.509  49.050  1.00  0.00     0.089 A 
HETATM   15  C   UNL     1      24.139  47.792  49.399  1.00  0.00     0.000 A 
HETATM   16  C   UNL     1      25.221  49.860  48.717  1.00  0.00     0.039 A 
HETATM   17  C   UNL     1      22.906  48.447  49.419  1.00  0.00     0.033 A 
HETATM   18  C   UNL     1      24.273  46.382  49.718  1.00  0.00     0.034 A 
HETATM   19  C   UNL     1      22.840  49.802  49.087  1.00  0.00     0.012 A 
HETATM   20  C   UNL     1      23.991  50.512  48.735  1.00  0.00     0.022 A 
HETATM   21 BR   UNL     1      21.169  50.689  49.114  1.00  0.00    -0.051 Br
ENDBRANCH   8  10
ENDBRANCH   2   5
BRANCH   1  22
HETATM   22  N   UNL     1      27.638  43.257  53.618  1.00  0.00    -0.266 NA
HETATM   23  H   UNL     1      26.759  43.181  54.147  1.00  0.00     0.133 HD
BRANCH  22  24
HETATM   24  C   UNL     1      28.560  43.926  54.473  1.00  0.00     0.045 A 
HETATM   25  C   UNL     1      28.183  45.157  55.055  1.00  0.00     0.090 A 
HETATM   26  C   UNL     1      29.036  45.799  55.961  1.00  0.00     0.038 A 
HETATM   27  C   UNL     1      30.276  45.241  56.270  1.00  0.00     0.003 A 
HETATM   28  C   UNL     1      30.670  44.045  55.675  1.00  0.00     0.002 A 
HETATM   29  C   UNL     1      29.822  43.395  54.776  1.00  0.00     0.026 A 
BRANCH  25  30
HETATM   30  O   UNL     1      26.940  45.646  54.724  1.00  0.00    -0.350 OA
BRANCH  30  31
HETATM   31  C   UNL     1      26.946  46.957  54.152  1.00  0.00     0.171 C 
HETATM   32  C   UNL     1      25.818  47.044  53.138  1.00  0.00     0.034 C 
ENDBRANCH  30  31
ENDBRANCH  25  30
ENDBRANCH  22  24
ENDBRANCH   1  22
TORSDOF 6
ENDMDL
MODEL 6
REMARK VINA RESULT:      -9.2      3.133      6.043
REMARK  6 active torsions:
REMARK  status: ('A' for Active; 'I' for Inactive)
REMARK    1  A    between atoms: C_2  and  O_3 
REMARK    2  A    between atoms: O_3  and  C_4 
REMARK    3  A    between atoms: C_5  and  N_6 
REMARK    4  A    between atoms: N_6  and  C_7 
REMARK    5  A    between atoms: C_8  and  C_9 
REMARK    6  A    between atoms: C_12  and  C_13 
ROOT
HETATM    1  C   UNL     1      22.647  46.168  48.484  1.00  0.00     0.087 C 
HETATM    2  C   UNL     1      22.943  44.859  48.569  1.00  0.00     0.077 C 
HETATM    3  C   UNL     1      22.288  43.852  47.639  1.00  0.00     0.023 C 
HETATM    4  N   UNL     1      21.744  43.017  46.867  1.00  0.00    -0.096 N 
ENDROOT
BRANCH   2   5
HETATM    5  C   UNL     1      23.867  44.370  49.557  1.00  0.00     0.118 A 
HETATM    6  S   UNL     1      24.231  42.668  49.630  1.00  0.00    -0.078 SA
HETATM    7  C   UNL     1      25.332  42.940  50.902  1.00  0.00     0.084 A 
HETATM    8  C   UNL     1      25.368  44.278  51.223  1.00  0.00     0.081 A 
HETATM    9  N   UNL     1      24.554  45.087  50.434  1.00  0.00    -0.239 NA
BRANCH   8  10
HETATM   10  C   UNL     1      26.189  44.891  52.236  1.00  0.00     0.070 A 
HETATM   11  C   UNL     1      25.974  46.333  52.594  1.00  0.00     0.301 A 
HETATM   12  O   UNL     1      25.153  47.049  52.026  1.00  0.00    -0.259 OA
HETATM   13  O   UNL     1      26.748  46.861  53.624  1.00  0.00    -0.274 OA
HETATM   14  C   UNL     1      27.742  46.112  54.269  1.00  0.00     0.089 A 
HETATM   15  C   UNL     1      27.975  44.792  53.906  1.00  0.00     0.000 A 
HETATM   16  C   UNL     1      28.478  46.743  55.269  1.00  0.00     0.039 A 
HETATM   17  C   UNL     1      28.980  44.078  54.564  1.00  0.00     0.033 A 
HETATM   18  C   UNL     1      27.156  44.198  52.866  1.00  0.00     0.034 A 
HETATM   19  C   UNL     1      29.724  44.701  55.568  1.00  0.00     0.012 A 
HETATM   20  C   UNL     1      29.478  46.029  55.926  1.00  0.00     0.022 A 
HETATM   21 BR   UNL     1      31.084  43.733  56.457  1.00  0.00    -0.051 Br
ENDBRANCH   8  10
ENDBRANCH   2   5
BRANCH   1  22
HETATM   22  N   UNL     1      23.005  47.198  49.336  1.00  0.00    -0.266 NA
HETATM   23  H   UNL     1      24.000  47.161  49.595  1.00  0.00     0.133 HD
BRANCH  22  24
HETATM   24  C   UNL     1      22.700  48.571  49.120  1.00  0.00     0.045 A 
HETATM   25  C   UNL     1      23.756  49.472  48.852  1.00  0.00     0.090 A 
HETATM   26  C   UNL     1      23.481  50.812  48.557  1.00  0.00     0.038 A 
HETATM   27  C   UNL     1      22.166  51.273  48.557  1.00  0.00     0.003 A 
HETATM   28  C   UNL     1      21.121  50.401  48.854  1.00  0.00     0.002 A 
HETATM   29  C   UNL     1      21.386  49.060  49.142  1.00  0.00     0.026 A 
BRANCH  25  30
HETATM   30  O   UNL     1      25.030  48.951  48.849  1.00  0.00    -0.350 OA
BRANCH  30  31
HETATM   31  C   UNL     1      25.996  49.737  48.143  1.00  0.00     0.171 C 
HETATM   32  C   UNL     1      27.320  49.646  48.880  1.00  0.00     0.034 C 
ENDBRANCH  30  31
ENDBRANCH  25  30
ENDBRANCH  22  24
ENDBRANCH   1  22
TORSDOF 6
ENDMDL
MODEL 7
REMARK VINA RESULT:      -9.1      3.424      6.606
REMARK  6 active torsions:
REMARK  status: ('A' for Active; 'I' for Inactive)
REMARK    1  A    between atoms: C_2  and  O_3 
REMARK    2  A    between atoms: O_3  and  C_4 
REMARK    3  A    between atoms: C_5  and  N_6 
REMARK    4  A    between atoms: N_6  and  C_7 
REMARK    5  A    between atoms: C_8  and  C_9 
REMARK    6  A    between atoms: C_12  and  C_13 
ROOT
HETATM    1  C   UNL     1      22.392  46.134  48.011  1.00  0.00     0.087 C 
HETATM    2  C   UNL     1      23.019  44.948  48.097  1.00  0.00     0.077 C 
HETATM    3  C   UNL     1      23.066  44.006  46.905  1.00  0.00     0.023 C 
HETATM    4  N   UNL     1      23.106  43.225  45.917  1.00  0.00    -0.096 N 
ENDROOT
BRANCH   2   5
HETATM    5  C   UNL     1      23.641  44.524  49.322  1.00  0.00     0.118 A 
HETATM    6  S   UNL     1      23.397  42.897  49.896  1.00  0.00    -0.078 SA
HETATM    7  C   UNL     1      24.422  43.194  51.225  1.00  0.00     0.084 A 
HETATM    8  C   UNL     1      24.885  44.490  51.190  1.00  0.00     0.081 A 
HETATM    9  N   UNL     1      24.460  45.229  50.090  1.00  0.00    -0.239 NA
BRANCH   8  10
HETATM   10  C   UNL     1      25.783  45.101  52.137  1.00  0.00     0.070 A 
HETATM   11  C   UNL     1      25.660  46.567  52.437  1.00  0.00     0.301 A 
HETATM   12  O   UNL     1      24.852  47.300  51.873  1.00  0.00    -0.259 OA
HETATM   13  O   UNL     1      26.507  47.097  53.406  1.00  0.00    -0.274 OA
HETATM   14  C   UNL     1      27.490  46.323  54.040  1.00  0.00     0.089 A 
HETATM   15  C   UNL     1      27.637  44.979  53.730  1.00  0.00     0.000 A 
HETATM   16  C   UNL     1      28.303  46.957  54.977  1.00  0.00     0.039 A 
HETATM   17  C   UNL     1      28.633  44.241  54.374  1.00  0.00     0.033 A 
HETATM   18  C   UNL     1      26.741  44.385  52.754  1.00  0.00     0.034 A 
HETATM   19  C   UNL     1      29.454  44.866  55.315  1.00  0.00     0.012 A 
HETATM   20  C   UNL     1      29.294  46.220  55.622  1.00  0.00     0.022 A 
HETATM   21 BR   UNL     1      30.802  43.866  56.187  1.00  0.00    -0.051 Br
ENDBRANCH   8  10
ENDBRANCH   2   5
BRANCH   1  22
HETATM   22  N   UNL     1      22.101  47.039  49.017  1.00  0.00    -0.266 NA
HETATM   23  H   UNL     1      22.404  46.704  49.941  1.00  0.00     0.133 HD
BRANCH  22  24
HETATM   24  C   UNL     1      22.415  48.427  48.974  1.00  0.00     0.045 A 
HETATM   25  C   UNL     1      21.387  49.368  49.213  1.00  0.00     0.090 A 
HETATM   26  C   UNL     1      21.680  50.735  49.255  1.00  0.00     0.038 A 
HETATM   27  C   UNL     1      22.982  51.180  49.029  1.00  0.00     0.003 A 
HETATM   28  C   UNL     1      23.994  50.263  48.759  1.00  0.00     0.002 A 
HETATM   29  C   UNL     1      23.712  48.895  48.723  1.00  0.00     0.026 A 
BRANCH  25  30
HETATM   30  O   UNL     1      20.128  48.864  49.446  1.00  0.00    -0.350 OA
BRANCH  30  31
HETATM   31  C   UNL     1      19.345  49.620  50.376  1.00  0.00     0.171 C 
HETATM   32  C   UNL     1      18.599  48.650  51.276  1.00  0.00     0.034 C 
ENDBRANCH  30  31
ENDBRANCH  25  30
ENDBRANCH  22  24
ENDBRANCH   1  22
TORSDOF 6
ENDMDL
MODEL 8
REMARK VINA RESULT:      -9.0      3.465      6.599
REMARK  6 active torsions:
REMARK  status: ('A' for Active; 'I' for Inactive)
REMARK    1  A    between atoms: C_2  and  O_3 
REMARK    2  A    between atoms: O_3  and  C_4 
REMARK    3  A    between atoms: C_5  and  N_6 
REMARK    4  A    between atoms: N_6  and  C_7 
REMARK    5  A    between atoms: C_8  and  C_9 
REMARK    6  A    between atoms: C_12  and  C_13 
ROOT
HETATM    1  C   UNL     1      23.501  48.528  49.069  1.00  0.00     0.087 C 
HETATM    2  C   UNL     1      24.764  48.310  49.471  1.00  0.00     0.077 C 
HETATM    3  C   UNL     1      25.923  49.056  48.830  1.00  0.00     0.023 C 
HETATM    4  N   UNL     1      26.884  49.675  48.299  1.00  0.00    -0.096 N 
ENDROOT
BRANCH   2   5
HETATM    5  C   UNL     1      25.061  47.349  50.499  1.00  0.00     0.118 A 
HETATM    6  S   UNL     1      24.484  45.713  50.343  1.00  0.00    -0.078 SA
HETATM    7  C   UNL     1      25.250  45.285  51.804  1.00  0.00     0.084 A 
HETATM    8  C   UNL     1      25.885  46.379  52.347  1.00  0.00     0.081 A 
HETATM    9  N   UNL     1      25.797  47.540  51.584  1.00  0.00    -0.239 NA
BRANCH   8  10
HETATM   10  C   UNL     1      26.649  46.403  53.569  1.00  0.00     0.070 A 
HETATM   11  C   UNL     1      26.323  47.415  54.628  1.00  0.00     0.301 A 
HETATM   12  O   UNL     1      25.456  48.274  54.490  1.00  0.00    -0.259 OA
HETATM   13  O   UNL     1      27.047  47.357  55.816  1.00  0.00    -0.274 OA
HETATM   14  C   UNL     1      28.088  46.438  56.010  1.00  0.00     0.089 A 
HETATM   15  C   UNL     1      28.423  45.532  55.013  1.00  0.00     0.000 A 
HETATM   16  C   UNL     1      28.766  46.479  57.226  1.00  0.00     0.039 A 
HETATM   17  C   UNL     1      29.472  44.638  55.237  1.00  0.00     0.033 A 
HETATM   18  C   UNL     1      27.660  45.539  53.778  1.00  0.00     0.034 A 
HETATM   19  C   UNL     1      30.159  44.670  56.452  1.00  0.00     0.012 A 
HETATM   20  C   UNL     1      29.811  45.585  57.449  1.00  0.00     0.022 A 
HETATM   21 BR   UNL     1      31.579  43.459  56.754  1.00  0.00    -0.051 Br
ENDBRANCH   8  10
ENDBRANCH   2   5
BRANCH   1  22
HETATM   22  N   UNL     1      22.349  47.838  49.406  1.00  0.00    -0.266 NA
HETATM   23  H   UNL     1      22.375  47.486  50.372  1.00  0.00     0.133 HD
BRANCH  22  24
HETATM   24  C   UNL     1      21.025  48.316  49.191  1.00  0.00     0.045 A 
HETATM   25  C   UNL     1      20.037  47.413  48.739  1.00  0.00     0.090 A 
HETATM   26  C   UNL     1      18.710  47.834  48.594  1.00  0.00     0.038 A 
HETATM   27  C   UNL     1      18.363  49.156  48.865  1.00  0.00     0.003 A 
HETATM   28  C   UNL     1      19.336  50.062  49.279  1.00  0.00     0.002 A 
HETATM   29  C   UNL     1      20.661  49.648  49.434  1.00  0.00     0.026 A 
BRANCH  25  30
HETATM   30  O   UNL     1      20.441  46.118  48.505  1.00  0.00    -0.350 OA
BRANCH  30  31
HETATM   31  C   UNL     1      20.155  45.630  47.191  1.00  0.00     0.171 C 
HETATM   32  C   UNL     1      21.294  46.031  46.271  1.00  0.00     0.034 C 
ENDBRANCH  30  31
ENDBRANCH  25  30
ENDBRANCH  22  24
ENDBRANCH   1  22
TORSDOF 6
ENDMDL
MODEL 9
REMARK VINA RESULT:      -8.7      3.484      6.816
REMARK  6 active torsions:
REMARK  status: ('A' for Active; 'I' for Inactive)
REMARK    1  A    between atoms: C_2  and  O_3 
REMARK    2  A    between atoms: O_3  and  C_4 
REMARK    3  A    between atoms: C_5  and  N_6 
REMARK    4  A    between atoms: N_6  and  C_7 
REMARK    5  A    between atoms: C_8  and  C_9 
REMARK    6  A    between atoms: C_12  and  C_13 
ROOT
HETATM    1  C   UNL     1      23.994  48.312  49.377  1.00  0.00     0.087 C 
HETATM    2  C   UNL     1      25.233  47.887  49.678  1.00  0.00     0.077 C 
HETATM    3  C   UNL     1      26.454  48.672  49.227  1.00  0.00     0.023 C 
HETATM    4  N   UNL     1      27.467  49.323  48.853  1.00  0.00    -0.096 N 
ENDROOT
BRANCH   2   5
HETATM    5  C   UNL     1      25.442  46.668  50.411  1.00  0.00     0.118 A 
HETATM    6  S   UNL     1      24.299  45.362  50.258  1.00  0.00    -0.078 SA
HETATM    7  C   UNL     1      25.239  44.395  51.300  1.00  0.00     0.084 A 
HETATM    8  C   UNL     1      26.349  45.090  51.724  1.00  0.00     0.081 A 
HETATM    9  N   UNL     1      26.472  46.371  51.191  1.00  0.00    -0.239 NA
BRANCH   8  10
HETATM   10  C   UNL     1      27.381  44.598  52.601  1.00  0.00     0.070 A 
HETATM   11  C   UNL     1      28.110  43.333  52.253  1.00  0.00     0.301 A 
HETATM   12  O   UNL     1      27.838  42.652  51.267  1.00  0.00    -0.259 OA
HETATM   13  O   UNL     1      29.143  42.934  53.098  1.00  0.00    -0.274 OA
HETATM   14  C   UNL     1      29.460  43.636  54.269  1.00  0.00     0.089 A 
HETATM   15  C   UNL     1      28.756  44.779  54.618  1.00  0.00     0.000 A 
HETATM   16  C   UNL     1      30.495  43.137  55.058  1.00  0.00     0.039 A 
HETATM   17  C   UNL     1      29.093  45.448  55.796  1.00  0.00     0.033 A 
HETATM   18  C   UNL     1      27.702  45.247  53.736  1.00  0.00     0.034 A 
HETATM   19  C   UNL     1      30.128  44.958  56.596  1.00  0.00     0.012 A 
HETATM   20  C   UNL     1      30.832  43.806  56.232  1.00  0.00     0.022 A 
HETATM   21 BR   UNL     1      30.585  45.864  58.192  1.00  0.00    -0.051 Br
ENDBRANCH   8  10
ENDBRANCH   2   5
BRANCH   1  22
HETATM   22  N   UNL     1      22.785  47.660  49.550  1.00  0.00    -0.266 NA
HETATM   23  H   UNL     1      22.308  47.947  50.415  1.00  0.00     0.133 HD
BRANCH  22  24
HETATM   24  C   UNL     1      21.774  47.552  48.554  1.00  0.00     0.045 A 
HETATM   25  C   UNL     1      20.699  48.469  48.568  1.00  0.00     0.090 A 
HETATM   26  C   UNL     1      19.732  48.438  47.557  1.00  0.00     0.038 A 
HETATM   27  C   UNL     1      19.806  47.480  46.547  1.00  0.00     0.003 A 
HETATM   28  C   UNL     1      20.842  46.550  46.543  1.00  0.00     0.002 A 
HETATM   29  C   UNL     1      21.816  46.579  47.545  1.00  0.00     0.026 A 
BRANCH  25  30
HETATM   30  O   UNL     1      20.692  49.401  49.581  1.00  0.00    -0.350 OA
BRANCH  30  31
HETATM   31  C   UNL     1      20.973  50.741  49.164  1.00  0.00     0.171 C 
HETATM   32  C   UNL     1      19.729  51.584  49.386  1.00  0.00     0.034 C 
ENDBRANCH  30  31
ENDBRANCH  25  30
ENDBRANCH  22  24
ENDBRANCH   1  22
TORSDOF 6
ENDMDL
MODEL 10
REMARK VINA RESULT:      -8.5      3.879      7.742
REMARK  6 active torsions:
REMARK  status: ('A' for Active; 'I' for Inactive)
REMARK    1  A    between atoms: C_2  and  O_3 
REMARK    2  A    between atoms: O_3  and  C_4 
REMARK    3  A    between atoms: C_5  and  N_6 
REMARK    4  A    between atoms: N_6  and  C_7 
REMARK    5  A    between atoms: C_8  and  C_9 
REMARK    6  A    between atoms: C_12  and  C_13 
ROOT
HETATM    1  C   UNL     1      28.767  41.145  52.875  1.00  0.00     0.087 C 
HETATM    2  C   UNL     1      28.668  40.549  51.674  1.00  0.00     0.077 C 
HETATM    3  C   UNL     1      29.346  39.215  51.412  1.00  0.00     0.023 C 
HETATM    4  N   UNL     1      29.909  38.108  51.194  1.00  0.00    -0.096 N 
ENDROOT
BRANCH   2   5
HETATM    5  C   UNL     1      27.943  41.166  50.597  1.00  0.00     0.118 A 
HETATM    6  S   UNL     1      28.024  40.479  48.997  1.00  0.00    -0.078 SA
HETATM    7  C   UNL     1      26.947  41.664  48.415  1.00  0.00     0.084 A 
HETATM    8  C   UNL     1      26.588  42.523  49.430  1.00  0.00     0.081 A 
HETATM    9  N   UNL     1      27.136  42.214  50.672  1.00  0.00    -0.239 NA
BRANCH   8  10
HETATM   10  C   UNL     1      25.685  43.640  49.324  1.00  0.00     0.070 A 
HETATM   11  C   UNL     1      26.202  45.035  49.526  1.00  0.00     0.301 A 
HETATM   12  O   UNL     1      27.366  45.280  49.831  1.00  0.00    -0.259 OA
HETATM   13  O   UNL     1      25.304  46.084  49.349  1.00  0.00    -0.274 OA
HETATM   14  C   UNL     1      23.950  45.865  49.059  1.00  0.00     0.089 A 
HETATM   15  C   UNL     1      23.459  44.575  48.919  1.00  0.00     0.000 A 
HETATM   16  C   UNL     1      23.130  46.984  48.927  1.00  0.00     0.039 A 
HETATM   17  C   UNL     1      22.103  44.393  48.639  1.00  0.00     0.033 A 
HETATM   18  C   UNL     1      24.378  43.459  49.054  1.00  0.00     0.034 A 
HETATM   19  C   UNL     1      21.271  45.508  48.505  1.00  0.00     0.012 A 
HETATM   20  C   UNL     1      21.778  46.803  48.645  1.00  0.00     0.022 A 
HETATM   21 BR   UNL     1      19.435  45.261  48.126  1.00  0.00    -0.051 Br
ENDBRANCH   8  10
ENDBRANCH   2   5
BRANCH   1  22
HETATM   22  N   UNL     1      28.369  42.417  53.250  1.00  0.00    -0.266 NA
HETATM   23  H   UNL     1      27.381  42.448  53.534  1.00  0.00     0.133 HD
BRANCH  22  24
HETATM   24  C   UNL     1      29.073  43.249  54.166  1.00  0.00     0.045 A 
HETATM   25  C   UNL     1      28.651  44.587  54.337  1.00  0.00     0.090 A 
HETATM   26  C   UNL     1      29.272  45.406  55.287  1.00  0.00     0.038 A 
HETATM   27  C   UNL     1      30.333  44.915  56.047  1.00  0.00     0.003 A 
HETATM   28  C   UNL     1      30.778  43.609  55.861  1.00  0.00     0.002 A 
HETATM   29  C   UNL     1      30.158  42.783  54.921  1.00  0.00     0.026 A 
BRANCH  25  30
HETATM   30  O   UNL     1      27.588  45.005  53.570  1.00  0.00    -0.350 OA
BRANCH  30  31
HETATM   31  C   UNL     1      26.326  45.006  54.245  1.00  0.00     0.171 C 
HETATM   32  C   UNL     1      25.273  44.458  53.297  1.00  0.00     0.034 C 
ENDBRANCH  30  31
ENDBRANCH  25  30
ENDBRANCH  22  24
ENDBRANCH   1  22
TORSDOF 6
ENDMDL
