MODEL 1
REMARK VINA RESULT:      -9.5      0.000      0.000
REMARK  2 active torsions:
REMARK  status: ('A' for Active; 'I' for Inactive)
REMARK       I    between atoms: C_2  and  N_3 
REMARK    1  A    between atoms: N_3  and  C_4 
REMARK    2  A    between atoms: C_11  and  N_12 
REMARK       I    between atoms: N_12  and  C_13 
ROOT
HETATM    1  C   UNL     1      25.008  45.833  50.706  1.00  0.00     0.035 A 
HETATM    2  C   UNL     1      25.304  46.110  52.042  1.00  0.00     0.038 A 
HETATM    3  C   UNL     1      26.398  45.482  52.623  1.00  0.00    -0.041 A 
HETATM    4  C   UNL     1      27.207  44.581  51.902  1.00  0.00    -0.019 A 
HETATM    5  C   UNL     1      28.254  44.097  52.774  1.00  0.00    -0.019 A 
HETATM    6  C   UNL     1      28.101  44.691  54.043  1.00  0.00    -0.041 A 
HETATM    7  C   UNL     1      28.966  44.414  55.096  1.00  0.00     0.038 A 
HETATM    8  C   UNL     1      30.013  43.517  54.883  1.00  0.00     0.035 A 
HETATM    9  C   UNL     1      30.167  42.933  53.602  1.00  0.00     0.030 A 
HETATM   10  C   UNL     1      29.290  43.215  52.545  1.00  0.00     0.015 A 
HETATM   11  C   UNL     1      26.905  45.626  54.043  1.00  0.00     0.079 A 
HETATM   12  C   UNL     1      26.924  44.299  50.579  1.00  0.00     0.015 A 
HETATM   13  C   UNL     1      25.822  44.929  49.986  1.00  0.00     0.030 A 
ENDROOT
BRANCH   1  14
HETATM   14  N   UNL     1      23.923  46.406  50.008  1.00  0.00    -0.328 N 
HETATM   15  C   UNL     1      23.784  47.721  49.602  1.00  0.00     0.218 C 
HETATM   16  C   UNL     1      22.480  47.968  48.881  1.00  0.00     0.117 C 
HETATM   17  O   UNL     1      24.594  48.628  49.749  1.00  0.00    -0.274 OA
HETATM   18  H   UNL     1      23.167  45.775  49.777  1.00  0.00     0.169 HD
ENDBRANCH   1  14
BRANCH   8  19
HETATM   19  N   UNL     1      30.971  43.137  55.841  1.00  0.00    -0.328 N 
HETATM   20  C   UNL     1      31.401  43.659  57.022  1.00  0.00     0.218 C 
HETATM   21  C   UNL     1      30.774  44.878  57.629  1.00  0.00     0.117 C 
HETATM   22  O   UNL     1      32.327  43.084  57.604  1.00  0.00    -0.274 OA
HETATM   23  H   UNL     1      31.478  42.281  55.642  1.00  0.00     0.169 HD
ENDBRANCH   8  19
TORSDOF 2
ENDMDL
MODEL 2
REMARK VINA RESULT:      -8.8      1.148      7.979
REMARK  2 active torsions:
REMARK  status: ('A' for Active; 'I' for Inactive)
REMARK       I    between atoms: C_2  and  N_3 
REMARK    1  A    between atoms: N_3  and  C_4 
REMARK    2  A    between atoms: C_11  and  N_12 
REMARK       I    between atoms: N_12  and  C_13 
ROOT
HETATM    1  C   UNL     1      29.443  43.582  54.415  1.00  0.00     0.035 A 
HETATM    2  C   UNL     1      28.430  44.519  54.629  1.00  0.00     0.038 A 
HETATM    3  C   UNL     1      27.590  44.839  53.572  1.00  0.00    -0.041 A 
HETATM    4  C   UNL     1      27.733  44.246  52.302  1.00  0.00    -0.019 A 
HETATM    5  C   UNL     1      26.719  44.782  51.420  1.00  0.00    -0.019 A 
HETATM    6  C   UNL     1      25.940  45.713  52.136  1.00  0.00    -0.041 A 
HETATM    7  C   UNL     1      24.882  46.396  51.547  1.00  0.00     0.038 A 
HETATM    8  C   UNL     1      24.591  46.150  50.205  1.00  0.00     0.035 A 
HETATM    9  C   UNL     1      25.372  45.204  49.497  1.00  0.00     0.030 A 
HETATM   10  C   UNL     1      26.438  44.520  50.096  1.00  0.00     0.015 A 
HETATM   11  C   UNL     1      26.433  45.818  53.568  1.00  0.00     0.079 A 
HETATM   12  C   UNL     1      28.732  43.318  52.078  1.00  0.00     0.015 A 
HETATM   13  C   UNL     1      29.585  42.989  53.141  1.00  0.00     0.030 A 
ENDROOT
BRANCH   1  14
HETATM   14  N   UNL     1      30.360  43.179  55.410  1.00  0.00    -0.328 N 
HETATM   15  C   UNL     1      31.001  43.979  56.338  1.00  0.00     0.218 C 
HETATM   16  C   UNL     1      31.918  43.194  57.245  1.00  0.00     0.117 C 
HETATM   17  O   UNL     1      30.867  45.188  56.487  1.00  0.00    -0.274 OA
HETATM   18  H   UNL     1      30.562  42.188  55.446  1.00  0.00     0.169 HD
ENDBRANCH   1  14
BRANCH   8  19
HETATM   19  N   UNL     1      23.555  46.755  49.469  1.00  0.00    -0.328 N 
HETATM   20  C   UNL     1      23.386  47.970  48.880  1.00  0.00     0.218 C 
HETATM   21  C   UNL     1      24.475  48.999  48.848  1.00  0.00     0.117 C 
HETATM   22  O   UNL     1      22.297  48.204  48.344  1.00  0.00    -0.274 OA
HETATM   23  H   UNL     1      22.728  46.186  49.323  1.00  0.00     0.169 HD
ENDBRANCH   8  19
TORSDOF 2
ENDMDL
MODEL 3
REMARK VINA RESULT:      -8.6      2.010      2.809
REMARK  2 active torsions:
REMARK  status: ('A' for Active; 'I' for Inactive)
REMARK       I    between atoms: C_2  and  N_3 
REMARK    1  A    between atoms: N_3  and  C_4 
REMARK    2  A    between atoms: C_11  and  N_12 
REMARK       I    between atoms: N_12  and  C_13 
ROOT
HETATM    1  C   UNL     1      25.109  44.752  50.607  1.00  0.00     0.035 A 
HETATM    2  C   UNL     1      26.094  43.892  51.097  1.00  0.00     0.038 A 
HETATM    3  C   UNL     1      26.816  44.282  52.217  1.00  0.00    -0.041 A 
HETATM    4  C   UNL     1      26.580  45.512  52.863  1.00  0.00    -0.019 A 
HETATM    5  C   UNL     1      27.485  45.628  53.986  1.00  0.00    -0.019 A 
HETATM    6  C   UNL     1      28.291  44.474  54.043  1.00  0.00    -0.041 A 
HETATM    7  C   UNL     1      29.262  44.300  55.023  1.00  0.00     0.038 A 
HETATM    8  C   UNL     1      29.440  45.306  55.973  1.00  0.00     0.035 A 
HETATM    9  C   UNL     1      28.619  46.458  55.914  1.00  0.00     0.030 A 
HETATM   10  C   UNL     1      27.644  46.628  54.923  1.00  0.00     0.015 A 
HETATM   11  C   UNL     1      27.922  43.521  52.920  1.00  0.00     0.079 A 
HETATM   12  C   UNL     1      25.609  46.371  52.387  1.00  0.00     0.015 A 
HETATM   13  C   UNL     1      24.875  45.985  51.257  1.00  0.00     0.030 A 
ENDROOT
BRANCH   1  14
HETATM   14  N   UNL     1      24.314  44.469  49.476  1.00  0.00    -0.328 N 
HETATM   15  C   UNL     1      23.070  43.865  49.452  1.00  0.00     0.218 C 
HETATM   16  C   UNL     1      22.522  43.722  48.052  1.00  0.00     0.117 C 
HETATM   17  O   UNL     1      22.414  43.488  50.416  1.00  0.00    -0.274 OA
HETATM   18  H   UNL     1      24.702  44.748  48.584  1.00  0.00     0.169 HD
ENDBRANCH   1  14
BRANCH   8  19
HETATM   19  N   UNL     1      30.375  45.280  57.025  1.00  0.00    -0.328 N 
HETATM   20  C   UNL     1      31.224  44.342  57.525  1.00  0.00     0.218 C 
HETATM   21  C   UNL     1      31.385  42.994  56.890  1.00  0.00     0.117 C 
HETATM   22  O   UNL     1      31.888  44.639  58.524  1.00  0.00    -0.274 OA
HETATM   23  H   UNL     1      30.464  46.139  57.557  1.00  0.00     0.169 HD
ENDBRANCH   8  19
TORSDOF 2
ENDMDL
MODEL 4
REMARK VINA RESULT:      -8.4      1.969      2.126
REMARK  2 active torsions:
REMARK  status: ('A' for Active; 'I' for Inactive)
REMARK       I    between atoms: C_2  and  N_3 
REMARK    1  A    between atoms: N_3  and  C_4 
REMARK    2  A    between atoms: C_11  and  N_12 
REMARK       I    between atoms: N_12  and  C_13 
ROOT
HETATM    1  C   UNL     1      24.954  44.668  50.592  1.00  0.00     0.035 A 
HETATM    2  C   UNL     1      25.046  45.491  51.717  1.00  0.00     0.038 A 
HETATM    3  C   UNL     1      26.106  45.300  52.593  1.00  0.00    -0.041 A 
HETATM    4  C   UNL     1      27.081  44.306  52.375  1.00  0.00    -0.019 A 
HETATM    5  C   UNL     1      28.044  44.354  53.454  1.00  0.00    -0.019 A 
HETATM    6  C   UNL     1      27.673  45.377  54.349  1.00  0.00    -0.041 A 
HETATM    7  C   UNL     1      28.414  45.662  55.491  1.00  0.00     0.038 A 
HETATM    8  C   UNL     1      29.556  44.904  55.753  1.00  0.00     0.035 A 
HETATM    9  C   UNL     1      29.928  43.887  54.842  1.00  0.00     0.030 A 
HETATM   10  C   UNL     1      29.176  43.603  53.694  1.00  0.00     0.015 A 
HETATM   11  C   UNL     1      26.408  46.064  53.866  1.00  0.00     0.079 A 
HETATM   12  C   UNL     1      27.000  43.485  51.266  1.00  0.00     0.015 A 
HETATM   13  C   UNL     1      25.933  43.672  50.377  1.00  0.00     0.030 A 
ENDROOT
BRANCH   1  14
HETATM   14  N   UNL     1      23.923  44.764  49.634  1.00  0.00    -0.328 N 
HETATM   15  C   UNL     1      22.721  44.080  49.620  1.00  0.00     0.218 C 
HETATM   16  C   UNL     1      21.864  44.439  48.429  1.00  0.00     0.117 C 
HETATM   17  O   UNL     1      22.316  43.282  50.458  1.00  0.00    -0.274 OA
HETATM   18  H   UNL     1      24.086  45.414  48.876  1.00  0.00     0.169 HD
ENDBRANCH   1  14
BRANCH   8  19
HETATM   19  N   UNL     1      30.410  45.070  56.859  1.00  0.00    -0.328 N 
HETATM   20  C   UNL     1      31.248  44.251  57.550  1.00  0.00     0.218 C 
HETATM   21  C   UNL     1      31.497  42.832  57.135  1.00  0.00     0.117 C 
HETATM   22  O   UNL     1      31.827  44.717  58.537  1.00  0.00    -0.274 OA
HETATM   23  H   UNL     1      30.433  46.001  57.262  1.00  0.00     0.169 HD
ENDBRANCH   8  19
TORSDOF 2
ENDMDL
MODEL 5
REMARK VINA RESULT:      -8.1     15.326     16.765
REMARK  2 active torsions:
REMARK  status: ('A' for Active; 'I' for Inactive)
REMARK       I    between atoms: C_2  and  N_3 
REMARK    1  A    between atoms: N_3  and  C_4 
REMARK    2  A    between atoms: C_11  and  N_12 
REMARK       I    between atoms: N_12  and  C_13 
ROOT
HETATM    1  C   UNL     1      38.025  48.836  65.183  1.00  0.00     0.035 A 
HETATM    2  C   UNL     1      39.196  48.083  65.075  1.00  0.00     0.038 A 
HETATM    3  C   UNL     1      39.102  46.772  64.627  1.00  0.00    -0.041 A 
HETATM    4  C   UNL     1      37.866  46.191  64.282  1.00  0.00    -0.019 A 
HETATM    5  C   UNL     1      38.095  44.827  63.858  1.00  0.00    -0.019 A 
HETATM    6  C   UNL     1      39.474  44.551  63.939  1.00  0.00    -0.041 A 
HETATM    7  C   UNL     1      39.999  43.310  63.594  1.00  0.00     0.038 A 
HETATM    8  C   UNL     1      39.127  42.313  63.158  1.00  0.00     0.035 A 
HETATM    9  C   UNL     1      37.744  42.602  63.069  1.00  0.00     0.030 A 
HETATM   10  C   UNL     1      37.221  43.854  63.420  1.00  0.00     0.015 A 
HETATM   11  C   UNL     1      40.225  45.774  64.433  1.00  0.00     0.079 A 
HETATM   12  C   UNL     1      36.700  46.926  64.384  1.00  0.00     0.015 A 
HETATM   13  C   UNL     1      36.787  48.250  64.836  1.00  0.00     0.030 A 
ENDROOT
BRANCH   1  14
HETATM   14  N   UNL     1      37.993  50.174  65.629  1.00  0.00    -0.328 N 
HETATM   15  C   UNL     1      37.641  50.635  66.885  1.00  0.00     0.218 C 
HETATM   16  C   UNL     1      37.722  52.139  66.994  1.00  0.00     0.117 C 
HETATM   17  O   UNL     1      37.319  49.959  67.855  1.00  0.00    -0.274 OA
HETATM   18  H   UNL     1      38.266  50.871  64.948  1.00  0.00     0.169 HD
ENDBRANCH   1  14
BRANCH   8  19
HETATM   19  N   UNL     1      39.501  41.012  62.771  1.00  0.00    -0.328 N 
HETATM   20  C   UNL     1      39.468  39.791  63.370  1.00  0.00     0.218 C 
HETATM   21  C   UNL     1      38.864  39.584  64.726  1.00  0.00     0.117 C 
HETATM   22  O   UNL     1      39.941  38.832  62.751  1.00  0.00    -0.274 OA
HETATM   23  H   UNL     1      39.888  40.925  61.838  1.00  0.00     0.169 HD
ENDBRANCH   8  19
TORSDOF 2
ENDMDL
MODEL 6
REMARK VINA RESULT:      -8.0      7.073     13.039
REMARK  2 active torsions:
REMARK  status: ('A' for Active; 'I' for Inactive)
REMARK       I    between atoms: C_2  and  N_3 
REMARK    1  A    between atoms: N_3  and  C_4 
REMARK    2  A    between atoms: C_11  and  N_12 
REMARK       I    between atoms: N_12  and  C_13 
ROOT
HETATM    1  C   UNL     1      23.499  49.303  48.686  1.00  0.00     0.035 A 
HETATM    2  C   UNL     1      22.853  50.524  48.890  1.00  0.00     0.038 A 
HETATM    3  C   UNL     1      21.532  50.650  48.484  1.00  0.00    -0.041 A 
HETATM    4  C   UNL     1      20.835  49.585  47.879  1.00  0.00    -0.019 A 
HETATM    5  C   UNL     1      19.491  50.024  47.571  1.00  0.00    -0.019 A 
HETATM    6  C   UNL     1      19.345  51.364  47.981  1.00  0.00    -0.041 A 
HETATM    7  C   UNL     1      18.153  52.061  47.814  1.00  0.00     0.038 A 
HETATM    8  C   UNL     1      17.075  51.407  47.217  1.00  0.00     0.035 A 
HETATM    9  C   UNL     1      17.227  50.057  46.819  1.00  0.00     0.030 A 
HETATM   10  C   UNL     1      18.431  49.361  46.989  1.00  0.00     0.015 A 
HETATM   11  C   UNL     1      20.637  51.867  48.601  1.00  0.00     0.079 A 
HETATM   12  C   UNL     1      21.463  48.372  47.672  1.00  0.00     0.015 A 
HETATM   13  C   UNL     1      22.798  48.237  48.079  1.00  0.00     0.030 A 
ENDROOT
BRANCH   1  14
HETATM   14  N   UNL     1      24.840  49.055  49.052  1.00  0.00    -0.328 N 
HETATM   15  C   UNL     1      25.983  49.489  48.405  1.00  0.00     0.218 C 
HETATM   16  C   UNL     1      27.247  49.023  49.087  1.00  0.00     0.117 C 
HETATM   17  O   UNL     1      26.042  50.197  47.406  1.00  0.00    -0.274 OA
HETATM   18  H   UNL     1      24.972  48.500  49.888  1.00  0.00     0.169 HD
ENDBRANCH   1  14
BRANCH   8  19
HETATM   19  N   UNL     1      15.807  51.971  46.981  1.00  0.00    -0.328 N 
HETATM   20  C   UNL     1      15.288  52.786  46.023  1.00  0.00     0.218 C 
HETATM   21  C   UNL     1      16.086  53.228  44.834  1.00  0.00     0.117 C 
HETATM   22  O   UNL     1      14.113  53.147  46.149  1.00  0.00    -0.274 OA
HETATM   23  H   UNL     1      15.089  51.739  47.658  1.00  0.00     0.169 HD
ENDBRANCH   8  19
TORSDOF 2
ENDMDL
MODEL 7
REMARK VINA RESULT:      -7.9      2.274      7.949
REMARK  2 active torsions:
REMARK  status: ('A' for Active; 'I' for Inactive)
REMARK       I    between atoms: C_2  and  N_3 
REMARK    1  A    between atoms: N_3  and  C_4 
REMARK    2  A    between atoms: C_11  and  N_12 
REMARK       I    between atoms: N_12  and  C_13 
ROOT
HETATM    1  C   UNL     1      28.276  45.907  55.614  1.00  0.00     0.035 A 
HETATM    2  C   UNL     1      28.348  44.847  54.708  1.00  0.00     0.038 A 
HETATM    3  C   UNL     1      27.576  44.908  53.555  1.00  0.00    -0.041 A 
HETATM    4  C   UNL     1      26.732  46.002  53.282  1.00  0.00    -0.019 A 
HETATM    5  C   UNL     1      26.065  45.772  52.019  1.00  0.00    -0.019 A 
HETATM    6  C   UNL     1      26.489  44.532  51.501  1.00  0.00    -0.041 A 
HETATM    7  C   UNL     1      26.015  44.039  50.290  1.00  0.00     0.038 A 
HETATM    8  C   UNL     1      25.089  44.799  49.575  1.00  0.00     0.035 A 
HETATM    9  C   UNL     1      24.678  46.049  50.097  1.00  0.00     0.030 A 
HETATM   10  C   UNL     1      25.158  46.540  51.319  1.00  0.00     0.015 A 
HETATM   11  C   UNL     1      27.491  43.886  52.440  1.00  0.00     0.079 A 
HETATM   12  C   UNL     1      26.653  47.057  54.172  1.00  0.00     0.015 A 
HETATM   13  C   UNL     1      27.429  47.003  55.338  1.00  0.00     0.030 A 
ENDROOT
BRANCH   1  14
HETATM   14  N   UNL     1      29.008  45.958  56.820  1.00  0.00    -0.328 N 
HETATM   15  C   UNL     1      30.286  45.480  57.050  1.00  0.00     0.218 C 
HETATM   16  C   UNL     1      30.743  45.709  58.470  1.00  0.00     0.117 C 
HETATM   17  O   UNL     1      31.031  44.946  56.236  1.00  0.00    -0.274 OA
HETATM   18  H   UNL     1      28.541  46.402  57.600  1.00  0.00     0.169 HD
ENDBRANCH   1  14
BRANCH   8  19
HETATM   19  N   UNL     1      24.520  44.441  48.339  1.00  0.00    -0.328 N 
HETATM   20  C   UNL     1      23.651  43.477  47.930  1.00  0.00     0.218 C 
HETATM   21  C   UNL     1      22.996  42.534  48.894  1.00  0.00     0.117 C 
HETATM   22  O   UNL     1      23.395  43.405  46.724  1.00  0.00    -0.274 OA
HETATM   23  H   UNL     1      24.796  45.010  47.546  1.00  0.00     0.169 HD
ENDBRANCH   8  19
TORSDOF 2
ENDMDL
MODEL 8
REMARK VINA RESULT:      -7.9      2.735      7.721
REMARK  2 active torsions:
REMARK  status: ('A' for Active; 'I' for Inactive)
REMARK       I    between atoms: C_2  and  N_3 
REMARK    1  A    between atoms: N_3  and  C_4 
REMARK    2  A    between atoms: C_11  and  N_12 
REMARK       I    between atoms: N_12  and  C_13 
ROOT
HETATM    1  C   UNL     1      29.450  44.658  55.375  1.00  0.00     0.035 A 
HETATM    2  C   UNL     1      28.212  45.184  55.000  1.00  0.00     0.038 A 
HETATM    3  C   UNL     1      27.495  44.541  54.000  1.00  0.00    -0.041 A 
HETATM    4  C   UNL     1      27.981  43.382  53.364  1.00  0.00    -0.019 A 
HETATM    5  C   UNL     1      27.015  42.953  52.376  1.00  0.00    -0.019 A 
HETATM    6  C   UNL     1      25.924  43.844  52.391  1.00  0.00    -0.041 A 
HETATM    7  C   UNL     1      24.832  43.687  51.543  1.00  0.00     0.038 A 
HETATM    8  C   UNL     1      24.828  42.615  50.651  1.00  0.00     0.035 A 
HETATM    9  C   UNL     1      25.923  41.718  50.651  1.00  0.00     0.030 A 
HETATM   10  C   UNL     1      27.021  41.882  51.507  1.00  0.00     0.015 A 
HETATM   11  C   UNL     1      26.143  44.925  53.433  1.00  0.00     0.079 A 
HETATM   12  C   UNL     1      29.205  42.852  53.727  1.00  0.00     0.015 A 
HETATM   13  C   UNL     1      29.935  43.496  54.735  1.00  0.00     0.030 A 
ENDROOT
BRANCH   1  14
HETATM   14  N   UNL     1      30.272  45.224  56.373  1.00  0.00    -0.328 N 
HETATM   15  C   UNL     1      29.870  45.832  57.549  1.00  0.00     0.218 C 
HETATM   16  C   UNL     1      31.036  46.325  58.373  1.00  0.00     0.117 C 
HETATM   17  O   UNL     1      28.722  45.966  57.956  1.00  0.00    -0.274 OA
HETATM   18  H   UNL     1      31.268  45.170  56.206  1.00  0.00     0.169 HD
ENDBRANCH   1  14
BRANCH   8  19
HETATM   19  N   UNL     1      23.801  42.318  49.735  1.00  0.00    -0.328 N 
HETATM   20  C   UNL     1      23.267  42.958  48.660  1.00  0.00     0.218 C 
HETATM   21  C   UNL     1      23.819  44.253  48.147  1.00  0.00     0.117 C 
HETATM   22  O   UNL     1      22.306  42.427  48.092  1.00  0.00    -0.274 OA
HETATM   23  H   UNL     1      23.327  41.433  49.876  1.00  0.00     0.169 HD
ENDBRANCH   8  19
TORSDOF 2
ENDMDL
MODEL 9
REMARK VINA RESULT:      -7.8      5.872     10.175
REMARK  2 active torsions:
REMARK  status: ('A' for Active; 'I' for Inactive)
REMARK       I    between atoms: C_2  and  N_3 
REMARK    1  A    between atoms: N_3  and  C_4 
REMARK    2  A    between atoms: C_11  and  N_12 
REMARK       I    between atoms: N_12  and  C_13 
ROOT
HETATM    1  C   UNL     1      17.295  51.715  49.388  1.00  0.00     0.035 A 
HETATM    2  C   UNL     1      17.875  50.520  49.816  1.00  0.00     0.038 A 
HETATM    3  C   UNL     1      19.222  50.306  49.553  1.00  0.00    -0.041 A 
HETATM    4  C   UNL     1      20.007  51.257  48.872  1.00  0.00    -0.019 A 
HETATM    5  C   UNL     1      21.355  50.747  48.751  1.00  0.00    -0.019 A 
HETATM    6  C   UNL     1      21.416  49.475  49.353  1.00  0.00    -0.041 A 
HETATM    7  C   UNL     1      22.591  48.733  49.392  1.00  0.00     0.038 A 
HETATM    8  C   UNL     1      23.740  49.270  48.811  1.00  0.00     0.035 A 
HETATM    9  C   UNL     1      23.673  50.554  48.217  1.00  0.00     0.030 A 
HETATM   10  C   UNL     1      22.485  51.296  48.180  1.00  0.00     0.015 A 
HETATM   11  C   UNL     1      20.058  49.096  49.917  1.00  0.00     0.079 A 
HETATM   12  C   UNL     1      19.443  52.444  48.444  1.00  0.00     0.015 A 
HETATM   13  C   UNL     1      18.084  52.667  48.705  1.00  0.00     0.030 A 
ENDROOT
BRANCH   1  14
HETATM   14  N   UNL     1      15.937  52.045  49.593  1.00  0.00    -0.328 N 
HETATM   15  C   UNL     1      15.429  53.184  50.190  1.00  0.00     0.218 C 
HETATM   16  C   UNL     1      13.920  53.189  50.237  1.00  0.00     0.117 C 
HETATM   17  O   UNL     1      16.066  54.136  50.626  1.00  0.00    -0.274 OA
HETATM   18  H   UNL     1      15.265  51.368  49.257  1.00  0.00     0.169 HD
ENDBRANCH   1  14
BRANCH   8  19
HETATM   19  N   UNL     1      25.002  48.648  48.770  1.00  0.00    -0.328 N 
HETATM   20  C   UNL     1      25.678  47.804  49.595  1.00  0.00     0.218 C 
HETATM   21  C   UNL     1      25.064  47.250  50.845  1.00  0.00     0.117 C 
HETATM   22  O   UNL     1      26.828  47.483  49.276  1.00  0.00    -0.274 OA
HETATM   23  H   UNL     1      25.567  48.852  47.952  1.00  0.00     0.169 HD
ENDBRANCH   8  19
TORSDOF 2
ENDMDL
MODEL 10
REMARK VINA RESULT:      -7.8      3.536      4.835
REMARK  2 active torsions:
REMARK  status: ('A' for Active; 'I' for Inactive)
REMARK       I    between atoms: C_2  and  N_3 
REMARK    1  A    between atoms: N_3  and  C_4 
REMARK    2  A    between atoms: C_11  and  N_12 
REMARK       I    between atoms: N_12  and  C_13 
ROOT
HETATM    1  C   UNL     1      24.621  45.920  50.291  1.00  0.00     0.035 A 
HETATM    2  C   UNL     1      25.004  44.896  49.421  1.00  0.00     0.038 A 
HETATM    3  C   UNL     1      25.822  43.885  49.908  1.00  0.00    -0.041 A 
HETATM    4  C   UNL     1      26.267  43.867  51.245  1.00  0.00    -0.019 A 
HETATM    5  C   UNL     1      27.096  42.698  51.443  1.00  0.00    -0.019 A 
HETATM    6  C   UNL     1      27.172  41.983  50.232  1.00  0.00    -0.041 A 
HETATM    7  C   UNL     1      27.905  40.807  50.114  1.00  0.00     0.038 A 
HETATM    8  C   UNL     1      28.585  40.328  51.235  1.00  0.00     0.035 A 
HETATM    9  C   UNL     1      28.493  41.047  52.451  1.00  0.00     0.030 A 
HETATM   10  C   UNL     1      27.755  42.233  52.562  1.00  0.00     0.015 A 
HETATM   11  C   UNL     1      26.360  42.684  49.158  1.00  0.00     0.079 A 
HETATM   12  C   UNL     1      25.895  44.874  52.114  1.00  0.00     0.015 A 
HETATM   13  C   UNL     1      25.070  45.899  51.630  1.00  0.00     0.030 A 
ENDROOT
BRANCH   1  14
HETATM   14  N   UNL     1      23.798  47.002  49.912  1.00  0.00    -0.328 N 
HETATM   15  C   UNL     1      24.194  48.285  49.582  1.00  0.00     0.218 C 
HETATM   16  C   UNL     1      23.029  49.179  49.232  1.00  0.00     0.117 C 
HETATM   17  O   UNL     1      25.342  48.713  49.530  1.00  0.00    -0.274 OA
HETATM   18  H   UNL     1      22.806  46.807  49.874  1.00  0.00     0.169 HD
ENDBRANCH   1  14
BRANCH   8  19
HETATM   19  N   UNL     1      29.363  39.156  51.279  1.00  0.00    -0.328 N 
HETATM   20  C   UNL     1      29.677  38.184  50.381  1.00  0.00     0.218 C 
HETATM   21  C   UNL     1      29.239  38.250  48.949  1.00  0.00     0.117 C 
HETATM   22  O   UNL     1      30.362  37.234  50.775  1.00  0.00    -0.274 OA
HETATM   23  H   UNL     1      29.808  38.957  52.168  1.00  0.00     0.169 HD
ENDBRANCH   8  19
TORSDOF 2
ENDMDL
