MODEL 1
REMARK VINA RESULT:      -9.2      0.000      0.000
REMARK  3 active torsions:
REMARK  status: ('A' for Active; 'I' for Inactive)
REMARK    1  A    between atoms: C_7  and  C_8 
REMARK    2  A    between atoms: N_9  and  C_11 
REMARK    3  A    between atoms: C_11  and  C_12 
ROOT
HETATM    1  C   UNL     1      25.975  43.761  52.084  1.00  0.00     0.238 C 
HETATM    2  N   UNL     1      25.996  44.747  50.925  1.00  0.00    -0.056 N 
HETATM    3  H   UNL     1      25.067  44.672  50.496  1.00  0.00     0.281 HD
HETATM    4  C   UNL     1      26.977  44.412  49.831  1.00  0.00     0.236 C 
HETATM    5  C   UNL     1      26.731  43.004  49.315  1.00  0.00     0.028 C 
HETATM    6  C   UNL     1      26.781  41.972  50.431  1.00  0.00     0.004 C 
HETATM    7  C   UNL     1      25.811  42.331  51.549  1.00  0.00     0.040 C 
ENDROOT
BRANCH   2   8
HETATM    8  C   UNL     1      26.128  46.199  51.344  1.00  0.00     0.294 C 
BRANCH   8   9
HETATM    9  C   UNL     1      25.420  47.126  50.438  1.00  0.00     0.061 A 
HETATM   10  N   UNL     1      26.030  48.116  49.693  1.00  0.00    -0.305 N 
HETATM   11  C   UNL     1      25.028  48.772  49.020  1.00  0.00     0.151 A 
HETATM   12  C   UNL     1      27.342  48.535  49.545  1.00  0.00     0.118 A 
HETATM   13  C   UNL     1      25.372  49.893  48.187  1.00  0.00     0.167 A 
HETATM   14  N   UNL     1      23.843  48.261  49.254  1.00  0.00    -0.239 NA
HETATM   15  N   UNL     1      26.609  50.296  48.070  1.00  0.00    -0.268 NA
HETATM   16  C   UNL     1      27.587  49.595  48.753  1.00  0.00     0.134 A 
HETATM   17  C   UNL     1      24.080  47.212  50.098  1.00  0.00     0.146 A 
ENDBRANCH   8   9
ENDBRANCH   2   8
BRANCH   1  18
HETATM   18  C   UNL     1      27.113  43.905  53.045  1.00  0.00     0.041 A 
HETATM   19  N   UNL     1      27.126  44.929  53.974  1.00  0.00    -0.357 N 
HETATM   20  C   UNL     1      28.301  44.924  54.687  1.00  0.00     0.042 A 
HETATM   21  H   UNL     1      26.401  45.623  54.113  1.00  0.00     0.166 HD
HETATM   22  C   UNL     1      29.029  43.813  54.273  1.00  0.00    -0.008 A 
HETATM   23  C   UNL     1      28.763  45.807  55.670  1.00  0.00     0.030 A 
HETATM   24  C   UNL     1      30.276  43.555  54.871  1.00  0.00     0.014 A 
HETATM   25  C   UNL     1      28.263  43.167  53.266  1.00  0.00     0.040 A 
HETATM   26  C   UNL     1      30.755  44.428  55.855  1.00  0.00     0.001 A 
HETATM   27  C   UNL     1      30.009  45.538  56.244  1.00  0.00     0.002 A 
ENDBRANCH   1  18
TORSDOF 3
ENDMDL
MODEL 2
REMARK VINA RESULT:      -9.1      1.170      2.067
REMARK  3 active torsions:
REMARK  status: ('A' for Active; 'I' for Inactive)
REMARK    1  A    between atoms: C_7  and  C_8 
REMARK    2  A    between atoms: N_9  and  C_11 
REMARK    3  A    between atoms: C_11  and  C_12 
ROOT
HETATM    1  C   UNL     1      25.398  45.261  51.877  1.00  0.00     0.238 C 
HETATM    2  N   UNL     1      25.764  45.981  50.587  1.00  0.00    -0.056 N 
HETATM    3  H   UNL     1      24.869  46.297  50.196  1.00  0.00     0.281 HD
HETATM    4  C   UNL     1      26.380  45.102  49.528  1.00  0.00     0.236 C 
HETATM    5  C   UNL     1      25.471  43.920  49.230  1.00  0.00     0.028 C 
HETATM    6  C   UNL     1      25.144  43.123  50.482  1.00  0.00     0.004 C 
HETATM    7  C   UNL     1      24.551  44.021  51.561  1.00  0.00     0.040 C 
ENDROOT
BRANCH   2   8
HETATM    8  C   UNL     1      26.582  47.242  50.786  1.00  0.00     0.294 C 
BRANCH   8   9
HETATM    9  C   UNL     1      26.329  48.262  49.748  1.00  0.00     0.061 A 
HETATM   10  N   UNL     1      25.076  48.676  49.342  1.00  0.00    -0.305 N 
HETATM   11  C   UNL     1      25.274  49.599  48.343  1.00  0.00     0.151 A 
HETATM   12  C   UNL     1      23.786  48.335  49.712  1.00  0.00     0.118 A 
HETATM   13  C   UNL     1      24.127  50.177  47.697  1.00  0.00     0.167 A 
HETATM   14  N   UNL     1      26.544  49.823  48.107  1.00  0.00    -0.239 NA
HETATM   15  N   UNL     1      22.913  49.832  48.036  1.00  0.00    -0.268 NA
HETATM   16  C   UNL     1      22.761  48.912  49.058  1.00  0.00     0.134 A 
HETATM   17  C   UNL     1      27.207  49.032  49.003  1.00  0.00     0.146 A 
ENDBRANCH   8   9
ENDBRANCH   2   8
BRANCH   1  18
HETATM   18  C   UNL     1      26.558  44.971  52.778  1.00  0.00     0.041 A 
HETATM   19  N   UNL     1      26.839  45.793  53.853  1.00  0.00    -0.357 N 
HETATM   20  C   UNL     1      27.993  45.393  54.484  1.00  0.00     0.042 A 
HETATM   21  H   UNL     1      26.307  46.605  54.143  1.00  0.00     0.166 HD
HETATM   22  C   UNL     1      28.420  44.227  53.856  1.00  0.00    -0.008 A 
HETATM   23  C   UNL     1      28.675  45.965  55.563  1.00  0.00     0.030 A 
HETATM   24  C   UNL     1      29.580  43.586  54.329  1.00  0.00     0.014 A 
HETATM   25  C   UNL     1      27.499  43.957  52.809  1.00  0.00     0.040 A 
HETATM   26  C   UNL     1      30.278  44.144  55.407  1.00  0.00     0.001 A 
HETATM   27  C   UNL     1      29.831  45.318  56.010  1.00  0.00     0.002 A 
ENDBRANCH   1  18
TORSDOF 3
ENDMDL
MODEL 3
REMARK VINA RESULT:      -8.7      3.173      6.440
REMARK  3 active torsions:
REMARK  status: ('A' for Active; 'I' for Inactive)
REMARK    1  A    between atoms: C_7  and  C_8 
REMARK    2  A    between atoms: N_9  and  C_11 
REMARK    3  A    between atoms: C_11  and  C_12 
ROOT
HETATM    1  C   UNL     1      27.440  43.642  50.714  1.00  0.00     0.238 C 
HETATM    2  N   UNL     1      26.301  42.634  50.678  1.00  0.00    -0.056 N 
HETATM    3  H   UNL     1      26.034  42.570  49.689  1.00  0.00     0.281 HD
HETATM    4  C   UNL     1      25.054  43.067  51.406  1.00  0.00     0.236 C 
HETATM    5  C   UNL     1      24.579  44.413  50.885  1.00  0.00     0.028 C 
HETATM    6  C   UNL     1      25.663  45.474  50.977  1.00  0.00     0.004 C 
HETATM    7  C   UNL     1      26.932  45.020  50.266  1.00  0.00     0.040 C 
ENDROOT
BRANCH   2   8
HETATM    8  C   UNL     1      26.699  41.226  51.077  1.00  0.00     0.294 C 
BRANCH   8   9
HETATM    9  C   UNL     1      27.388  40.494  49.995  1.00  0.00     0.061 A 
HETATM   10  N   UNL     1      28.395  39.569  50.189  1.00  0.00    -0.305 N 
HETATM   11  C   UNL     1      28.788  39.151  48.941  1.00  0.00     0.151 A 
HETATM   12  C   UNL     1      29.030  39.062  51.311  1.00  0.00     0.118 A 
HETATM   13  C   UNL     1      29.865  38.204  48.834  1.00  0.00     0.167 A 
HETATM   14  N   UNL     1      28.094  39.711  47.979  1.00  0.00    -0.239 NA
HETATM   15  N   UNL     1      30.474  37.749  49.896  1.00  0.00    -0.268 NA
HETATM   16  C   UNL     1      30.034  38.184  51.133  1.00  0.00     0.134 A 
HETATM   17  C   UNL     1      27.194  40.513  48.624  1.00  0.00     0.146 A 
ENDBRANCH   8   9
ENDBRANCH   2   8
BRANCH   1  18
HETATM   18  C   UNL     1      28.195  43.681  52.005  1.00  0.00     0.041 A 
HETATM   19  N   UNL     1      27.842  44.571  53.003  1.00  0.00    -0.357 N 
HETATM   20  C   UNL     1      28.722  44.496  54.056  1.00  0.00     0.042 A 
HETATM   21  H   UNL     1      27.068  45.223  52.978  1.00  0.00     0.166 HD
HETATM   22  C   UNL     1      29.615  43.468  53.773  1.00  0.00    -0.008 A 
HETATM   23  C   UNL     1      28.784  45.248  55.234  1.00  0.00     0.030 A 
HETATM   24  C   UNL     1      30.617  43.159  54.711  1.00  0.00     0.014 A 
HETATM   25  C   UNL     1      29.258  42.946  52.501  1.00  0.00     0.040 A 
HETATM   26  C   UNL     1      30.696  43.902  55.895  1.00  0.00     0.001 A 
HETATM   27  C   UNL     1      29.793  44.932  56.148  1.00  0.00     0.002 A 
ENDBRANCH   1  18
TORSDOF 3
ENDMDL
MODEL 4
REMARK VINA RESULT:      -8.3      3.089      6.695
REMARK  3 active torsions:
REMARK  status: ('A' for Active; 'I' for Inactive)
REMARK    1  A    between atoms: C_7  and  C_8 
REMARK    2  A    between atoms: N_9  and  C_11 
REMARK    3  A    between atoms: C_11  and  C_12 
ROOT
HETATM    1  C   UNL     1      26.363  42.492  51.420  1.00  0.00     0.238 C 
HETATM    2  N   UNL     1      27.111  43.785  51.711  1.00  0.00    -0.056 N 
HETATM    3  H   UNL     1      26.470  44.338  52.291  1.00  0.00     0.281 HD
HETATM    4  C   UNL     1      27.395  44.634  50.498  1.00  0.00     0.236 C 
HETATM    5  C   UNL     1      26.107  44.930  49.748  1.00  0.00     0.028 C 
HETATM    6  C   UNL     1      25.364  43.660  49.366  1.00  0.00     0.004 C 
HETATM    7  C   UNL     1      25.107  42.790  50.591  1.00  0.00     0.040 C 
ENDROOT
BRANCH   2   8
HETATM    8  C   UNL     1      28.360  43.608  52.552  1.00  0.00     0.294 C 
BRANCH   8   9
HETATM    9  C   UNL     1      28.393  44.500  53.729  1.00  0.00     0.061 A 
HETATM   10  N   UNL     1      29.321  44.422  54.749  1.00  0.00    -0.305 N 
HETATM   11  C   UNL     1      28.985  45.395  55.658  1.00  0.00     0.151 A 
HETATM   12  C   UNL     1      30.406  43.598  54.998  1.00  0.00     0.118 A 
HETATM   13  C   UNL     1      29.765  45.520  56.859  1.00  0.00     0.167 A 
HETATM   14  N   UNL     1      27.942  46.098  55.284  1.00  0.00    -0.239 NA
HETATM   15  N   UNL     1      30.773  44.724  57.098  1.00  0.00    -0.268 NA
HETATM   16  C   UNL     1      31.086  43.770  56.146  1.00  0.00     0.134 A 
HETATM   17  C   UNL     1      27.594  45.580  54.068  1.00  0.00     0.146 A 
ENDBRANCH   8   9
ENDBRANCH   2   8
BRANCH   1  18
HETATM   18  C   UNL     1      27.208  41.400  50.842  1.00  0.00     0.041 A 
HETATM   19  N   UNL     1      27.827  40.476  51.663  1.00  0.00    -0.357 N 
HETATM   20  C   UNL     1      28.620  39.627  50.929  1.00  0.00     0.042 A 
HETATM   21  H   UNL     1      27.752  40.426  52.672  1.00  0.00     0.166 HD
HETATM   22  C   UNL     1      28.439  39.951  49.589  1.00  0.00    -0.008 A 
HETATM   23  C   UNL     1      29.467  38.596  51.350  1.00  0.00     0.030 A 
HETATM   24  C   UNL     1      29.125  39.207  48.610  1.00  0.00     0.014 A 
HETATM   25  C   UNL     1      27.532  41.043  49.544  1.00  0.00     0.040 A 
HETATM   26  C   UNL     1      29.978  38.173  49.012  1.00  0.00     0.001 A 
HETATM   27  C   UNL     1      30.146  37.876  50.363  1.00  0.00     0.002 A 
ENDBRANCH   1  18
TORSDOF 3
ENDMDL
MODEL 5
REMARK VINA RESULT:      -8.1      1.959      2.931
REMARK  3 active torsions:
REMARK  status: ('A' for Active; 'I' for Inactive)
REMARK    1  A    between atoms: C_7  and  C_8 
REMARK    2  A    between atoms: N_9  and  C_11 
REMARK    3  A    between atoms: C_11  and  C_12 
ROOT
HETATM    1  C   UNL     1      26.676  40.799  51.089  1.00  0.00     0.238 C 
HETATM    2  N   UNL     1      25.755  41.675  50.252  1.00  0.00    -0.056 N 
HETATM    3  H   UNL     1      25.117  41.021  49.786  1.00  0.00     0.281 HD
HETATM    4  C   UNL     1      26.443  42.430  49.142  1.00  0.00     0.236 C 
HETATM    5  C   UNL     1      27.209  41.470  48.247  1.00  0.00     0.028 C 
HETATM    6  C   UNL     1      28.201  40.628  49.033  1.00  0.00     0.004 C 
HETATM    7  C   UNL     1      27.508  39.891  50.173  1.00  0.00     0.040 C 
ENDROOT
BRANCH   2   8
HETATM    8  C   UNL     1      24.864  42.597  51.062  1.00  0.00     0.294 C 
BRANCH   8   9
HETATM    9  C   UNL     1      24.318  43.715  50.267  1.00  0.00     0.061 A 
HETATM   10  N   UNL     1      24.600  45.049  50.489  1.00  0.00    -0.305 N 
HETATM   11  C   UNL     1      23.872  45.761  49.567  1.00  0.00     0.151 A 
HETATM   12  C   UNL     1      25.388  45.723  51.407  1.00  0.00     0.118 A 
HETATM   13  C   UNL     1      23.940  47.197  49.591  1.00  0.00     0.167 A 
HETATM   14  N   UNL     1      23.180  44.988  48.764  1.00  0.00    -0.239 NA
HETATM   15  N   UNL     1      24.668  47.826  50.474  1.00  0.00    -0.268 NA
HETATM   16  C   UNL     1      25.397  47.068  51.372  1.00  0.00     0.134 A 
HETATM   17  C   UNL     1      23.484  43.716  49.161  1.00  0.00     0.146 A 
ENDBRANCH   8   9
ENDBRANCH   2   8
BRANCH   1  18
HETATM   18  C   UNL     1      27.501  41.542  52.092  1.00  0.00     0.041 A 
HETATM   19  N   UNL     1      26.962  42.594  52.808  1.00  0.00    -0.357 N 
HETATM   20  C   UNL     1      27.918  43.185  53.600  1.00  0.00     0.042 A 
HETATM   21  H   UNL     1      26.007  42.929  52.756  1.00  0.00     0.166 HD
HETATM   22  C   UNL     1      29.084  42.439  53.461  1.00  0.00    -0.008 A 
HETATM   23  C   UNL     1      27.832  44.307  54.431  1.00  0.00     0.030 A 
HETATM   24  C   UNL     1      30.225  42.818  54.194  1.00  0.00     0.014 A 
HETATM   25  C   UNL     1      28.804  41.397  52.538  1.00  0.00     0.040 A 
HETATM   26  C   UNL     1      30.159  43.939  55.029  1.00  0.00     0.001 A 
HETATM   27  C   UNL     1      28.979  44.672  55.142  1.00  0.00     0.002 A 
ENDBRANCH   1  18
TORSDOF 3
ENDMDL
MODEL 6
REMARK VINA RESULT:      -8.1      2.563      5.676
REMARK  3 active torsions:
REMARK  status: ('A' for Active; 'I' for Inactive)
REMARK    1  A    between atoms: C_7  and  C_8 
REMARK    2  A    between atoms: N_9  and  C_11 
REMARK    3  A    between atoms: C_11  and  C_12 
ROOT
HETATM    1  C   UNL     1      26.787  44.426  50.253  1.00  0.00     0.238 C 
HETATM    2  N   UNL     1      25.320  44.057  50.421  1.00  0.00    -0.056 N 
HETATM    3  H   UNL     1      24.923  44.105  49.476  1.00  0.00     0.281 HD
HETATM    4  C   UNL     1      24.517  45.029  51.248  1.00  0.00     0.236 C 
HETATM    5  C   UNL     1      24.643  46.433  50.680  1.00  0.00     0.028 C 
HETATM    6  C   UNL     1      26.093  46.875  50.569  1.00  0.00     0.004 C 
HETATM    7  C   UNL     1      26.907  45.874  49.759  1.00  0.00     0.040 C 
ENDROOT
BRANCH   2   8
HETATM    8  C   UNL     1      25.084  42.631  50.882  1.00  0.00     0.294 C 
BRANCH   8   9
HETATM    9  C   UNL     1      25.123  41.655  49.775  1.00  0.00     0.061 A 
HETATM   10  N   UNL     1      26.073  40.661  49.636  1.00  0.00    -0.305 N 
HETATM   11  C   UNL     1      25.780  40.000  48.468  1.00  0.00     0.151 A 
HETATM   12  C   UNL     1      27.174  40.275  50.383  1.00  0.00     0.118 A 
HETATM   13  C   UNL     1      26.640  38.928  48.045  1.00  0.00     0.167 A 
HETATM   14  N   UNL     1      24.710  40.473  47.876  1.00  0.00    -0.239 NA
HETATM   15  N   UNL     1      27.690  38.585  48.743  1.00  0.00    -0.268 NA
HETATM   16  C   UNL     1      27.936  39.268  49.921  1.00  0.00     0.134 A 
HETATM   17  C   UNL     1      24.269  41.470  48.700  1.00  0.00     0.146 A 
ENDBRANCH   8   9
ENDBRANCH   2   8
BRANCH   1  18
HETATM   18  C   UNL     1      27.643  44.134  51.445  1.00  0.00     0.041 A 
HETATM   19  N   UNL     1      27.442  44.803  52.639  1.00  0.00    -0.357 N 
HETATM   20  C   UNL     1      28.394  44.446  53.564  1.00  0.00     0.042 A 
HETATM   21  H   UNL     1      26.722  45.491  52.827  1.00  0.00     0.166 HD
HETATM   22  C   UNL     1      29.176  43.452  52.984  1.00  0.00    -0.008 A 
HETATM   23  C   UNL     1      28.608  44.916  54.863  1.00  0.00     0.030 A 
HETATM   24  C   UNL     1      30.221  42.884  53.736  1.00  0.00     0.014 A 
HETATM   25  C   UNL     1      28.679  43.245  51.670  1.00  0.00     0.040 A 
HETATM   26  C   UNL     1      30.453  43.343  55.039  1.00  0.00     0.001 A 
HETATM   27  C   UNL     1      29.658  44.346  55.590  1.00  0.00     0.002 A 
ENDBRANCH   1  18
TORSDOF 3
ENDMDL
MODEL 7
REMARK VINA RESULT:      -8.0     10.781     13.067
REMARK  3 active torsions:
REMARK  status: ('A' for Active; 'I' for Inactive)
REMARK    1  A    between atoms: C_7  and  C_8 
REMARK    2  A    between atoms: N_9  and  C_11 
REMARK    3  A    between atoms: C_11  and  C_12 
ROOT
HETATM    1  C   UNL     1      28.749  50.564  41.666  1.00  0.00     0.238 C 
HETATM    2  N   UNL     1      30.181  51.074  41.729  1.00  0.00    -0.056 N 
HETATM    3  H   UNL     1      30.136  51.924  42.302  1.00  0.00     0.281 HD
HETATM    4  C   UNL     1      30.753  51.509  40.404  1.00  0.00     0.236 C 
HETATM    5  C   UNL     1      29.855  52.551  39.758  1.00  0.00     0.028 C 
HETATM    6  C   UNL     1      28.427  52.052  39.601  1.00  0.00     0.004 C 
HETATM    7  C   UNL     1      27.863  51.584  40.937  1.00  0.00     0.040 C 
ENDROOT
BRANCH   2   8
HETATM    8  C   UNL     1      31.141  50.152  42.456  1.00  0.00     0.294 C 
BRANCH   8   9
HETATM    9  C   UNL     1      32.350  50.847  42.942  1.00  0.00     0.061 A 
HETATM   10  N   UNL     1      33.600  50.750  42.361  1.00  0.00    -0.305 N 
HETATM   11  C   UNL     1      34.448  51.510  43.129  1.00  0.00     0.151 A 
HETATM   12  C   UNL     1      34.098  50.065  41.265  1.00  0.00     0.118 A 
HETATM   13  C   UNL     1      35.841  51.561  42.778  1.00  0.00     0.167 A 
HETATM   14  N   UNL     1      33.834  52.101  44.126  1.00  0.00    -0.239 NA
HETATM   15  N   UNL     1      36.307  50.894  41.756  1.00  0.00    -0.268 NA
HETATM   16  C   UNL     1      35.413  50.156  41.001  1.00  0.00     0.134 A 
HETATM   17  C   UNL     1      32.525  51.731  43.993  1.00  0.00     0.146 A 
ENDBRANCH   8   9
ENDBRANCH   2   8
BRANCH   1  18
HETATM   18  C   UNL     1      28.607  49.172  41.136  1.00  0.00     0.041 A 
HETATM   19  N   UNL     1      27.569  48.360  41.555  1.00  0.00    -0.357 N 
HETATM   20  C   UNL     1      27.686  47.102  41.012  1.00  0.00     0.042 A 
HETATM   21  H   UNL     1      26.829  48.616  42.198  1.00  0.00     0.166 HD
HETATM   22  C   UNL     1      28.775  47.127  40.147  1.00  0.00    -0.008 A 
HETATM   23  C   UNL     1      26.905  45.959  41.212  1.00  0.00     0.030 A 
HETATM   24  C   UNL     1      29.103  45.961  39.433  1.00  0.00     0.014 A 
HETATM   25  C   UNL     1      29.326  48.435  40.211  1.00  0.00     0.040 A 
HETATM   26  C   UNL     1      28.335  44.806  39.621  1.00  0.00     0.001 A 
HETATM   27  C   UNL     1      27.254  44.808  40.500  1.00  0.00     0.002 A 
ENDBRANCH   1  18
TORSDOF 3
ENDMDL
MODEL 8
REMARK VINA RESULT:      -8.0      2.687      5.796
REMARK  3 active torsions:
REMARK  status: ('A' for Active; 'I' for Inactive)
REMARK    1  A    between atoms: C_7  and  C_8 
REMARK    2  A    between atoms: N_9  and  C_11 
REMARK    3  A    between atoms: C_11  and  C_12 
ROOT
HETATM    1  C   UNL     1      26.702  44.277  50.314  1.00  0.00     0.238 C 
HETATM    2  N   UNL     1      25.263  43.804  50.456  1.00  0.00    -0.056 N 
HETATM    3  H   UNL     1      24.932  43.667  49.494  1.00  0.00     0.281 HD
HETATM    4  C   UNL     1      24.326  44.815  51.067  1.00  0.00     0.236 C 
HETATM    5  C   UNL     1      24.374  46.118  50.286  1.00  0.00     0.028 C 
HETATM    6  C   UNL     1      25.787  46.670  50.188  1.00  0.00     0.004 C 
HETATM    7  C   UNL     1      26.737  45.634  49.599  1.00  0.00     0.040 C 
ENDROOT
BRANCH   2   8
HETATM    8  C   UNL     1      25.113  42.452  51.127  1.00  0.00     0.294 C 
BRANCH   8   9
HETATM    9  C   UNL     1      25.727  41.354  50.355  1.00  0.00     0.061 A 
HETATM   10  N   UNL     1      25.258  40.889  49.141  1.00  0.00    -0.305 N 
HETATM   11  C   UNL     1      26.078  39.848  48.778  1.00  0.00     0.151 A 
HETATM   12  C   UNL     1      24.195  41.238  48.325  1.00  0.00     0.118 A 
HETATM   13  C   UNL     1      25.798  39.138  47.560  1.00  0.00     0.167 A 
HETATM   14  N   UNL     1      27.041  39.638  49.644  1.00  0.00    -0.239 NA
HETATM   15  N   UNL     1      24.779  39.459  46.807  1.00  0.00    -0.268 NA
HETATM   16  C   UNL     1      23.991  40.525  47.203  1.00  0.00     0.134 A 
HETATM   17  C   UNL     1      26.858  40.595  50.603  1.00  0.00     0.146 A 
ENDBRANCH   8   9
ENDBRANCH   2   8
BRANCH   1  18
HETATM   18  C   UNL     1      27.492  44.257  51.585  1.00  0.00     0.041 A 
HETATM   19  N   UNL     1      28.643  43.498  51.688  1.00  0.00    -0.357 N 
HETATM   20  C   UNL     1      29.153  43.557  52.963  1.00  0.00     0.042 A 
HETATM   21  H   UNL     1      29.061  42.938  50.954  1.00  0.00     0.166 HD
HETATM   22  C   UNL     1      28.363  44.450  53.680  1.00  0.00    -0.008 A 
HETATM   23  C   UNL     1      30.253  42.901  53.526  1.00  0.00     0.030 A 
HETATM   24  C   UNL     1      28.685  44.718  55.023  1.00  0.00     0.014 A 
HETATM   25  C   UNL     1      27.344  44.904  52.799  1.00  0.00     0.040 A 
HETATM   26  C   UNL     1      29.782  44.070  55.604  1.00  0.00     0.001 A 
HETATM   27  C   UNL     1      30.550  43.173  54.864  1.00  0.00     0.002 A 
ENDBRANCH   1  18
TORSDOF 3
ENDMDL
MODEL 9
REMARK VINA RESULT:      -8.0      5.396      8.943
REMARK  3 active torsions:
REMARK  status: ('A' for Active; 'I' for Inactive)
REMARK    1  A    between atoms: C_7  and  C_8 
REMARK    2  A    between atoms: N_9  and  C_11 
REMARK    3  A    between atoms: C_11  and  C_12 
ROOT
HETATM    1  C   UNL     1      20.195  49.661  47.922  1.00  0.00     0.238 C 
HETATM    2  N   UNL     1      19.352  49.148  49.080  1.00  0.00    -0.056 N 
HETATM    3  H   UNL     1      18.394  49.115  48.717  1.00  0.00     0.281 HD
HETATM    4  C   UNL     1      19.301  50.065  50.276  1.00  0.00     0.236 C 
HETATM    5  C   UNL     1      18.831  51.449  49.859  1.00  0.00     0.028 C 
HETATM    6  C   UNL     1      19.697  52.036  48.755  1.00  0.00     0.004 C 
HETATM    7  C   UNL     1      19.772  51.092  47.562  1.00  0.00     0.040 C 
ENDROOT
BRANCH   2   8
HETATM    8  C   UNL     1      19.671  47.727  49.503  1.00  0.00     0.294 C 
BRANCH   8   9
HETATM    9  C   UNL     1      19.027  46.713  48.643  1.00  0.00     0.061 A 
HETATM   10  N   UNL     1      19.686  45.658  48.042  1.00  0.00    -0.305 N 
HETATM   11  C   UNL     1      18.746  44.978  47.306  1.00  0.00     0.151 A 
HETATM   12  C   UNL     1      21.003  45.230  48.033  1.00  0.00     0.118 A 
HETATM   13  C   UNL     1      19.163  43.841  46.531  1.00  0.00     0.167 A 
HETATM   14  N   UNL     1      17.546  45.497  47.417  1.00  0.00    -0.239 NA
HETATM   15  N   UNL     1      20.412  43.457  46.510  1.00  0.00    -0.268 NA
HETATM   16  C   UNL     1      21.320  44.162  47.280  1.00  0.00     0.134 A 
HETATM   17  C   UNL     1      17.701  46.546  48.278  1.00  0.00     0.146 A 
ENDBRANCH   8   9
ENDBRANCH   2   8
BRANCH   1  18
HETATM   18  C   UNL     1      21.672  49.512  48.113  1.00  0.00     0.041 A 
HETATM   19  N   UNL     1      22.184  48.484  48.883  1.00  0.00    -0.357 N 
HETATM   20  C   UNL     1      23.550  48.593  48.995  1.00  0.00     0.042 A 
HETATM   21  H   UNL     1      21.651  47.755  49.341  1.00  0.00     0.166 HD
HETATM   22  C   UNL     1      23.943  49.667  48.203  1.00  0.00    -0.008 A 
HETATM   23  C   UNL     1      24.459  47.818  49.723  1.00  0.00     0.030 A 
HETATM   24  C   UNL     1      25.311  49.985  48.117  1.00  0.00     0.014 A 
HETATM   25  C   UNL     1      22.763  50.217  47.633  1.00  0.00     0.040 A 
HETATM   26  C   UNL     1      26.235  49.222  48.840  1.00  0.00     0.001 A 
HETATM   27  C   UNL     1      25.812  48.157  49.633  1.00  0.00     0.002 A 
ENDBRANCH   1  18
TORSDOF 3
ENDMDL
MODEL 10
REMARK VINA RESULT:      -7.9      5.560     10.015
REMARK  3 active torsions:
REMARK  status: ('A' for Active; 'I' for Inactive)
REMARK    1  A    between atoms: C_7  and  C_8 
REMARK    2  A    between atoms: N_9  and  C_11 
REMARK    3  A    between atoms: C_11  and  C_12 
ROOT
HETATM    1  C   UNL     1      19.996  48.742  47.146  1.00  0.00     0.238 C 
HETATM    2  N   UNL     1      20.813  47.838  48.057  1.00  0.00    -0.056 N 
HETATM    3  H   UNL     1      21.506  47.397  47.442  1.00  0.00     0.281 HD
HETATM    4  C   UNL     1      20.039  46.701  48.674  1.00  0.00     0.236 C 
HETATM    5  C   UNL     1      19.358  45.878  47.593  1.00  0.00     0.028 C 
HETATM    6  C   UNL     1      18.466  46.731  46.705  1.00  0.00     0.004 C 
HETATM    7  C   UNL     1      19.244  47.896  46.108  1.00  0.00     0.040 C 
ENDROOT
BRANCH   2   8
HETATM    8  C   UNL     1      21.621  48.576  49.107  1.00  0.00     0.294 C 
BRANCH   8   9
HETATM    9  C   UNL     1      22.842  49.200  48.561  1.00  0.00     0.061 A 
HETATM   10  N   UNL     1      24.131  48.841  48.906  1.00  0.00    -0.305 N 
HETATM   11  C   UNL     1      24.969  49.679  48.211  1.00  0.00     0.151 A 
HETATM   12  C   UNL     1      24.666  47.895  49.765  1.00  0.00     0.118 A 
HETATM   13  C   UNL     1      26.388  49.558  48.410  1.00  0.00     0.167 A 
HETATM   14  N   UNL     1      24.320  50.515  47.437  1.00  0.00    -0.239 NA
HETATM   15  N   UNL     1      26.884  48.679  49.239  1.00  0.00    -0.268 NA
HETATM   16  C   UNL     1      26.003  47.845  49.904  1.00  0.00     0.134 A 
HETATM   17  C   UNL     1      23.002  50.197  47.613  1.00  0.00     0.146 A 
ENDBRANCH   8   9
ENDBRANCH   2   8
BRANCH   1  18
HETATM   18  C   UNL     1      19.116  49.717  47.863  1.00  0.00     0.041 A 
HETATM   19  N   UNL     1      17.740  49.579  47.836  1.00  0.00    -0.357 N 
HETATM   20  C   UNL     1      17.132  50.630  48.480  1.00  0.00     0.042 A 
HETATM   21  H   UNL     1      17.221  48.835  47.385  1.00  0.00     0.166 HD
HETATM   22  C   UNL     1      18.142  51.422  49.018  1.00  0.00    -0.008 A 
HETATM   23  C   UNL     1      15.774  50.927  48.637  1.00  0.00     0.030 A 
HETATM   24  C   UNL     1      17.789  52.564  49.760  1.00  0.00     0.014 A 
HETATM   25  C   UNL     1      19.378  50.826  48.650  1.00  0.00     0.040 A 
HETATM   26  C   UNL     1      16.435  52.879  49.925  1.00  0.00     0.001 A 
HETATM   27  C   UNL     1      15.445  52.072  49.368  1.00  0.00     0.002 A 
ENDBRANCH   1  18
TORSDOF 3
ENDMDL
