MODEL 1
REMARK VINA RESULT:      -8.3      0.000      0.000
REMARK  9 active torsions:
REMARK  status: ('A' for Active; 'I' for Inactive)
REMARK    1  A    between atoms: C_3  and  C_4 
REMARK    2  A    between atoms: C_4  and  C_5 
REMARK       I    between atoms: C_5  and  N_6 
REMARK    3  A    between atoms: N_6  and  C_7 
REMARK    4  A    between atoms: C_16  and  N_17 
REMARK       I    between atoms: N_17  and  C_18 
REMARK    5  A    between atoms: C_18  and  C_19 
REMARK    6  A    between atoms: C_19  and  O_20 
REMARK    7  A    between atoms: C_26  and  C_27 
REMARK    8  A    between atoms: C_27  and  O_28 
REMARK    9  A    between atoms: C_30  and  O_31 
ROOT
HETATM    1  C   UNL     1      27.922  44.904  50.681  1.00  0.00     0.016 C 
HETATM    2  C   UNL     1      27.443  43.551  51.295  1.00  0.00    -0.030 C 
HETATM    3  C   UNL     1      25.966  43.713  51.860  1.00  0.00     0.056 C 
HETATM    4  C   UNL     1      24.964  43.705  50.726  1.00  0.00     0.056 A 
HETATM    5  C   UNL     1      25.242  43.240  49.456  1.00  0.00     0.012 A 
HETATM    6  S   UNL     1      23.844  43.294  48.483  1.00  0.00    -0.055 SA
HETATM    7  C   UNL     1      22.989  43.961  49.801  1.00  0.00     0.174 A 
HETATM    8  N   UNL     1      23.662  44.131  50.913  1.00  0.00    -0.227 NA
HETATM    9  C   UNL     1      26.563  42.763  48.966  1.00  0.00     0.055 C 
HETATM   10  C   UNL     1      27.516  42.446  50.154  1.00  0.00     0.012 C 
HETATM   11  C   UNL     1      27.453  40.934  50.640  1.00  0.00     0.008 C 
HETATM   12  C   UNL     1      28.284  40.097  49.619  1.00  0.00     0.020 C 
HETATM   13  C   UNL     1      28.143  40.751  52.027  1.00  0.00     0.128 C 
HETATM   14  C   UNL     1      29.133  41.869  52.332  1.00  0.00     0.033 C 
HETATM   15  C   UNL     1      28.424  43.214  52.462  1.00  0.00     0.013 C 
ENDROOT
BRANCH   3  16
HETATM   16  C   UNL     1      25.788  44.948  52.769  1.00  0.00     0.114 C 
BRANCH  16  17
HETATM   17  C   UNL     1      26.305  44.736  54.179  1.00  0.00     0.218 C 
HETATM   18  N   UNL     1      27.380  45.510  54.537  1.00  0.00    -0.356 N 
HETATM   19  H   UNL     1      27.835  46.054  53.798  1.00  0.00     0.162 HD
HETATM   20  O   UNL     1      25.791  43.903  54.923  1.00  0.00    -0.274 OA
BRANCH  18  21
HETATM   21  C   UNL     1      28.137  45.250  55.740  1.00  0.00     0.084 C 
HETATM   22  C   UNL     1      29.584  44.868  55.435  1.00  0.00     0.025 C 
HETATM   23  C   UNL     1      30.379  45.263  56.678  1.00  0.00     0.002 C 
HETATM   24  C   UNL     1      29.455  46.133  57.527  1.00  0.00     0.002 C 
HETATM   25  C   UNL     1      28.271  46.474  56.635  1.00  0.00     0.025 C 
ENDBRANCH  18  21
ENDBRANCH  16  17
ENDBRANCH   3  16
BRANCH  11  26
HETATM   26  C   UNL     1      26.021  40.335  50.647  1.00  0.00     0.176 C 
BRANCH  26  27
HETATM   27  O   UNL     1      26.056  38.909  50.678  1.00  0.00    -0.400 OA
HETATM   28  H   UNL     1      26.298  38.688  51.600  1.00  0.00     0.209 HD
ENDBRANCH  26  27
ENDBRANCH  11  26
BRANCH   7  29
HETATM   29  N   UNL     1      21.677  44.223  49.542  1.00  0.00    -0.304 N 
HETATM   30  C   UNL     1      21.274  45.234  48.701  1.00  0.00     0.247 C 
HETATM   31  O   UNL     1      21.991  45.939  47.999  1.00  0.00    -0.271 OA
HETATM   32  H   UNL     1      20.975  43.667  50.012  1.00  0.00     0.171 HD
BRANCH  30  33
HETATM   33  C   UNL     1      19.749  45.368  48.669  1.00  0.00     0.270 C 
BRANCH  33  34
HETATM   34  O   UNL     1      19.109  44.297  47.975  1.00  0.00    -0.387 OA
HETATM   35  C   UNL     1      18.662  44.696  46.682  1.00  0.00     0.202 C 
ENDBRANCH  33  34
ENDBRANCH  30  33
ENDBRANCH   7  29
BRANCH  13  36
HETATM   36  O   UNL     1      27.168  40.693  53.072  1.00  0.00    -0.395 OA
HETATM   37  H   UNL     1      26.399  40.196  52.737  1.00  0.00     0.210 HD
ENDBRANCH  13  36
TORSDOF 9
ENDMDL
MODEL 2
REMARK VINA RESULT:      -7.8     12.649     14.899
REMARK  9 active torsions:
REMARK  status: ('A' for Active; 'I' for Inactive)
REMARK    1  A    between atoms: C_3  and  C_4 
REMARK    2  A    between atoms: C_4  and  C_5 
REMARK       I    between atoms: C_5  and  N_6 
REMARK    3  A    between atoms: N_6  and  C_7 
REMARK    4  A    between atoms: C_16  and  N_17 
REMARK       I    between atoms: N_17  and  C_18 
REMARK    5  A    between atoms: C_18  and  C_19 
REMARK    6  A    between atoms: C_19  and  O_20 
REMARK    7  A    between atoms: C_26  and  C_27 
REMARK    8  A    between atoms: C_27  and  O_28 
REMARK    9  A    between atoms: C_30  and  O_31 
ROOT
HETATM    1  C   UNL     1      28.623  49.644  42.159  1.00  0.00     0.016 C 
HETATM    2  C   UNL     1      29.601  50.182  41.069  1.00  0.00    -0.030 C 
HETATM    3  C   UNL     1      30.536  49.001  40.559  1.00  0.00     0.056 C 
HETATM    4  C   UNL     1      29.774  48.095  39.617  1.00  0.00     0.056 A 
HETATM    5  C   UNL     1      28.594  48.449  38.993  1.00  0.00     0.012 A 
HETATM    6  S   UNL     1      28.088  47.217  37.931  1.00  0.00    -0.055 SA
HETATM    7  C   UNL     1      29.444  46.294  38.403  1.00  0.00     0.174 A 
HETATM    8  N   UNL     1      30.251  46.842  39.279  1.00  0.00    -0.227 NA
HETATM    9  C   UNL     1      27.838  49.713  39.201  1.00  0.00     0.055 C 
HETATM   10  C   UNL     1      28.727  50.789  39.887  1.00  0.00     0.012 C 
HETATM   11  C   UNL     1      29.494  51.733  38.864  1.00  0.00     0.008 C 
HETATM   12  C   UNL     1      28.457  52.777  38.348  1.00  0.00     0.020 C 
HETATM   13  C   UNL     1      30.623  52.545  39.573  1.00  0.00     0.128 C 
HETATM   14  C   UNL     1      30.398  52.656  41.075  1.00  0.00     0.033 C 
HETATM   15  C   UNL     1      30.469  51.289  41.748  1.00  0.00     0.013 C 
ENDROOT
BRANCH   3  16
HETATM   16  C   UNL     1      31.199  48.205  41.704  1.00  0.00     0.114 C 
BRANCH  16  17
HETATM   17  C   UNL     1      32.715  48.232  41.656  1.00  0.00     0.218 C 
HETATM   18  N   UNL     1      33.292  49.445  41.934  1.00  0.00    -0.356 N 
HETATM   19  H   UNL     1      32.671  50.256  42.008  1.00  0.00     0.162 HD
HETATM   20  O   UNL     1      33.357  47.226  41.361  1.00  0.00    -0.274 OA
BRANCH  18  21
HETATM   21  C   UNL     1      34.693  49.695  41.684  1.00  0.00     0.084 C 
HETATM   22  C   UNL     1      34.948  50.150  40.249  1.00  0.00     0.025 C 
HETATM   23  C   UNL     1      36.234  50.971  40.304  1.00  0.00     0.002 C 
HETATM   24  C   UNL     1      36.519  51.235  41.781  1.00  0.00     0.002 C 
HETATM   25  C   UNL     1      35.254  50.834  42.525  1.00  0.00     0.025 C 
ENDBRANCH  18  21
ENDBRANCH  16  17
ENDBRANCH   3  16
BRANCH  11  26
HETATM   26  C   UNL     1      30.041  50.993  37.614  1.00  0.00     0.176 C 
BRANCH  26  27
HETATM   27  O   UNL     1      30.638  51.904  36.693  1.00  0.00    -0.400 OA
HETATM   28  H   UNL     1      29.995  52.638  36.619  1.00  0.00     0.209 HD
ENDBRANCH  26  27
ENDBRANCH  11  26
BRANCH   7  29
HETATM   29  N   UNL     1      29.539  45.083  37.787  1.00  0.00    -0.304 N 
HETATM   30  C   UNL     1      29.345  43.894  38.451  1.00  0.00     0.247 C 
HETATM   31  O   UNL     1      28.958  43.749  39.606  1.00  0.00    -0.271 OA
HETATM   32  H   UNL     1      29.791  45.062  36.807  1.00  0.00     0.171 HD
BRANCH  30  33
HETATM   33  C   UNL     1      29.608  42.690  37.543  1.00  0.00     0.270 C 
BRANCH  33  34
HETATM   34  O   UNL     1      30.220  41.597  38.227  1.00  0.00    -0.387 OA
HETATM   35  C   UNL     1      29.320  40.505  38.395  1.00  0.00     0.202 C 
ENDBRANCH  33  34
ENDBRANCH  30  33
ENDBRANCH   7  29
BRANCH  13  36
HETATM   36  O   UNL     1      31.900  51.946  39.335  1.00  0.00    -0.395 OA
HETATM   37  H   UNL     1      32.533  52.326  39.972  1.00  0.00     0.210 HD
ENDBRANCH  13  36
TORSDOF 9
ENDMDL
MODEL 3
REMARK VINA RESULT:      -7.7      6.490     12.477
REMARK  9 active torsions:
REMARK  status: ('A' for Active; 'I' for Inactive)
REMARK    1  A    between atoms: C_3  and  C_4 
REMARK    2  A    between atoms: C_4  and  C_5 
REMARK       I    between atoms: C_5  and  N_6 
REMARK    3  A    between atoms: N_6  and  C_7 
REMARK    4  A    between atoms: C_16  and  N_17 
REMARK       I    between atoms: N_17  and  C_18 
REMARK    5  A    between atoms: C_18  and  C_19 
REMARK    6  A    between atoms: C_19  and  O_20 
REMARK    7  A    between atoms: C_26  and  C_27 
REMARK    8  A    between atoms: C_27  and  O_28 
REMARK    9  A    between atoms: C_30  and  O_31 
ROOT
HETATM    1  C   UNL     1      16.805  47.516  49.349  1.00  0.00     0.016 C 
HETATM    2  C   UNL     1      16.992  48.504  48.156  1.00  0.00    -0.030 C 
HETATM    3  C   UNL     1      18.136  49.552  48.503  1.00  0.00     0.056 C 
HETATM    4  C   UNL     1      19.499  48.912  48.358  1.00  0.00     0.056 A 
HETATM    5  C   UNL     1      19.731  47.742  47.664  1.00  0.00     0.012 A 
HETATM    6  S   UNL     1      21.397  47.388  47.632  1.00  0.00    -0.055 SA
HETATM    7  C   UNL     1      21.682  48.786  48.569  1.00  0.00     0.174 A 
HETATM    8  N   UNL     1      20.632  49.502  48.889  1.00  0.00    -0.227 NA
HETATM    9  C   UNL     1      18.698  46.879  47.030  1.00  0.00     0.055 C 
HETATM   10  C   UNL     1      17.354  47.646  46.866  1.00  0.00     0.012 C 
HETATM   11  C   UNL     1      17.206  48.389  45.469  1.00  0.00     0.008 C 
HETATM   12  C   UNL     1      16.827  47.300  44.418  1.00  0.00     0.020 C 
HETATM   13  C   UNL     1      16.029  49.413  45.489  1.00  0.00     0.128 C 
HETATM   14  C   UNL     1      15.013  49.104  46.581  1.00  0.00     0.033 C 
HETATM   15  C   UNL     1      15.631  49.246  47.968  1.00  0.00     0.013 C 
ENDROOT
BRANCH   3  16
HETATM   16  C   UNL     1      17.962  50.216  49.886  1.00  0.00     0.114 C 
BRANCH  16  17
HETATM   17  C   UNL     1      17.624  51.693  49.806  1.00  0.00     0.218 C 
HETATM   18  N   UNL     1      16.331  52.020  50.125  1.00  0.00    -0.356 N 
HETATM   19  H   UNL     1      15.666  51.251  50.248  1.00  0.00     0.162 HD
HETATM   20  O   UNL     1      18.466  52.516  49.453  1.00  0.00    -0.274 OA
BRANCH  18  21
HETATM   21  C   UNL     1      15.791  53.334  49.855  1.00  0.00     0.084 C 
HETATM   22  C   UNL     1      14.947  53.357  48.583  1.00  0.00     0.025 C 
HETATM   23  C   UNL     1      13.962  54.509  48.769  1.00  0.00     0.002 C 
HETATM   24  C   UNL     1      14.040  54.915  50.239  1.00  0.00     0.002 C 
HETATM   25  C   UNL     1      14.827  53.813  50.932  1.00  0.00     0.025 C 
ENDBRANCH  18  21
ENDBRANCH  16  17
ENDBRANCH   3  16
BRANCH  11  26
HETATM   26  C   UNL     1      18.516  49.054  44.968  1.00  0.00     0.176 C 
BRANCH  26  27
HETATM   27  O   UNL     1      18.321  49.700  43.711  1.00  0.00    -0.400 OA
HETATM   28  H   UNL     1      18.159  48.969  43.081  1.00  0.00     0.209 HD
ENDBRANCH  26  27
ENDBRANCH  11  26
BRANCH   7  29
HETATM   29  N   UNL     1      22.994  49.006  48.861  1.00  0.00    -0.304 N 
HETATM   30  C   UNL     1      23.824  49.739  48.045  1.00  0.00     0.247 C 
HETATM   31  O   UNL     1      23.503  50.376  47.047  1.00  0.00    -0.271 OA
HETATM   32  H   UNL     1      23.376  48.587  49.699  1.00  0.00     0.171 HD
BRANCH  30  33
HETATM   33  C   UNL     1      25.265  49.745  48.564  1.00  0.00     0.270 C 
BRANCH  33  34
HETATM   34  O   UNL     1      25.507  48.742  49.551  1.00  0.00    -0.387 OA
HETATM   35  C   UNL     1      26.871  48.330  49.564  1.00  0.00     0.202 C 
ENDBRANCH  33  34
ENDBRANCH  30  33
ENDBRANCH   7  29
BRANCH  13  36
HETATM   36  O   UNL     1      16.522  50.744  45.673  1.00  0.00    -0.395 OA
HETATM   37  H   UNL     1      15.924  51.353  45.202  1.00  0.00     0.210 HD
ENDBRANCH  13  36
TORSDOF 9
ENDMDL
MODEL 4
REMARK VINA RESULT:      -7.7      8.221     12.797
REMARK  9 active torsions:
REMARK  status: ('A' for Active; 'I' for Inactive)
REMARK    1  A    between atoms: C_3  and  C_4 
REMARK    2  A    between atoms: C_4  and  C_5 
REMARK       I    between atoms: C_5  and  N_6 
REMARK    3  A    between atoms: N_6  and  C_7 
REMARK    4  A    between atoms: C_16  and  N_17 
REMARK       I    between atoms: N_17  and  C_18 
REMARK    5  A    between atoms: C_18  and  C_19 
REMARK    6  A    between atoms: C_19  and  O_20 
REMARK    7  A    between atoms: C_26  and  C_27 
REMARK    8  A    between atoms: C_27  and  O_28 
REMARK    9  A    between atoms: C_30  and  O_31 
ROOT
HETATM    1  C   UNL     1      17.842  52.731  45.627  1.00  0.00     0.016 C 
HETATM    2  C   UNL     1      17.696  51.391  46.414  1.00  0.00    -0.030 C 
HETATM    3  C   UNL     1      17.989  51.641  47.956  1.00  0.00     0.056 C 
HETATM    4  C   UNL     1      16.803  52.310  48.616  1.00  0.00     0.056 A 
HETATM    5  C   UNL     1      15.535  52.340  48.073  1.00  0.00     0.012 A 
HETATM    6  S   UNL     1      14.444  53.089  49.147  1.00  0.00    -0.055 SA
HETATM    7  C   UNL     1      15.737  53.348  50.231  1.00  0.00     0.174 A 
HETATM    8  N   UNL     1      16.913  52.907  49.859  1.00  0.00    -0.227 NA
HETATM    9  C   UNL     1      15.140  51.815  46.738  1.00  0.00     0.055 C 
HETATM   10  C   UNL     1      16.221  50.846  46.178  1.00  0.00     0.012 C 
HETATM   11  C   UNL     1      15.971  49.323  46.553  1.00  0.00     0.008 C 
HETATM   12  C   UNL     1      14.860  48.798  45.591  1.00  0.00     0.020 C 
HETATM   13  C   UNL     1      17.237  48.452  46.281  1.00  0.00     0.128 C 
HETATM   14  C   UNL     1      18.181  49.104  45.278  1.00  0.00     0.033 C 
HETATM   15  C   UNL     1      18.756  50.407  45.825  1.00  0.00     0.013 C 
ENDROOT
BRANCH   3  16
HETATM   16  C   UNL     1      19.298  52.418  48.214  1.00  0.00     0.114 C 
BRANCH  16  17
HETATM   17  C   UNL     1      20.292  51.653  49.069  1.00  0.00     0.218 C 
HETATM   18  N   UNL     1      21.454  51.287  48.438  1.00  0.00    -0.356 N 
HETATM   19  H   UNL     1      21.503  51.425  47.424  1.00  0.00     0.162 HD
HETATM   20  O   UNL     1      20.038  51.373  50.238  1.00  0.00    -0.274 OA
BRANCH  18  21
HETATM   21  C   UNL     1      22.378  50.348  49.031  1.00  0.00     0.084 C 
HETATM   22  C   UNL     1      21.960  48.900  48.785  1.00  0.00     0.025 C 
HETATM   23  C   UNL     1      23.251  48.088  48.849  1.00  0.00     0.002 C 
HETATM   24  C   UNL     1      24.400  49.093  48.813  1.00  0.00     0.002 C 
HETATM   25  C   UNL     1      23.774  50.424  48.428  1.00  0.00     0.025 C 
ENDBRANCH  18  21
ENDBRANCH  16  17
ENDBRANCH   3  16
BRANCH  11  26
HETATM   26  C   UNL     1      15.447  49.107  47.998  1.00  0.00     0.176 C 
BRANCH  26  27
HETATM   27  O   UNL     1      15.420  47.723  48.339  1.00  0.00    -0.400 OA
HETATM   28  H   UNL     1      15.312  47.710  49.312  1.00  0.00     0.209 HD
ENDBRANCH  26  27
ENDBRANCH  11  26
BRANCH   7  29
HETATM   29  N   UNL     1      15.381  53.979  51.385  1.00  0.00    -0.304 N 
HETATM   30  C   UNL     1      15.249  55.345  51.475  1.00  0.00     0.247 C 
HETATM   31  O   UNL     1      15.308  56.154  50.555  1.00  0.00    -0.271 OA
HETATM   32  H   UNL     1      15.236  53.417  52.214  1.00  0.00     0.171 HD
BRANCH  30  33
HETATM   33  C   UNL     1      14.938  55.789  52.907  1.00  0.00     0.270 C 
BRANCH  33  34
HETATM   34  O   UNL     1      13.894  56.761  52.976  1.00  0.00    -0.387 OA
HETATM   35  C   UNL     1      12.647  56.175  53.339  1.00  0.00     0.202 C 
ENDBRANCH  33  34
ENDBRANCH  30  33
ENDBRANCH   7  29
BRANCH  13  36
HETATM   36  O   UNL     1      17.948  48.203  47.497  1.00  0.00    -0.395 OA
HETATM   37  H   UNL     1      18.366  49.039  47.777  1.00  0.00     0.210 HD
ENDBRANCH  13  36
TORSDOF 9
ENDMDL
MODEL 5
REMARK VINA RESULT:      -7.6      9.412     13.072
REMARK  9 active torsions:
REMARK  status: ('A' for Active; 'I' for Inactive)
REMARK    1  A    between atoms: C_3  and  C_4 
REMARK    2  A    between atoms: C_4  and  C_5 
REMARK       I    between atoms: C_5  and  N_6 
REMARK    3  A    between atoms: N_6  and  C_7 
REMARK    4  A    between atoms: C_16  and  N_17 
REMARK       I    between atoms: N_17  and  C_18 
REMARK    5  A    between atoms: C_18  and  C_19 
REMARK    6  A    between atoms: C_19  and  O_20 
REMARK    7  A    between atoms: C_26  and  C_27 
REMARK    8  A    between atoms: C_27  and  O_28 
REMARK    9  A    between atoms: C_30  and  O_31 
ROOT
HETATM    1  C   UNL     1      18.206  51.966  46.085  1.00  0.00     0.016 C 
HETATM    2  C   UNL     1      18.124  51.214  47.449  1.00  0.00    -0.030 C 
HETATM    3  C   UNL     1      16.615  50.813  47.750  1.00  0.00     0.056 C 
HETATM    4  C   UNL     1      16.212  49.616  46.916  1.00  0.00     0.056 A 
HETATM    5  C   UNL     1      17.110  48.771  46.297  1.00  0.00     0.012 A 
HETATM    6  S   UNL     1      16.291  47.484  45.538  1.00  0.00    -0.055 SA
HETATM    7  C   UNL     1      14.812  48.160  46.054  1.00  0.00     0.174 A 
HETATM    8  N   UNL     1      14.884  49.262  46.760  1.00  0.00    -0.227 NA
HETATM    9  C   UNL     1      18.588  48.934  46.264  1.00  0.00     0.055 C 
HETATM   10  C   UNL     1      19.063  49.934  47.358  1.00  0.00     0.012 C 
HETATM   11  C   UNL     1      19.440  49.243  48.738  1.00  0.00     0.008 C 
HETATM   12  C   UNL     1      20.856  48.614  48.557  1.00  0.00     0.020 C 
HETATM   13  C   UNL     1      19.566  50.291  49.886  1.00  0.00     0.128 C 
HETATM   14  C   UNL     1      19.821  51.698  49.358  1.00  0.00     0.033 C 
HETATM   15  C   UNL     1      18.637  52.205  48.541  1.00  0.00     0.013 C 
ENDROOT
BRANCH   3  16
HETATM   16  C   UNL     1      15.624  51.984  47.583  1.00  0.00     0.114 C 
BRANCH  16  17
HETATM   17  C   UNL     1      15.149  52.564  48.902  1.00  0.00     0.218 C 
HETATM   18  N   UNL     1      14.890  53.911  48.896  1.00  0.00    -0.356 N 
HETATM   19  H   UNL     1      15.168  54.440  48.064  1.00  0.00     0.162 HD
HETATM   20  O   UNL     1      15.037  51.855  49.900  1.00  0.00    -0.274 OA
BRANCH  18  21
HETATM   21  C   UNL     1      14.678  54.649  50.120  1.00  0.00     0.084 C 
HETATM   22  C   UNL     1      15.250  56.063  50.042  1.00  0.00     0.025 C 
HETATM   23  C   UNL     1      14.431  56.888  51.031  1.00  0.00     0.002 C 
HETATM   24  C   UNL     1      13.225  56.035  51.416  1.00  0.00     0.002 C 
HETATM   25  C   UNL     1      13.205  54.877  50.430  1.00  0.00     0.025 C 
ENDBRANCH  18  21
ENDBRANCH  16  17
ENDBRANCH   3  16
BRANCH  11  26
HETATM   26  C   UNL     1      18.488  48.085  49.142  1.00  0.00     0.176 C 
BRANCH  26  27
HETATM   27  O   UNL     1      18.904  47.474  50.362  1.00  0.00    -0.400 OA
HETATM   28  H   UNL     1      18.250  46.761  50.516  1.00  0.00     0.209 HD
ENDBRANCH  26  27
ENDBRANCH  11  26
BRANCH   7  29
HETATM   29  N   UNL     1      13.711  47.450  45.680  1.00  0.00    -0.304 N 
HETATM   30  C   UNL     1      13.128  47.582  44.441  1.00  0.00     0.247 C 
HETATM   31  O   UNL     1      13.552  48.231  43.491  1.00  0.00    -0.271 OA
HETATM   32  H   UNL     1      13.293  46.822  46.354  1.00  0.00     0.171 HD
BRANCH  30  33
HETATM   33  C   UNL     1      11.853  46.742  44.325  1.00  0.00     0.270 C 
BRANCH  33  34
HETATM   34  O   UNL     1      11.974  45.455  44.932  1.00  0.00    -0.387 OA
HETATM   35  C   UNL     1      12.302  44.448  43.978  1.00  0.00     0.202 C 
ENDBRANCH  33  34
ENDBRANCH  30  33
ENDBRANCH   7  29
BRANCH  13  36
HETATM   36  O   UNL     1      18.382  50.303  50.691  1.00  0.00    -0.395 OA
HETATM   37  H   UNL     1      18.644  50.118  51.611  1.00  0.00     0.210 HD
ENDBRANCH  13  36
TORSDOF 9
ENDMDL
MODEL 6
REMARK VINA RESULT:      -7.5      3.278      6.293
REMARK  9 active torsions:
REMARK  status: ('A' for Active; 'I' for Inactive)
REMARK    1  A    between atoms: C_3  and  C_4 
REMARK    2  A    between atoms: C_4  and  C_5 
REMARK       I    between atoms: C_5  and  N_6 
REMARK    3  A    between atoms: N_6  and  C_7 
REMARK    4  A    between atoms: C_16  and  N_17 
REMARK       I    between atoms: N_17  and  C_18 
REMARK    5  A    between atoms: C_18  and  C_19 
REMARK    6  A    between atoms: C_19  and  O_20 
REMARK    7  A    between atoms: C_26  and  C_27 
REMARK    8  A    between atoms: C_27  and  O_28 
REMARK    9  A    between atoms: C_30  and  O_31 
ROOT
HETATM    1  C   UNL     1      24.812  43.671  53.665  1.00  0.00     0.016 C 
HETATM    2  C   UNL     1      25.706  44.673  52.870  1.00  0.00    -0.030 C 
HETATM    3  C   UNL     1      27.155  44.050  52.665  1.00  0.00     0.056 C 
HETATM    4  C   UNL     1      27.129  43.004  51.572  1.00  0.00     0.056 A 
HETATM    5  C   UNL     1      26.116  42.886  50.642  1.00  0.00     0.012 A 
HETATM    6  S   UNL     1      26.483  41.664  49.513  1.00  0.00    -0.055 SA
HETATM    7  C   UNL     1      27.933  41.358  50.360  1.00  0.00     0.174 A 
HETATM    8  N   UNL     1      28.169  42.107  51.409  1.00  0.00    -0.227 NA
HETATM    9  C   UNL     1      24.863  43.687  50.604  1.00  0.00     0.055 C 
HETATM   10  C   UNL     1      24.992  44.966  51.480  1.00  0.00     0.012 C 
HETATM   11  C   UNL     1      25.511  46.239  50.683  1.00  0.00     0.008 C 
HETATM   12  C   UNL     1      24.295  46.793  49.877  1.00  0.00     0.020 C 
HETATM   13  C   UNL     1      25.954  47.378  51.652  1.00  0.00     0.128 C 
HETATM   14  C   UNL     1      25.326  47.239  53.033  1.00  0.00     0.033 C 
HETATM   15  C   UNL     1      25.804  45.970  53.733  1.00  0.00     0.013 C 
ENDROOT
BRANCH   3  16
HETATM   16  C   UNL     1      27.778  43.501  53.966  1.00  0.00     0.114 C 
BRANCH  16  17
HETATM   17  C   UNL     1      28.803  44.434  54.583  1.00  0.00     0.218 C 
HETATM   18  N   UNL     1      29.741  43.834  55.383  1.00  0.00    -0.356 N 
HETATM   19  H   UNL     1      29.598  42.847  55.618  1.00  0.00     0.162 HD
HETATM   20  O   UNL     1      28.757  45.646  54.382  1.00  0.00    -0.274 OA
BRANCH  18  21
HETATM   21  C   UNL     1      30.618  44.604  56.235  1.00  0.00     0.084 C 
HETATM   22  C   UNL     1      29.847  45.590  57.110  1.00  0.00     0.025 C 
HETATM   23  C   UNL     1      30.727  45.820  58.336  1.00  0.00     0.002 C 
HETATM   24  C   UNL     1      31.814  44.748  58.300  1.00  0.00     0.002 C 
HETATM   25  C   UNL     1      31.373  43.747  57.243  1.00  0.00     0.025 C 
ENDBRANCH  18  21
ENDBRANCH  16  17
ENDBRANCH   3  16
BRANCH  11  26
HETATM   26  C   UNL     1      26.624  45.923  49.648  1.00  0.00     0.176 C 
BRANCH  26  27
HETATM   27  O   UNL     1      27.182  47.118  49.106  1.00  0.00    -0.400 OA
HETATM   28  H   UNL     1      28.021  47.243  49.595  1.00  0.00     0.209 HD
ENDBRANCH  26  27
ENDBRANCH  11  26
BRANCH   7  29
HETATM   29  N   UNL     1      28.695  40.365  49.823  1.00  0.00    -0.304 N 
HETATM   30  C   UNL     1      28.249  39.070  49.698  1.00  0.00     0.247 C 
HETATM   31  O   UNL     1      27.117  38.655  49.923  1.00  0.00    -0.271 OA
HETATM   32  H   UNL     1      29.638  40.588  49.533  1.00  0.00     0.171 HD
BRANCH  30  33
HETATM   33  C   UNL     1      29.342  38.146  49.155  1.00  0.00     0.270 C 
BRANCH  33  34
HETATM   34  O   UNL     1      30.385  37.901  50.098  1.00  0.00    -0.387 OA
HETATM   35  C   UNL     1      29.920  37.163  51.224  1.00  0.00     0.202 C 
ENDBRANCH  33  34
ENDBRANCH  30  33
ENDBRANCH   7  29
BRANCH  13  36
HETATM   36  O   UNL     1      27.379  47.399  51.788  1.00  0.00    -0.395 OA
HETATM   37  H   UNL     1      27.589  47.613  52.715  1.00  0.00     0.210 HD
ENDBRANCH  13  36
TORSDOF 9
ENDMDL
MODEL 7
REMARK VINA RESULT:      -7.4      5.242     10.233
REMARK  9 active torsions:
REMARK  status: ('A' for Active; 'I' for Inactive)
REMARK    1  A    between atoms: C_3  and  C_4 
REMARK    2  A    between atoms: C_4  and  C_5 
REMARK       I    between atoms: C_5  and  N_6 
REMARK    3  A    between atoms: N_6  and  C_7 
REMARK    4  A    between atoms: C_16  and  N_17 
REMARK       I    between atoms: N_17  and  C_18 
REMARK    5  A    between atoms: C_18  and  C_19 
REMARK    6  A    between atoms: C_19  and  O_20 
REMARK    7  A    between atoms: C_26  and  C_27 
REMARK    8  A    between atoms: C_27  and  O_28 
REMARK    9  A    between atoms: C_30  and  O_31 
ROOT
HETATM    1  C   UNL     1      19.401  49.941  45.640  1.00  0.00     0.016 C 
HETATM    2  C   UNL     1      19.055  49.270  47.005  1.00  0.00    -0.030 C 
HETATM    3  C   UNL     1      20.223  48.275  47.424  1.00  0.00     0.056 C 
HETATM    4  C   UNL     1      21.409  49.050  47.956  1.00  0.00     0.056 A 
HETATM    5  C   UNL     1      21.345  50.362  48.378  1.00  0.00     0.012 A 
HETATM    6  S   UNL     1      22.850  50.860  49.005  1.00  0.00    -0.055 SA
HETATM    7  C   UNL     1      23.480  49.317  48.637  1.00  0.00     0.174 A 
HETATM    8  N   UNL     1      22.651  48.457  48.097  1.00  0.00    -0.227 NA
HETATM    9  C   UNL     1      20.155  51.251  48.302  1.00  0.00     0.055 C 
HETATM   10  C   UNL     1      18.856  50.425  48.080  1.00  0.00     0.012 C 
HETATM   11  C   UNL     1      18.123  50.007  49.426  1.00  0.00     0.008 C 
HETATM   12  C   UNL     1      17.354  51.267  49.931  1.00  0.00     0.020 C 
HETATM   13  C   UNL     1      17.048  48.905  49.174  1.00  0.00     0.128 C 
HETATM   14  C   UNL     1      16.589  48.868  47.722  1.00  0.00     0.033 C 
HETATM   15  C   UNL     1      17.730  48.471  46.791  1.00  0.00     0.013 C 
ENDROOT
BRANCH   3  16
HETATM   16  C   UNL     1      20.636  47.303  46.297  1.00  0.00     0.114 C 
BRANCH  16  17
HETATM   17  C   UNL     1      21.446  46.120  46.791  1.00  0.00     0.218 C 
HETATM   18  N   UNL     1      21.078  45.621  48.015  1.00  0.00    -0.356 N 
HETATM   19  H   UNL     1      20.397  46.161  48.557  1.00  0.00     0.162 HD
HETATM   20  O   UNL     1      22.381  45.673  46.130  1.00  0.00    -0.274 OA
BRANCH  18  21
HETATM   21  C   UNL     1      21.901  44.672  48.728  1.00  0.00     0.084 C 
HETATM   22  C   UNL     1      22.265  43.466  47.865  1.00  0.00     0.025 C 
HETATM   23  C   UNL     1      23.576  42.935  48.439  1.00  0.00     0.002 C 
HETATM   24  C   UNL     1      24.098  44.006  49.395  1.00  0.00     0.002 C 
HETATM   25  C   UNL     1      23.254  45.243  49.131  1.00  0.00     0.025 C 
ENDBRANCH  18  21
ENDBRANCH  16  17
ENDBRANCH   3  16
BRANCH  11  26
HETATM   26  C   UNL     1      19.091  49.591  50.566  1.00  0.00     0.176 C 
BRANCH  26  27
HETATM   27  O   UNL     1      18.377  49.103  51.701  1.00  0.00    -0.400 OA
HETATM   28  H   UNL     1      18.976  48.442  52.104  1.00  0.00     0.209 HD
ENDBRANCH  26  27
ENDBRANCH  11  26
BRANCH   7  29
HETATM   29  N   UNL     1      24.790  49.154  48.972  1.00  0.00    -0.304 N 
HETATM   30  C   UNL     1      25.820  49.660  48.214  1.00  0.00     0.247 C 
HETATM   31  O   UNL     1      25.725  50.398  47.239  1.00  0.00    -0.271 OA
HETATM   32  H   UNL     1      25.010  48.613  49.798  1.00  0.00     0.171 HD
BRANCH  30  33
HETATM   33  C   UNL     1      27.186  49.245  48.767  1.00  0.00     0.270 C 
BRANCH  33  34
HETATM   34  O   UNL     1      27.092  48.348  49.874  1.00  0.00    -0.387 OA
HETATM   35  C   UNL     1      27.324  46.997  49.483  1.00  0.00     0.202 C 
ENDBRANCH  33  34
ENDBRANCH  30  33
ENDBRANCH   7  29
BRANCH  13  36
HETATM   36  O   UNL     1      17.553  47.616  49.537  1.00  0.00    -0.395 OA
HETATM   37  H   UNL     1      18.189  47.738  50.265  1.00  0.00     0.210 HD
ENDBRANCH  13  36
TORSDOF 9
ENDMDL
MODEL 8
REMARK VINA RESULT:      -7.3      5.079      9.653
REMARK  9 active torsions:
REMARK  status: ('A' for Active; 'I' for Inactive)
REMARK    1  A    between atoms: C_3  and  C_4 
REMARK    2  A    between atoms: C_4  and  C_5 
REMARK       I    between atoms: C_5  and  N_6 
REMARK    3  A    between atoms: N_6  and  C_7 
REMARK    4  A    between atoms: C_16  and  N_17 
REMARK       I    between atoms: N_17  and  C_18 
REMARK    5  A    between atoms: C_18  and  C_19 
REMARK    6  A    between atoms: C_19  and  O_20 
REMARK    7  A    between atoms: C_26  and  C_27 
REMARK    8  A    between atoms: C_27  and  O_28 
REMARK    9  A    between atoms: C_30  and  O_31 
ROOT
HETATM    1  C   UNL     1      19.153  49.742  50.704  1.00  0.00     0.016 C 
HETATM    2  C   UNL     1      19.132  49.895  49.152  1.00  0.00    -0.030 C 
HETATM    3  C   UNL     1      20.486  49.329  48.540  1.00  0.00     0.056 C 
HETATM    4  C   UNL     1      20.463  47.816  48.522  1.00  0.00     0.056 A 
HETATM    5  C   UNL     1      19.314  47.061  48.644  1.00  0.00     0.012 A 
HETATM    6  S   UNL     1      19.668  45.403  48.475  1.00  0.00    -0.055 SA
HETATM    7  C   UNL     1      21.316  45.805  48.289  1.00  0.00     0.174 A 
HETATM    8  N   UNL     1      21.618  47.080  48.329  1.00  0.00    -0.227 NA
HETATM    9  C   UNL     1      17.945  47.584  48.900  1.00  0.00     0.055 C 
HETATM   10  C   UNL     1      17.865  49.109  48.601  1.00  0.00     0.012 C 
HETATM   11  C   UNL     1      17.425  49.447  47.112  1.00  0.00     0.008 C 
HETATM   12  C   UNL     1      15.879  49.253  47.043  1.00  0.00     0.020 C 
HETATM   13  C   UNL     1      17.698  50.943  46.763  1.00  0.00     0.128 C 
HETATM   14  C   UNL     1      17.807  51.816  48.006  1.00  0.00     0.033 C 
HETATM   15  C   UNL     1      19.015  51.424  48.853  1.00  0.00     0.013 C 
ENDROOT
BRANCH   3  16
HETATM   16  C   UNL     1      21.751  49.871  49.239  1.00  0.00     0.114 C 
BRANCH  16  17
HETATM   17  C   UNL     1      23.033  49.560  48.489  1.00  0.00     0.218 C 
HETATM   18  N   UNL     1      23.986  48.882  49.205  1.00  0.00    -0.356 N 
HETATM   19  H   UNL     1      23.826  48.766  50.210  1.00  0.00     0.162 HD
HETATM   20  O   UNL     1      23.189  49.925  47.325  1.00  0.00    -0.274 OA
BRANCH  18  21
HETATM   21  C   UNL     1      25.340  48.737  48.721  1.00  0.00     0.084 C 
HETATM   22  C   UNL     1      26.070  50.076  48.650  1.00  0.00     0.025 C 
HETATM   23  C   UNL     1      27.553  49.739  48.781  1.00  0.00     0.002 C 
HETATM   24  C   UNL     1      27.630  48.282  49.234  1.00  0.00     0.002 C 
HETATM   25  C   UNL     1      26.216  47.902  49.645  1.00  0.00     0.025 C 
ENDBRANCH  18  21
ENDBRANCH  16  17
ENDBRANCH   3  16
BRANCH  11  26
HETATM   26  C   UNL     1      18.041  48.504  46.044  1.00  0.00     0.176 C 
BRANCH  26  27
HETATM   27  O   UNL     1      17.530  48.791  44.743  1.00  0.00    -0.400 OA
HETATM   28  H   UNL     1      16.767  49.384  44.903  1.00  0.00     0.209 HD
ENDBRANCH  26  27
ENDBRANCH  11  26
BRANCH   7  29
HETATM   29  N   UNL     1      22.136  44.734  48.099  1.00  0.00    -0.304 N 
HETATM   30  C   UNL     1      22.473  43.867  49.112  1.00  0.00     0.247 C 
HETATM   31  O   UNL     1      22.020  43.852  50.252  1.00  0.00    -0.271 OA
HETATM   32  H   UNL     1      22.532  44.590  47.179  1.00  0.00     0.171 HD
BRANCH  30  33
HETATM   33  C   UNL     1      23.482  42.815  48.643  1.00  0.00     0.270 C 
BRANCH  33  34
HETATM   34  O   UNL     1      23.034  41.477  48.856  1.00  0.00    -0.387 OA
HETATM   35  C   UNL     1      22.582  40.870  47.648  1.00  0.00     0.202 C 
ENDBRANCH  33  34
ENDBRANCH  30  33
ENDBRANCH   7  29
BRANCH  13  36
HETATM   36  O   UNL     1      18.899  51.071  45.995  1.00  0.00    -0.395 OA
HETATM   37  H   UNL     1      18.814  50.500  45.209  1.00  0.00     0.210 HD
ENDBRANCH  13  36
TORSDOF 9
ENDMDL
MODEL 9
REMARK VINA RESULT:      -7.3     11.849     14.787
REMARK  9 active torsions:
REMARK  status: ('A' for Active; 'I' for Inactive)
REMARK    1  A    between atoms: C_3  and  C_4 
REMARK    2  A    between atoms: C_4  and  C_5 
REMARK       I    between atoms: C_5  and  N_6 
REMARK    3  A    between atoms: N_6  and  C_7 
REMARK    4  A    between atoms: C_16  and  N_17 
REMARK       I    between atoms: N_17  and  C_18 
REMARK    5  A    between atoms: C_18  and  C_19 
REMARK    6  A    between atoms: C_19  and  O_20 
REMARK    7  A    between atoms: C_26  and  C_27 
REMARK    8  A    between atoms: C_27  and  O_28 
REMARK    9  A    between atoms: C_30  and  O_31 
ROOT
HETATM    1  C   UNL     1      30.125  51.807  37.488  1.00  0.00     0.016 C 
HETATM    2  C   UNL     1      29.594  51.610  38.942  1.00  0.00    -0.030 C 
HETATM    3  C   UNL     1      28.489  50.467  38.959  1.00  0.00     0.056 C 
HETATM    4  C   UNL     1      29.139  49.104  38.871  1.00  0.00     0.056 A 
HETATM    5  C   UNL     1      30.474  48.869  39.131  1.00  0.00     0.012 A 
HETATM    6  S   UNL     1      30.817  47.203  39.031  1.00  0.00    -0.055 SA
HETATM    7  C   UNL     1      29.186  46.923  38.615  1.00  0.00     0.174 A 
HETATM    8  N   UNL     1      28.404  47.973  38.561  1.00  0.00    -0.227 NA
HETATM    9  C   UNL     1      31.500  49.898  39.447  1.00  0.00     0.055 C 
HETATM   10  C   UNL     1      30.834  51.240  39.867  1.00  0.00     0.012 C 
HETATM   11  C   UNL     1      30.603  51.377  41.433  1.00  0.00     0.008 C 
HETATM   12  C   UNL     1      31.981  51.751  42.061  1.00  0.00     0.020 C 
HETATM   13  C   UNL     1      29.632  52.553  41.766  1.00  0.00     0.128 C 
HETATM   14  C   UNL     1      29.558  53.577  40.641  1.00  0.00     0.033 C 
HETATM   15  C   UNL     1      28.958  52.968  39.377  1.00  0.00     0.013 C 
ENDROOT
BRANCH   3  16
HETATM   16  C   UNL     1      27.400  50.649  37.879  1.00  0.00     0.114 C 
BRANCH  16  17
HETATM   17  C   UNL     1      26.302  49.605  37.950  1.00  0.00     0.218 C 
HETATM   18  N   UNL     1      25.791  49.370  39.201  1.00  0.00    -0.356 N 
HETATM   19  H   UNL     1      26.275  49.798  39.996  1.00  0.00     0.162 HD
HETATM   20  O   UNL     1      25.931  49.007  36.942  1.00  0.00    -0.274 OA
BRANCH  18  21
HETATM   21  C   UNL     1      24.931  48.240  39.470  1.00  0.00     0.084 C 
HETATM   22  C   UNL     1      25.377  47.462  40.706  1.00  0.00     0.025 C 
HETATM   23  C   UNL     1      24.116  46.783  41.236  1.00  0.00     0.002 C 
HETATM   24  C   UNL     1      22.938  47.421  40.504  1.00  0.00     0.002 C 
HETATM   25  C   UNL     1      23.501  48.646  39.801  1.00  0.00     0.025 C 
ENDBRANCH  18  21
ENDBRANCH  16  17
ENDBRANCH   3  16
BRANCH  11  26
HETATM   26  C   UNL     1      30.142  50.063  42.119  1.00  0.00     0.176 C 
BRANCH  26  27
HETATM   27  O   UNL     1      31.192  49.489  42.896  1.00  0.00    -0.400 OA
HETATM   28  H   UNL     1      30.773  48.732  43.355  1.00  0.00     0.209 HD
ENDBRANCH  26  27
ENDBRANCH  11  26
BRANCH   7  29
HETATM   29  N   UNL     1      28.879  45.612  38.405  1.00  0.00    -0.304 N 
HETATM   30  C   UNL     1      28.461  44.776  39.413  1.00  0.00     0.247 C 
HETATM   31  O   UNL     1      28.196  45.088  40.569  1.00  0.00    -0.271 OA
HETATM   32  H   UNL     1      28.992  45.237  37.472  1.00  0.00     0.171 HD
BRANCH  30  33
HETATM   33  C   UNL     1      28.281  43.338  38.917  1.00  0.00     0.270 C 
BRANCH  33  34
HETATM   34  O   UNL     1      29.020  42.386  39.681  1.00  0.00    -0.387 OA
HETATM   35  C   UNL     1      28.175  41.623  40.538  1.00  0.00     0.202 C 
ENDBRANCH  33  34
ENDBRANCH  30  33
ENDBRANCH   7  29
BRANCH  13  36
HETATM   36  O   UNL     1      28.316  52.059  42.035  1.00  0.00    -0.395 OA
HETATM   37  H   UNL     1      28.273  51.821  42.980  1.00  0.00     0.210 HD
ENDBRANCH  13  36
TORSDOF 9
ENDMDL
MODEL 10
REMARK VINA RESULT:      -7.2      7.437     11.280
REMARK  9 active torsions:
REMARK  status: ('A' for Active; 'I' for Inactive)
REMARK    1  A    between atoms: C_3  and  C_4 
REMARK    2  A    between atoms: C_4  and  C_5 
REMARK       I    between atoms: C_5  and  N_6 
REMARK    3  A    between atoms: N_6  and  C_7 
REMARK    4  A    between atoms: C_16  and  N_17 
REMARK       I    between atoms: N_17  and  C_18 
REMARK    5  A    between atoms: C_18  and  C_19 
REMARK    6  A    between atoms: C_19  and  O_20 
REMARK    7  A    between atoms: C_26  and  C_27 
REMARK    8  A    between atoms: C_27  and  O_28 
REMARK    9  A    between atoms: C_30  and  O_31 
ROOT
HETATM    1  C   UNL     1      16.940  47.091  48.499  1.00  0.00     0.016 C 
HETATM    2  C   UNL     1      17.838  48.367  48.519  1.00  0.00    -0.030 C 
HETATM    3  C   UNL     1      18.778  48.380  47.236  1.00  0.00     0.056 C 
HETATM    4  C   UNL     1      17.991  48.792  46.011  1.00  0.00     0.056 A 
HETATM    5  C   UNL     1      16.768  49.430  46.060  1.00  0.00     0.012 A 
HETATM    6  S   UNL     1      16.240  49.826  44.488  1.00  0.00    -0.055 SA
HETATM    7  C   UNL     1      17.648  49.093  43.863  1.00  0.00     0.174 A 
HETATM    8  N   UNL     1      18.487  48.590  44.736  1.00  0.00    -0.227 NA
HETATM    9  C   UNL     1      15.986  49.735  47.287  1.00  0.00     0.055 C 
HETATM   10  C   UNL     1      16.880  49.636  48.557  1.00  0.00     0.012 C 
HETATM   11  C   UNL     1      17.558  51.011  48.972  1.00  0.00     0.008 C 
HETATM   12  C   UNL     1      16.461  51.857  49.690  1.00  0.00     0.020 C 
HETATM   13  C   UNL     1      18.700  50.794  50.013  1.00  0.00     0.128 C 
HETATM   14  C   UNL     1      18.557  49.473  50.759  1.00  0.00     0.033 C 
HETATM   15  C   UNL     1      18.708  48.285  49.813  1.00  0.00     0.013 C 
ENDROOT
BRANCH   3  16
HETATM   16  C   UNL     1      19.528  47.050  47.011  1.00  0.00     0.114 C 
BRANCH  16  17
HETATM   17  C   UNL     1      21.037  47.192  47.085  1.00  0.00     0.218 C 
HETATM   18  N   UNL     1      21.495  48.266  47.805  1.00  0.00    -0.356 N 
HETATM   19  H   UNL     1      20.804  48.958  48.109  1.00  0.00     0.162 HD
HETATM   20  O   UNL     1      21.776  46.396  46.508  1.00  0.00    -0.274 OA
BRANCH  18  21
HETATM   21  C   UNL     1      22.879  48.678  47.758  1.00  0.00     0.084 C 
HETATM   22  C   UNL     1      23.024  50.197  47.716  1.00  0.00     0.025 C 
HETATM   23  C   UNL     1      24.397  50.491  48.316  1.00  0.00     0.002 C 
HETATM   24  C   UNL     1      24.874  49.196  48.968  1.00  0.00     0.002 C 
HETATM   25  C   UNL     1      23.661  48.278  49.002  1.00  0.00     0.025 C 
ENDBRANCH  18  21
ENDBRANCH  16  17
ENDBRANCH   3  16
BRANCH  11  26
HETATM   26  C   UNL     1      18.055  51.856  47.769  1.00  0.00     0.176 C 
BRANCH  26  27
HETATM   27  O   UNL     1      18.641  53.082  48.203  1.00  0.00    -0.400 OA
HETATM   28  H   UNL     1      18.534  53.076  49.176  1.00  0.00     0.209 HD
ENDBRANCH  26  27
ENDBRANCH  11  26
BRANCH   7  29
HETATM   29  N   UNL     1      17.745  49.136  42.505  1.00  0.00    -0.304 N 
HETATM   30  C   UNL     1      18.362  50.168  41.836  1.00  0.00     0.247 C 
HETATM   31  O   UNL     1      18.992  51.096  42.331  1.00  0.00    -0.271 OA
HETATM   32  H   UNL     1      17.320  48.390  41.969  1.00  0.00     0.171 HD
BRANCH  30  33
HETATM   33  C   UNL     1      18.239  50.010  40.318  1.00  0.00     0.270 C 
BRANCH  33  34
HETATM   34  O   UNL     1      19.483  50.172  39.637  1.00  0.00    -0.387 OA
HETATM   35  C   UNL     1      20.155  48.929  39.455  1.00  0.00     0.202 C 
ENDBRANCH  33  34
ENDBRANCH  30  33
ENDBRANCH   7  29
BRANCH  13  36
HETATM   36  O   UNL     1      19.979  50.833  49.374  1.00  0.00    -0.395 OA
HETATM   37  H   UNL     1      19.931  50.281  48.572  1.00  0.00     0.210 HD
ENDBRANCH  13  36
TORSDOF 9
ENDMDL
