MODEL 1
REMARK VINA RESULT:      -9.6      0.000      0.000
REMARK  5 active torsions:
REMARK  status: ('A' for Active; 'I' for Inactive)
REMARK    1  A    between atoms: C_4  and  C_5 
REMARK    2  A    between atoms: C_13  and  C_14 
REMARK       I    between atoms: C_14  and  N_15 
REMARK    3  A    between atoms: N_15  and  C_16 
REMARK    4  A    between atoms: C_17  and  N_18 
REMARK    5  A    between atoms: C_21  and  O_22 
ROOT
HETATM    1  C   UNL     1      25.712  44.711  51.854  1.00  0.00     0.258 C 
HETATM    2  N   UNL     1      25.983  44.748  50.507  1.00  0.00    -0.321 N 
HETATM    3  O   UNL     1      24.624  44.523  52.387  1.00  0.00    -0.267 OA
HETATM    4  H   UNL     1      26.824  45.198  50.160  1.00  0.00     0.169 HD
ENDROOT
BRANCH   2   5
HETATM    5  C   UNL     1      25.147  44.232  49.485  1.00  0.00     0.056 A 
HETATM    6  C   UNL     1      25.308  42.868  49.128  1.00  0.00     0.037 A 
HETATM    7  C   UNL     1      24.391  42.318  48.213  1.00  0.00     0.026 A 
HETATM    8  C   UNL     1      23.366  43.091  47.659  1.00  0.00     0.002 A 
HETATM    9  C   UNL     1      23.243  44.433  47.998  1.00  0.00     0.002 A 
HETATM   10  C   UNL     1      24.133  45.002  48.907  1.00  0.00     0.031 A 
BRANCH   6  11
HETATM   11  N   UNL     1      26.428  42.137  49.636  1.00  0.00    -0.281 NA
HETATM   12  C   UNL     1      27.027  41.357  48.525  1.00  0.00     0.098 C 
HETATM   13  C   UNL     1      28.345  40.733  48.988  1.00  0.00     0.046 C 
HETATM   14  C   UNL     1      28.153  39.886  50.242  1.00  0.00     0.120 C 
HETATM   15  C   UNL     1      27.434  40.673  51.335  1.00  0.00     0.046 C 
HETATM   16  C   UNL     1      26.137  41.284  50.808  1.00  0.00     0.098 C 
BRANCH  14  17
HETATM   17  O   UNL     1      27.397  38.715  49.933  1.00  0.00    -0.395 OA
HETATM   18  H   UNL     1      26.759  38.576  50.655  1.00  0.00     0.210 HD
ENDBRANCH  14  17
ENDBRANCH   6  11
ENDBRANCH   2   5
BRANCH   1  19
HETATM   19  C   UNL     1      26.874  44.873  52.738  1.00  0.00     0.056 A 
HETATM   20  C   UNL     1      26.958  45.889  53.681  1.00  0.00     0.047 A 
HETATM   21  C   UNL     1      25.971  47.017  53.717  1.00  0.00     0.071 C 
HETATM   22  N   UNL     1      27.923  45.898  54.644  1.00  0.00    -0.252 NA
HETATM   23  C   UNL     1      28.808  44.864  54.709  1.00  0.00     0.067 A 
HETATM   24  C   UNL     1      28.785  43.838  53.764  1.00  0.00     0.033 A 
HETATM   25  C   UNL     1      27.811  43.844  52.768  1.00  0.00     0.021 A 
BRANCH  23  26
HETATM   26  C   UNL     1      29.714  44.857  55.886  1.00  0.00    -0.007 A 
HETATM   27  C   UNL     1      29.549  45.797  56.922  1.00  0.00     0.014 A 
HETATM   28  C   UNL     1      30.344  45.774  58.074  1.00  0.00     0.001 A 
HETATM   29  C   UNL     1      31.333  44.808  58.217  1.00  0.00     0.000 A 
HETATM   30  C   UNL     1      31.533  43.875  57.205  1.00  0.00     0.001 A 
HETATM   31  C   UNL     1      30.738  43.904  56.053  1.00  0.00     0.014 A 
ENDBRANCH  23  26
ENDBRANCH   1  19
TORSDOF 5
ENDMDL
MODEL 2
REMARK VINA RESULT:      -9.1      1.814      2.359
REMARK  5 active torsions:
REMARK  status: ('A' for Active; 'I' for Inactive)
REMARK    1  A    between atoms: C_4  and  C_5 
REMARK    2  A    between atoms: C_13  and  C_14 
REMARK       I    between atoms: C_14  and  N_15 
REMARK    3  A    between atoms: N_15  and  C_16 
REMARK    4  A    between atoms: C_17  and  N_18 
REMARK    5  A    between atoms: C_21  and  O_22 
ROOT
HETATM    1  C   UNL     1      26.992  43.119  51.341  1.00  0.00     0.258 C 
HETATM    2  N   UNL     1      25.951  42.224  51.291  1.00  0.00    -0.321 N 
HETATM    3  O   UNL     1      27.447  43.780  50.412  1.00  0.00    -0.267 OA
HETATM    4  H   UNL     1      25.841  41.517  52.012  1.00  0.00     0.169 HD
ENDROOT
BRANCH   2   5
HETATM    5  C   UNL     1      24.979  42.147  50.262  1.00  0.00     0.056 A 
HETATM    6  C   UNL     1      25.212  41.232  49.203  1.00  0.00     0.037 A 
HETATM    7  C   UNL     1      24.188  41.054  48.254  1.00  0.00     0.026 A 
HETATM    8  C   UNL     1      22.988  41.766  48.339  1.00  0.00     0.002 A 
HETATM    9  C   UNL     1      22.790  42.680  49.368  1.00  0.00     0.002 A 
HETATM   10  C   UNL     1      23.784  42.871  50.324  1.00  0.00     0.031 A 
BRANCH   6  11
HETATM   11  N   UNL     1      26.490  40.599  49.091  1.00  0.00    -0.281 NA
HETATM   12  C   UNL     1      27.044  40.885  47.745  1.00  0.00     0.098 C 
HETATM   13  C   UNL     1      28.493  40.401  47.671  1.00  0.00     0.046 C 
HETATM   14  C   UNL     1      28.608  38.922  48.033  1.00  0.00     0.120 C 
HETATM   15  C   UNL     1      27.932  38.628  49.370  1.00  0.00     0.046 C 
HETATM   16  C   UNL     1      26.497  39.150  49.387  1.00  0.00     0.098 C 
BRANCH  14  17
HETATM   17  O   UNL     1      28.005  38.121  47.016  1.00  0.00    -0.395 OA
HETATM   18  H   UNL     1      27.816  37.247  47.403  1.00  0.00     0.210 HD
ENDBRANCH  14  17
ENDBRANCH   6  11
ENDBRANCH   2   5
BRANCH   1  19
HETATM   19  C   UNL     1      27.584  43.329  52.668  1.00  0.00     0.056 A 
HETATM   20  C   UNL     1      28.466  42.423  53.243  1.00  0.00     0.047 A 
HETATM   21  C   UNL     1      28.708  41.069  52.647  1.00  0.00     0.071 C 
HETATM   22  N   UNL     1      29.182  42.730  54.362  1.00  0.00    -0.252 NA
HETATM   23  C   UNL     1      29.061  43.971  54.912  1.00  0.00     0.067 A 
HETATM   24  C   UNL     1      28.164  44.903  54.390  1.00  0.00     0.033 A 
HETATM   25  C   UNL     1      27.417  44.578  53.259  1.00  0.00     0.021 A 
BRANCH  23  26
HETATM   26  C   UNL     1      30.000  44.286  56.019  1.00  0.00    -0.007 A 
HETATM   27  C   UNL     1      29.818  45.443  56.803  1.00  0.00     0.014 A 
HETATM   28  C   UNL     1      30.645  45.733  57.894  1.00  0.00     0.001 A 
HETATM   29  C   UNL     1      31.684  44.871  58.228  1.00  0.00     0.000 A 
HETATM   30  C   UNL     1      31.901  43.729  57.464  1.00  0.00     0.001 A 
HETATM   31  C   UNL     1      31.072  43.445  56.371  1.00  0.00     0.014 A 
ENDBRANCH  23  26
ENDBRANCH   1  19
TORSDOF 5
ENDMDL
MODEL 3
REMARK VINA RESULT:      -9.0      1.711      3.718
REMARK  5 active torsions:
REMARK  status: ('A' for Active; 'I' for Inactive)
REMARK    1  A    between atoms: C_4  and  C_5 
REMARK    2  A    between atoms: C_13  and  C_14 
REMARK       I    between atoms: C_14  and  N_15 
REMARK    3  A    between atoms: N_15  and  C_16 
REMARK    4  A    between atoms: C_17  and  N_18 
REMARK    5  A    between atoms: C_21  and  O_22 
ROOT
HETATM    1  C   UNL     1      27.514  41.896  51.458  1.00  0.00     0.258 C 
HETATM    2  N   UNL     1      27.468  42.423  50.190  1.00  0.00    -0.321 N 
HETATM    3  O   UNL     1      27.039  40.830  51.836  1.00  0.00    -0.267 OA
HETATM    4  H   UNL     1      27.614  43.416  50.036  1.00  0.00     0.169 HD
ENDROOT
BRANCH   2   5
HETATM    5  C   UNL     1      27.182  41.697  49.006  1.00  0.00     0.056 A 
HETATM    6  C   UNL     1      25.945  41.951  48.360  1.00  0.00     0.037 A 
HETATM    7  C   UNL     1      25.717  41.335  47.115  1.00  0.00     0.026 A 
HETATM    8  C   UNL     1      26.669  40.488  46.540  1.00  0.00     0.002 A 
HETATM    9  C   UNL     1      27.863  40.228  47.202  1.00  0.00     0.002 A 
HETATM   10  C   UNL     1      28.117  40.829  48.432  1.00  0.00     0.031 A 
BRANCH   6  11
HETATM   11  N   UNL     1      24.955  42.741  49.026  1.00  0.00    -0.281 NA
HETATM   12  C   UNL     1      23.748  41.904  49.241  1.00  0.00     0.098 C 
HETATM   13  C   UNL     1      22.757  42.653  50.133  1.00  0.00     0.046 C 
HETATM   14  C   UNL     1      22.406  44.021  49.555  1.00  0.00     0.120 C 
HETATM   15  C   UNL     1      23.666  44.823  49.235  1.00  0.00     0.046 C 
HETATM   16  C   UNL     1      24.622  44.017  48.358  1.00  0.00     0.098 C 
BRANCH  14  17
HETATM   17  O   UNL     1      21.633  43.867  48.364  1.00  0.00    -0.395 OA
HETATM   18  H   UNL     1      20.906  44.513  48.400  1.00  0.00     0.210 HD
ENDBRANCH  14  17
ENDBRANCH   6  11
ENDBRANCH   2   5
BRANCH   1  19
HETATM   19  C   UNL     1      28.257  42.689  52.447  1.00  0.00     0.056 A 
HETATM   20  C   UNL     1      27.632  43.579  53.310  1.00  0.00     0.047 A 
HETATM   21  C   UNL     1      26.189  43.954  53.150  1.00  0.00     0.071 C 
HETATM   22  N   UNL     1      28.288  44.135  54.367  1.00  0.00    -0.252 NA
HETATM   23  C   UNL     1      29.582  43.780  54.610  1.00  0.00     0.067 A 
HETATM   24  C   UNL     1      30.262  42.916  53.752  1.00  0.00     0.033 A 
HETATM   25  C   UNL     1      29.594  42.367  52.659  1.00  0.00     0.021 A 
BRANCH  23  26
HETATM   26  C   UNL     1      30.171  44.291  55.874  1.00  0.00    -0.007 A 
HETATM   27  C   UNL     1      29.676  45.468  56.470  1.00  0.00     0.014 A 
HETATM   28  C   UNL     1      30.165  45.938  57.694  1.00  0.00     0.001 A 
HETATM   29  C   UNL     1      31.169  45.241  58.356  1.00  0.00     0.000 A 
HETATM   30  C   UNL     1      31.691  44.084  57.787  1.00  0.00     0.001 A 
HETATM   31  C   UNL     1      31.201  43.619  56.559  1.00  0.00     0.014 A 
ENDBRANCH  23  26
ENDBRANCH   1  19
TORSDOF 5
ENDMDL
MODEL 4
REMARK VINA RESULT:      -8.8      1.925      2.784
REMARK  5 active torsions:
REMARK  status: ('A' for Active; 'I' for Inactive)
REMARK    1  A    between atoms: C_4  and  C_5 
REMARK    2  A    between atoms: C_13  and  C_14 
REMARK       I    between atoms: C_14  and  N_15 
REMARK    3  A    between atoms: N_15  and  C_16 
REMARK    4  A    between atoms: C_17  and  N_18 
REMARK    5  A    between atoms: C_21  and  O_22 
ROOT
HETATM    1  C   UNL     1      26.723  42.397  50.731  1.00  0.00     0.258 C 
HETATM    2  N   UNL     1      27.265  42.041  49.520  1.00  0.00    -0.321 N 
HETATM    3  O   UNL     1      25.554  42.282  51.083  1.00  0.00    -0.267 OA
HETATM    4  H   UNL     1      28.148  42.438  49.210  1.00  0.00     0.169 HD
ENDROOT
BRANCH   2   5
HETATM    5  C   UNL     1      26.674  41.161  48.579  1.00  0.00     0.056 A 
HETATM    6  C   UNL     1      27.152  39.825  48.536  1.00  0.00     0.037 A 
HETATM    7  C   UNL     1      26.476  38.915  47.701  1.00  0.00     0.026 A 
HETATM    8  C   UNL     1      25.383  39.314  46.927  1.00  0.00     0.002 A 
HETATM    9  C   UNL     1      24.948  40.634  46.960  1.00  0.00     0.002 A 
HETATM   10  C   UNL     1      25.594  41.555  47.782  1.00  0.00     0.031 A 
BRANCH   6  11
HETATM   11  N   UNL     1      28.334  39.479  49.263  1.00  0.00    -0.281 NA
HETATM   12  C   UNL     1      29.076  38.448  48.496  1.00  0.00     0.098 C 
HETATM   13  C   UNL     1      30.443  38.213  49.142  1.00  0.00     0.046 C 
HETATM   14  C   UNL     1      30.309  37.841  50.616  1.00  0.00     0.120 C 
HETATM   15  C   UNL     1      29.448  38.856  51.364  1.00  0.00     0.046 C 
HETATM   16  C   UNL     1      28.106  39.060  50.663  1.00  0.00     0.098 C 
BRANCH  14  17
HETATM   17  O   UNL     1      29.725  36.544  50.744  1.00  0.00    -0.395 OA
HETATM   18  H   UNL     1      29.521  36.223  49.848  1.00  0.00     0.210 HD
ENDBRANCH  14  17
ENDBRANCH   6  11
ENDBRANCH   2   5
BRANCH   1  19
HETATM   19  C   UNL     1      27.673  42.930  51.718  1.00  0.00     0.056 A 
HETATM   20  C   UNL     1      27.437  44.104  52.421  1.00  0.00     0.047 A 
HETATM   21  C   UNL     1      26.304  45.021  52.069  1.00  0.00     0.071 C 
HETATM   22  N   UNL     1      28.202  44.468  53.488  1.00  0.00    -0.252 NA
HETATM   23  C   UNL     1      29.204  43.641  53.903  1.00  0.00     0.067 A 
HETATM   24  C   UNL     1      29.500  42.468  53.209  1.00  0.00     0.033 A 
HETATM   25  C   UNL     1      28.729  42.110  52.105  1.00  0.00     0.021 A 
BRANCH  23  26
HETATM   26  C   UNL     1      29.876  44.020  55.172  1.00  0.00    -0.007 A 
HETATM   27  C   UNL     1      29.550  45.226  55.823  1.00  0.00     0.014 A 
HETATM   28  C   UNL     1      30.117  45.579  57.052  1.00  0.00     0.001 A 
HETATM   29  C   UNL     1      31.034  44.733  57.664  1.00  0.00     0.000 A 
HETATM   30  C   UNL     1      31.391  43.542  57.039  1.00  0.00     0.001 A 
HETATM   31  C   UNL     1      30.823  43.194  55.807  1.00  0.00     0.014 A 
ENDBRANCH  23  26
ENDBRANCH   1  19
TORSDOF 5
ENDMDL
MODEL 5
REMARK VINA RESULT:      -8.7      1.312      1.821
REMARK  5 active torsions:
REMARK  status: ('A' for Active; 'I' for Inactive)
REMARK    1  A    between atoms: C_4  and  C_5 
REMARK    2  A    between atoms: C_13  and  C_14 
REMARK       I    between atoms: C_14  and  N_15 
REMARK    3  A    between atoms: N_15  and  C_16 
REMARK    4  A    between atoms: C_17  and  N_18 
REMARK    5  A    between atoms: C_21  and  O_22 
ROOT
HETATM    1  C   UNL     1      25.166  43.480  50.938  1.00  0.00     0.258 C 
HETATM    2  N   UNL     1      25.330  43.663  49.586  1.00  0.00    -0.321 N 
HETATM    3  O   UNL     1      24.158  43.090  51.516  1.00  0.00    -0.267 OA
HETATM    4  H   UNL     1      26.071  44.260  49.230  1.00  0.00     0.169 HD
ENDROOT
BRANCH   2   5
HETATM    5  C   UNL     1      24.506  43.111  48.574  1.00  0.00     0.056 A 
HETATM    6  C   UNL     1      24.860  41.839  48.055  1.00  0.00     0.037 A 
HETATM    7  C   UNL     1      23.971  41.229  47.151  1.00  0.00     0.026 A 
HETATM    8  C   UNL     1      22.786  41.860  46.761  1.00  0.00     0.002 A 
HETATM    9  C   UNL     1      22.470  43.120  47.257  1.00  0.00     0.002 A 
HETATM   10  C   UNL     1      23.329  43.744  48.158  1.00  0.00     0.031 A 
BRANCH   6  11
HETATM   11  N   UNL     1      26.128  41.270  48.398  1.00  0.00    -0.281 NA
HETATM   12  C   UNL     1      26.845  40.926  47.146  1.00  0.00     0.098 C 
HETATM   13  C   UNL     1      28.281  40.513  47.475  1.00  0.00     0.046 C 
HETATM   14  C   UNL     1      28.318  39.371  48.486  1.00  0.00     0.120 C 
HETATM   15  C   UNL     1      27.480  39.700  49.720  1.00  0.00     0.046 C 
HETATM   16  C   UNL     1      26.065  40.121  49.327  1.00  0.00     0.098 C 
BRANCH  14  17
HETATM   17  O   UNL     1      27.823  38.171  47.890  1.00  0.00    -0.395 OA
HETATM   18  H   UNL     1      26.852  38.191  47.949  1.00  0.00     0.210 HD
ENDBRANCH  14  17
ENDBRANCH   6  11
ENDBRANCH   2   5
BRANCH   1  19
HETATM   19  C   UNL     1      26.354  43.743  51.761  1.00  0.00     0.056 A 
HETATM   20  C   UNL     1      26.503  44.906  52.506  1.00  0.00     0.047 A 
HETATM   21  C   UNL     1      25.566  46.067  52.354  1.00  0.00     0.071 C 
HETATM   22  N   UNL     1      27.489  45.041  53.437  1.00  0.00    -0.252 NA
HETATM   23  C   UNL     1      28.330  43.996  53.673  1.00  0.00     0.067 A 
HETATM   24  C   UNL     1      28.241  42.820  52.928  1.00  0.00     0.033 A 
HETATM   25  C   UNL     1      27.246  42.693  51.961  1.00  0.00     0.021 A 
BRANCH  23  26
HETATM   26  C   UNL     1      29.262  44.156  54.819  1.00  0.00    -0.007 A 
HETATM   27  C   UNL     1      30.211  43.157  55.115  1.00  0.00     0.014 A 
HETATM   28  C   UNL     1      31.145  43.309  56.146  1.00  0.00     0.001 A 
HETATM   29  C   UNL     1      31.152  44.467  56.914  1.00  0.00     0.000 A 
HETATM   30  C   UNL     1      30.218  45.466  56.658  1.00  0.00     0.001 A 
HETATM   31  C   UNL     1      29.282  45.308  55.628  1.00  0.00     0.014 A 
ENDBRANCH  23  26
ENDBRANCH   1  19
TORSDOF 5
ENDMDL
MODEL 6
REMARK VINA RESULT:      -8.7      3.196      8.165
REMARK  5 active torsions:
REMARK  status: ('A' for Active; 'I' for Inactive)
REMARK    1  A    between atoms: C_4  and  C_5 
REMARK    2  A    between atoms: C_13  and  C_14 
REMARK       I    between atoms: C_14  and  N_15 
REMARK    3  A    between atoms: N_15  and  C_16 
REMARK    4  A    between atoms: C_17  and  N_18 
REMARK    5  A    between atoms: C_21  and  O_22 
ROOT
HETATM    1  C   UNL     1      26.590  44.827  50.591  1.00  0.00     0.258 C 
HETATM    2  N   UNL     1      26.725  44.344  51.870  1.00  0.00    -0.321 N 
HETATM    3  O   UNL     1      27.289  44.558  49.620  1.00  0.00    -0.267 OA
HETATM    4  H   UNL     1      26.308  44.835  52.656  1.00  0.00     0.169 HD
ENDROOT
BRANCH   2   5
HETATM    5  C   UNL     1      27.461  43.192  52.243  1.00  0.00     0.056 A 
HETATM    6  C   UNL     1      28.228  43.256  53.435  1.00  0.00     0.037 A 
HETATM    7  C   UNL     1      28.849  42.074  53.879  1.00  0.00     0.026 A 
HETATM    8  C   UNL     1      28.731  40.879  53.163  1.00  0.00     0.002 A 
HETATM    9  C   UNL     1      28.000  40.842  51.982  1.00  0.00     0.002 A 
HETATM   10  C   UNL     1      27.369  41.996  51.522  1.00  0.00     0.031 A 
BRANCH   6  11
HETATM   11  N   UNL     1      28.411  44.518  54.085  1.00  0.00    -0.281 NA
HETATM   12  C   UNL     1      29.587  44.421  54.983  1.00  0.00     0.098 C 
HETATM   13  C   UNL     1      29.932  45.808  55.529  1.00  0.00     0.046 C 
HETATM   14  C   UNL     1      28.734  46.450  56.224  1.00  0.00     0.120 C 
HETATM   15  C   UNL     1      27.502  46.437  55.321  1.00  0.00     0.046 C 
HETATM   16  C   UNL     1      27.220  45.031  54.796  1.00  0.00     0.098 C 
BRANCH  14  17
HETATM   17  O   UNL     1      28.437  45.752  57.433  1.00  0.00    -0.395 OA
HETATM   18  H   UNL     1      29.248  45.294  57.716  1.00  0.00     0.210 HD
ENDBRANCH  14  17
ENDBRANCH   6  11
ENDBRANCH   2   5
BRANCH   1  19
HETATM   19  C   UNL     1      25.449  45.725  50.370  1.00  0.00     0.056 A 
HETATM   20  C   UNL     1      25.380  46.994  50.932  1.00  0.00     0.047 A 
HETATM   21  C   UNL     1      26.357  47.451  51.974  1.00  0.00     0.071 C 
HETATM   22  N   UNL     1      24.440  47.900  50.543  1.00  0.00    -0.252 NA
HETATM   23  C   UNL     1      23.567  47.571  49.550  1.00  0.00     0.067 A 
HETATM   24  C   UNL     1      23.576  46.299  48.978  1.00  0.00     0.033 A 
HETATM   25  C   UNL     1      24.524  45.366  49.394  1.00  0.00     0.021 A 
BRANCH  23  26
HETATM   26  C   UNL     1      22.691  48.668  49.063  1.00  0.00    -0.007 A 
HETATM   27  C   UNL     1      23.168  49.993  49.006  1.00  0.00     0.014 A 
HETATM   28  C   UNL     1      22.390  51.036  48.491  1.00  0.00     0.001 A 
HETATM   29  C   UNL     1      21.107  50.781  48.022  1.00  0.00     0.000 A 
HETATM   30  C   UNL     1      20.600  49.487  48.079  1.00  0.00     0.001 A 
HETATM   31  C   UNL     1      21.380  48.446  48.598  1.00  0.00     0.014 A 
ENDBRANCH  23  26
ENDBRANCH   1  19
TORSDOF 5
ENDMDL
MODEL 7
REMARK VINA RESULT:      -8.7      2.862      7.545
REMARK  5 active torsions:
REMARK  status: ('A' for Active; 'I' for Inactive)
REMARK    1  A    between atoms: C_4  and  C_5 
REMARK    2  A    between atoms: C_13  and  C_14 
REMARK       I    between atoms: C_14  and  N_15 
REMARK    3  A    between atoms: N_15  and  C_16 
REMARK    4  A    between atoms: C_17  and  N_18 
REMARK    5  A    between atoms: C_21  and  O_22 
ROOT
HETATM    1  C   UNL     1      25.562  44.656  51.678  1.00  0.00     0.258 C 
HETATM    2  N   UNL     1      26.862  44.293  51.418  1.00  0.00    -0.321 N 
HETATM    3  O   UNL     1      24.854  44.264  52.600  1.00  0.00    -0.267 OA
HETATM    4  H   UNL     1      27.262  44.424  50.494  1.00  0.00     0.169 HD
ENDROOT
BRANCH   2   5
HETATM    5  C   UNL     1      27.747  43.683  52.341  1.00  0.00     0.056 A 
HETATM    6  C   UNL     1      28.279  42.412  52.003  1.00  0.00     0.037 A 
HETATM    7  C   UNL     1      29.261  41.865  52.850  1.00  0.00     0.026 A 
HETATM    8  C   UNL     1      29.688  42.541  53.997  1.00  0.00     0.002 A 
HETATM    9  C   UNL     1      29.134  43.772  54.328  1.00  0.00     0.002 A 
HETATM   10  C   UNL     1      28.165  44.339  53.504  1.00  0.00     0.031 A 
BRANCH   6  11
HETATM   11  N   UNL     1      27.746  41.705  50.879  1.00  0.00    -0.281 NA
HETATM   12  C   UNL     1      26.345  41.321  51.183  1.00  0.00     0.098 C 
HETATM   13  C   UNL     1      25.684  40.752  49.926  1.00  0.00     0.046 C 
HETATM   14  C   UNL     1      26.484  39.585  49.353  1.00  0.00     0.120 C 
HETATM   15  C   UNL     1      27.949  39.967  49.152  1.00  0.00     0.046 C 
HETATM   16  C   UNL     1      28.546  40.543  50.435  1.00  0.00     0.098 C 
BRANCH  14  17
HETATM   17  O   UNL     1      26.408  38.461  50.229  1.00  0.00    -0.395 OA
HETATM   18  H   UNL     1      27.246  38.413  50.722  1.00  0.00     0.210 HD
ENDBRANCH  14  17
ENDBRANCH   6  11
ENDBRANCH   2   5
BRANCH   1  19
HETATM   19  C   UNL     1      24.990  45.658  50.769  1.00  0.00     0.056 A 
HETATM   20  C   UNL     1      23.980  45.354  49.865  1.00  0.00     0.047 A 
HETATM   21  C   UNL     1      23.554  43.941  49.602  1.00  0.00     0.071 C 
HETATM   22  N   UNL     1      23.302  46.327  49.194  1.00  0.00    -0.252 NA
HETATM   23  C   UNL     1      23.593  47.635  49.441  1.00  0.00     0.067 A 
HETATM   24  C   UNL     1      24.622  47.989  50.315  1.00  0.00     0.033 A 
HETATM   25  C   UNL     1      25.328  46.991  50.983  1.00  0.00     0.021 A 
BRANCH  23  26
HETATM   26  C   UNL     1      22.696  48.633  48.804  1.00  0.00    -0.007 A 
HETATM   27  C   UNL     1      21.509  48.223  48.165  1.00  0.00     0.014 A 
HETATM   28  C   UNL     1      20.612  49.145  47.614  1.00  0.00     0.001 A 
HETATM   29  C   UNL     1      20.881  50.506  47.685  1.00  0.00     0.000 A 
HETATM   30  C   UNL     1      22.053  50.943  48.295  1.00  0.00     0.001 A 
HETATM   31  C   UNL     1      22.950  50.018  48.842  1.00  0.00     0.014 A 
ENDBRANCH  23  26
ENDBRANCH   1  19
TORSDOF 5
ENDMDL
MODEL 8
REMARK VINA RESULT:      -8.6      4.079      6.610
REMARK  5 active torsions:
REMARK  status: ('A' for Active; 'I' for Inactive)
REMARK    1  A    between atoms: C_4  and  C_5 
REMARK    2  A    between atoms: C_13  and  C_14 
REMARK       I    between atoms: C_14  and  N_15 
REMARK    3  A    between atoms: N_15  and  C_16 
REMARK    4  A    between atoms: C_17  and  N_18 
REMARK    5  A    between atoms: C_21  and  O_22 
ROOT
HETATM    1  C   UNL     1      24.265  47.788  49.575  1.00  0.00     0.258 C 
HETATM    2  N   UNL     1      22.893  47.858  49.605  1.00  0.00    -0.321 N 
HETATM    3  O   UNL     1      25.025  48.435  48.863  1.00  0.00    -0.267 OA
HETATM    4  H   UNL     1      22.343  47.097  49.992  1.00  0.00     0.169 HD
ENDROOT
BRANCH   2   5
HETATM    5  C   UNL     1      22.112  48.922  49.088  1.00  0.00     0.056 A 
HETATM    6  C   UNL     1      20.940  48.586  48.362  1.00  0.00     0.037 A 
HETATM    7  C   UNL     1      20.091  49.636  47.966  1.00  0.00     0.026 A 
HETATM    8  C   UNL     1      20.398  50.968  48.261  1.00  0.00     0.002 A 
HETATM    9  C   UNL     1      21.566  51.280  48.947  1.00  0.00     0.002 A 
HETATM   10  C   UNL     1      22.421  50.259  49.357  1.00  0.00     0.031 A 
BRANCH   6  11
HETATM   11  N   UNL     1      20.711  47.223  47.990  1.00  0.00    -0.281 NA
HETATM   12  C   UNL     1      20.464  47.167  46.529  1.00  0.00     0.098 C 
HETATM   13  C   UNL     1      20.425  45.708  46.071  1.00  0.00     0.046 C 
HETATM   14  C   UNL     1      19.394  44.902  46.855  1.00  0.00     0.120 C 
HETATM   15  C   UNL     1      19.597  45.064  48.360  1.00  0.00     0.046 C 
HETATM   16  C   UNL     1      19.644  46.539  48.752  1.00  0.00     0.098 C 
BRANCH  14  17
HETATM   17  O   UNL     1      18.075  45.326  46.511  1.00  0.00    -0.395 OA
HETATM   18  H   UNL     1      18.156  46.127  45.963  1.00  0.00     0.210 HD
ENDBRANCH  14  17
ENDBRANCH   6  11
ENDBRANCH   2   5
BRANCH   1  19
HETATM   19  C   UNL     1      24.873  46.863  50.542  1.00  0.00     0.056 A 
HETATM   20  C   UNL     1      25.135  45.533  50.238  1.00  0.00     0.047 A 
HETATM   21  C   UNL     1      24.620  44.893  48.984  1.00  0.00     0.071 C 
HETATM   22  N   UNL     1      25.900  44.749  51.049  1.00  0.00    -0.252 NA
HETATM   23  C   UNL     1      26.456  45.291  52.169  1.00  0.00     0.067 A 
HETATM   24  C   UNL     1      26.195  46.613  52.533  1.00  0.00     0.033 A 
HETATM   25  C   UNL     1      25.394  47.405  51.713  1.00  0.00     0.021 A 
BRANCH  23  26
HETATM   26  C   UNL     1      27.414  44.426  52.904  1.00  0.00    -0.007 A 
HETATM   27  C   UNL     1      28.058  44.897  54.065  1.00  0.00     0.014 A 
HETATM   28  C   UNL     1      28.915  44.084  54.816  1.00  0.00     0.001 A 
HETATM   29  C   UNL     1      29.154  42.773  54.420  1.00  0.00     0.000 A 
HETATM   30  C   UNL     1      28.547  42.282  53.268  1.00  0.00     0.001 A 
HETATM   31  C   UNL     1      27.693  43.101  52.518  1.00  0.00     0.014 A 
ENDBRANCH  23  26
ENDBRANCH   1  19
TORSDOF 5
ENDMDL
MODEL 9
REMARK VINA RESULT:      -8.4      3.609      6.538
REMARK  5 active torsions:
REMARK  status: ('A' for Active; 'I' for Inactive)
REMARK    1  A    between atoms: C_4  and  C_5 
REMARK    2  A    between atoms: C_13  and  C_14 
REMARK       I    between atoms: C_14  and  N_15 
REMARK    3  A    between atoms: N_15  and  C_16 
REMARK    4  A    between atoms: C_17  and  N_18 
REMARK    5  A    between atoms: C_21  and  O_22 
ROOT
HETATM    1  C   UNL     1      23.556  44.993  49.190  1.00  0.00     0.258 C 
HETATM    2  N   UNL     1      22.193  45.166  49.194  1.00  0.00    -0.321 N 
HETATM    3  O   UNL     1      24.262  44.694  48.232  1.00  0.00    -0.267 OA
HETATM    4  H   UNL     1      21.667  45.114  50.062  1.00  0.00     0.169 HD
ENDROOT
BRANCH   2   5
HETATM    5  C   UNL     1      21.386  45.382  48.049  1.00  0.00     0.056 A 
HETATM    6  C   UNL     1      21.108  46.723  47.682  1.00  0.00     0.037 A 
HETATM    7  C   UNL     1      20.423  46.942  46.472  1.00  0.00     0.026 A 
HETATM    8  C   UNL     1      20.014  45.876  45.666  1.00  0.00     0.002 A 
HETATM    9  C   UNL     1      20.269  44.567  46.058  1.00  0.00     0.002 A 
HETATM   10  C   UNL     1      20.951  44.321  47.247  1.00  0.00     0.031 A 
BRANCH   6  11
HETATM   11  N   UNL     1      21.451  47.783  48.580  1.00  0.00    -0.281 NA
HETATM   12  C   UNL     1      20.259  48.644  48.773  1.00  0.00     0.098 C 
HETATM   13  C   UNL     1      20.533  49.658  49.885  1.00  0.00     0.046 C 
HETATM   14  C   UNL     1      21.789  50.477  49.600  1.00  0.00     0.120 C 
HETATM   15  C   UNL     1      22.979  49.570  49.293  1.00  0.00     0.046 C 
HETATM   16  C   UNL     1      22.639  48.572  48.189  1.00  0.00     0.098 C 
BRANCH  14  17
HETATM   17  O   UNL     1      21.565  51.349  48.492  1.00  0.00    -0.395 OA
HETATM   18  H   UNL     1      20.931  52.030  48.776  1.00  0.00     0.210 HD
ENDBRANCH  14  17
ENDBRANCH   6  11
ENDBRANCH   2   5
BRANCH   1  19
HETATM   19  C   UNL     1      24.231  45.241  50.470  1.00  0.00     0.056 A 
HETATM   20  C   UNL     1      24.674  44.213  51.292  1.00  0.00     0.047 A 
HETATM   21  C   UNL     1      24.304  42.782  51.036  1.00  0.00     0.071 C 
HETATM   22  N   UNL     1      25.493  44.446  52.356  1.00  0.00    -0.252 NA
HETATM   23  C   UNL     1      25.923  45.716  52.600  1.00  0.00     0.067 A 
HETATM   24  C   UNL     1      25.480  46.786  51.823  1.00  0.00     0.033 A 
HETATM   25  C   UNL     1      24.624  46.547  50.750  1.00  0.00     0.021 A 
BRANCH  23  26
HETATM   26  C   UNL     1      26.948  45.862  53.665  1.00  0.00    -0.007 A 
HETATM   27  C   UNL     1      27.843  44.810  53.946  1.00  0.00     0.014 A 
HETATM   28  C   UNL     1      28.862  44.941  54.897  1.00  0.00     0.001 A 
HETATM   29  C   UNL     1      29.009  46.132  55.599  1.00  0.00     0.000 A 
HETATM   30  C   UNL     1      28.132  47.184  55.357  1.00  0.00     0.001 A 
HETATM   31  C   UNL     1      27.112  47.047  54.407  1.00  0.00     0.014 A 
ENDBRANCH  23  26
ENDBRANCH   1  19
TORSDOF 5
ENDMDL
MODEL 10
REMARK VINA RESULT:      -8.3      2.688      5.264
REMARK  5 active torsions:
REMARK  status: ('A' for Active; 'I' for Inactive)
REMARK    1  A    between atoms: C_4  and  C_5 
REMARK    2  A    between atoms: C_13  and  C_14 
REMARK       I    between atoms: C_14  and  N_15 
REMARK    3  A    between atoms: N_15  and  C_16 
REMARK    4  A    between atoms: C_17  and  N_18 
REMARK    5  A    between atoms: C_21  and  O_22 
ROOT
HETATM    1  C   UNL     1      24.439  44.592  50.774  1.00  0.00     0.258 C 
HETATM    2  N   UNL     1      24.502  45.089  49.495  1.00  0.00    -0.321 N 
HETATM    3  O   UNL     1      23.467  44.087  51.326  1.00  0.00    -0.267 OA
HETATM    4  H   UNL     1      25.232  45.744  49.229  1.00  0.00     0.169 HD
ENDROOT
BRANCH   2   5
HETATM    5  C   UNL     1      23.584  44.805  48.453  1.00  0.00     0.056 A 
HETATM    6  C   UNL     1      22.750  45.861  48.003  1.00  0.00     0.037 A 
HETATM    7  C   UNL     1      21.935  45.619  46.881  1.00  0.00     0.026 A 
HETATM    8  C   UNL     1      21.932  44.377  46.240  1.00  0.00     0.002 A 
HETATM    9  C   UNL     1      22.734  43.345  46.714  1.00  0.00     0.002 A 
HETATM   10  C   UNL     1      23.555  43.558  47.819  1.00  0.00     0.031 A 
BRANCH   6  11
HETATM   11  N   UNL     1      22.704  47.084  48.745  1.00  0.00    -0.281 NA
HETATM   12  C   UNL     1      21.399  47.742  48.491  1.00  0.00     0.098 C 
HETATM   13  C   UNL     1      21.237  48.939  49.429  1.00  0.00     0.046 C 
HETATM   14  C   UNL     1      22.404  49.915  49.299  1.00  0.00     0.120 C 
HETATM   15  C   UNL     1      23.742  49.196  49.452  1.00  0.00     0.046 C 
HETATM   16  C   UNL     1      23.837  48.003  48.503  1.00  0.00     0.098 C 
BRANCH  14  17
HETATM   17  O   UNL     1      22.362  50.563  48.027  1.00  0.00    -0.395 OA
HETATM   18  H   UNL     1      22.786  49.971  47.380  1.00  0.00     0.210 HD
ENDBRANCH  14  17
ENDBRANCH   6  11
ENDBRANCH   2   5
BRANCH   1  19
HETATM   19  C   UNL     1      25.695  44.636  51.533  1.00  0.00     0.056 A 
HETATM   20  C   UNL     1      26.058  45.726  52.314  1.00  0.00     0.047 A 
HETATM   21  C   UNL     1      25.300  47.019  52.264  1.00  0.00     0.071 C 
HETATM   22  N   UNL     1      27.102  45.669  53.187  1.00  0.00    -0.252 NA
HETATM   23  C   UNL     1      27.787  44.500  53.331  1.00  0.00     0.067 A 
HETATM   24  C   UNL     1      27.482  43.387  52.546  1.00  0.00     0.033 A 
HETATM   25  C   UNL     1      26.428  43.457  51.638  1.00  0.00     0.021 A 
BRANCH  23  26
HETATM   26  C   UNL     1      28.793  44.465  54.423  1.00  0.00    -0.007 A 
HETATM   27  C   UNL     1      29.702  43.393  54.526  1.00  0.00     0.014 A 
HETATM   28  C   UNL     1      30.703  43.364  55.503  1.00  0.00     0.001 A 
HETATM   29  C   UNL     1      30.819  44.410  56.411  1.00  0.00     0.000 A 
HETATM   30  C   UNL     1      29.927  45.476  56.348  1.00  0.00     0.001 A 
HETATM   31  C   UNL     1      28.925  45.499  55.370  1.00  0.00     0.014 A 
ENDBRANCH  23  26
ENDBRANCH   1  19
TORSDOF 5
ENDMDL
