MODEL 1
REMARK VINA RESULT:      -9.6      0.000      0.000
REMARK  4 active torsions:
REMARK  status: ('A' for Active; 'I' for Inactive)
REMARK    1  A    between atoms: C_6  and  N_7 
REMARK       I    between atoms: N_7  and  C_8 
REMARK    2  A    between atoms: C_8  and  C_9 
REMARK    3  A    between atoms: C_10  and  C_11 
REMARK    4  A    between atoms: C_14  and  O_15 
ROOT
HETATM    1  C   UNL     1      25.471  44.629  51.953  1.00  0.00     0.062 C 
HETATM    2  C   UNL     1      24.803  43.448  51.259  1.00  0.00     0.202 C 
HETATM    3  N   UNL     1      23.819  43.921  50.277  1.00  0.00    -0.084 N 
HETATM    4  C   UNL     1      23.709  45.224  49.869  1.00  0.00     0.725 A 
HETATM    5  N   UNL     1      24.513  46.159  50.414  1.00  0.00    -0.192 N 
HETATM    6  N   UNL     1      22.855  43.153  49.727  1.00  0.00    -0.149 NA
HETATM    7  C   UNL     1      22.258  44.044  48.927  1.00  0.00     0.275 A 
HETATM    8  N   UNL     1      22.746  45.326  48.989  1.00  0.00    -0.054 NA
HETATM    9  C   UNL     1      25.339  45.900  51.503  1.00  0.00     0.037 C 
HETATM   10  C   UNL     1      26.036  47.094  52.103  1.00  0.00     0.070 C 
HETATM   11  H   UNL     1      24.388  47.128  50.134  1.00  0.00     0.184 HD
ENDROOT
BRANCH   1  12
HETATM   12  C   UNL     1      26.214  44.292  53.192  1.00  0.00     0.256 C 
HETATM   13  N   UNL     1      27.578  44.437  53.028  1.00  0.00    -0.323 N 
HETATM   14  H   UNL     1      27.895  44.702  52.106  1.00  0.00     0.169 HD
HETATM   15  O   UNL     1      25.604  43.966  54.199  1.00  0.00    -0.267 OA
BRANCH  13  16
HETATM   16  C   UNL     1      28.588  44.271  54.005  1.00  0.00     0.041 A 
HETATM   17  C   UNL     1      29.459  43.163  53.903  1.00  0.00    -0.035 A 
HETATM   18  C   UNL     1      30.487  43.001  54.850  1.00  0.00     0.015 A 
HETATM   19  C   UNL     1      29.336  42.138  52.806  1.00  0.00     0.050 C 
HETATM   20  C   UNL     1      30.656  43.906  55.903  1.00  0.00    -0.061 A 
HETATM   21  C   UNL     1      31.780  43.745  56.881  1.00  0.00     0.048 C 
HETATM   22  C   UNL     1      29.794  44.999  55.992  1.00  0.00     0.009 A 
HETATM   23  C   UNL     1      28.770  45.174  55.056  1.00  0.00     0.030 A 
ENDBRANCH  13  16
ENDBRANCH   1  12
BRANCH   2  24
HETATM   24  C   UNL     1      25.786  42.497  50.588  1.00  0.00    -0.028 A 
HETATM   25  C   UNL     1      26.062  41.252  51.170  1.00  0.00     0.012 A 
HETATM   26  C   UNL     1      26.966  40.371  50.569  1.00  0.00     0.037 A 
HETATM   27  C   UNL     1      27.611  40.711  49.379  1.00  0.00     0.068 A 
HETATM   28  C   UNL     1      27.345  41.947  48.792  1.00  0.00     0.037 A 
HETATM   29  C   UNL     1      26.441  42.833  49.390  1.00  0.00     0.012 A 
BRANCH  27  30
HETATM   30  O   UNL     1      28.468  39.758  48.900  1.00  0.00    -0.356 OA
HETATM   31  C   UNL     1      28.721  38.642  49.744  1.00  0.00     0.210 C 
ENDBRANCH  27  30
ENDBRANCH   2  24
TORSDOF 4
ENDMDL
MODEL 2
REMARK VINA RESULT:      -9.1      0.586      1.686
REMARK  4 active torsions:
REMARK  status: ('A' for Active; 'I' for Inactive)
REMARK    1  A    between atoms: C_6  and  N_7 
REMARK       I    between atoms: N_7  and  C_8 
REMARK    2  A    between atoms: C_8  and  C_9 
REMARK    3  A    between atoms: C_10  and  C_11 
REMARK    4  A    between atoms: C_14  and  O_15 
ROOT
HETATM    1  C   UNL     1      25.319  44.593  51.929  1.00  0.00     0.062 C 
HETATM    2  C   UNL     1      24.657  43.401  51.250  1.00  0.00     0.202 C 
HETATM    3  N   UNL     1      23.640  43.854  50.293  1.00  0.00    -0.084 N 
HETATM    4  C   UNL     1      23.492  45.156  49.891  1.00  0.00     0.725 A 
HETATM    5  N   UNL     1      24.290  46.106  50.419  1.00  0.00    -0.192 N 
HETATM    6  N   UNL     1      22.678  43.068  49.767  1.00  0.00    -0.149 NA
HETATM    7  C   UNL     1      22.042  43.948  48.984  1.00  0.00     0.275 A 
HETATM    8  N   UNL     1      22.505  45.239  49.036  1.00  0.00    -0.054 NA
HETATM    9  C   UNL     1      25.150  45.862  51.485  1.00  0.00     0.037 C 
HETATM   10  C   UNL     1      25.837  47.069  52.070  1.00  0.00     0.070 C 
HETATM   11  H   UNL     1      24.139  47.073  50.144  1.00  0.00     0.184 HD
ENDROOT
BRANCH   1  12
HETATM   12  C   UNL     1      26.100  44.269  53.148  1.00  0.00     0.256 C 
HETATM   13  N   UNL     1      27.460  44.373  52.929  1.00  0.00    -0.323 N 
HETATM   14  H   UNL     1      27.748  44.604  51.988  1.00  0.00     0.169 HD
HETATM   15  O   UNL     1      25.521  43.988  54.186  1.00  0.00    -0.267 OA
BRANCH  13  16
HETATM   16  C   UNL     1      28.503  44.205  53.870  1.00  0.00     0.041 A 
HETATM   17  C   UNL     1      28.733  45.226  54.819  1.00  0.00    -0.035 A 
HETATM   18  C   UNL     1      29.749  45.061  55.781  1.00  0.00     0.015 A 
HETATM   19  C   UNL     1      27.925  46.496  54.852  1.00  0.00     0.050 C 
HETATM   20  C   UNL     1      30.547  43.912  55.806  1.00  0.00    -0.061 A 
HETATM   21  C   UNL     1      31.597  43.730  56.860  1.00  0.00     0.048 C 
HETATM   22  C   UNL     1      30.308  42.909  54.868  1.00  0.00     0.009 A 
HETATM   23  C   UNL     1      29.301  43.058  53.909  1.00  0.00     0.030 A 
ENDBRANCH  13  16
ENDBRANCH   1  12
BRANCH   2  24
HETATM   24  C   UNL     1      25.643  42.470  50.551  1.00  0.00    -0.028 A 
HETATM   25  C   UNL     1      26.125  42.793  49.275  1.00  0.00     0.012 A 
HETATM   26  C   UNL     1      27.023  41.947  48.619  1.00  0.00     0.037 A 
HETATM   27  C   UNL     1      27.460  40.765  49.220  1.00  0.00     0.068 A 
HETATM   28  C   UNL     1      26.987  40.433  50.489  1.00  0.00     0.037 A 
HETATM   29  C   UNL     1      26.086  41.277  51.149  1.00  0.00     0.012 A 
BRANCH  27  30
HETATM   30  O   UNL     1      28.338  40.033  48.470  1.00  0.00    -0.356 OA
HETATM   31  C   UNL     1      28.296  40.228  47.062  1.00  0.00     0.210 C 
ENDBRANCH  27  30
ENDBRANCH   2  24
TORSDOF 4
ENDMDL
MODEL 3
REMARK VINA RESULT:      -8.7      1.535      1.946
REMARK  4 active torsions:
REMARK  status: ('A' for Active; 'I' for Inactive)
REMARK    1  A    between atoms: C_6  and  N_7 
REMARK       I    between atoms: N_7  and  C_8 
REMARK    2  A    between atoms: C_8  and  C_9 
REMARK    3  A    between atoms: C_10  and  C_11 
REMARK    4  A    between atoms: C_14  and  O_15 
ROOT
HETATM    1  C   UNL     1      25.071  43.581  50.236  1.00  0.00     0.062 C 
HETATM    2  C   UNL     1      24.755  42.161  49.784  1.00  0.00     0.202 C 
HETATM    3  N   UNL     1      23.924  42.180  48.574  1.00  0.00    -0.084 N 
HETATM    4  C   UNL     1      23.687  43.303  47.824  1.00  0.00     0.725 A 
HETATM    5  N   UNL     1      24.203  44.484  48.220  1.00  0.00    -0.192 N 
HETATM    6  N   UNL     1      23.226  41.124  48.106  1.00  0.00    -0.149 NA
HETATM    7  C   UNL     1      22.664  41.663  47.017  1.00  0.00     0.275 A 
HETATM    8  N   UNL     1      22.915  42.997  46.813  1.00  0.00    -0.054 NA
HETATM    9  C   UNL     1      24.827  44.659  49.451  1.00  0.00     0.037 C 
HETATM   10  C   UNL     1      25.187  46.077  49.814  1.00  0.00     0.070 C 
HETATM   11  H   UNL     1      23.982  45.314  47.679  1.00  0.00     0.184 HD
ENDROOT
BRANCH   1  12
HETATM   12  C   UNL     1      25.596  43.700  51.618  1.00  0.00     0.256 C 
HETATM   13  N   UNL     1      26.976  43.752  51.639  1.00  0.00    -0.323 N 
HETATM   14  H   UNL     1      27.444  43.662  50.748  1.00  0.00     0.169 HD
HETATM   15  O   UNL     1      24.822  43.769  52.560  1.00  0.00    -0.267 OA
BRANCH  13  16
HETATM   16  C   UNL     1      27.817  43.931  52.763  1.00  0.00     0.041 A 
HETATM   17  C   UNL     1      28.815  42.968  53.027  1.00  0.00    -0.035 A 
HETATM   18  C   UNL     1      29.678  43.147  54.125  1.00  0.00     0.015 A 
HETATM   19  C   UNL     1      29.003  41.743  52.170  1.00  0.00     0.050 C 
HETATM   20  C   UNL     1      29.557  44.254  54.972  1.00  0.00    -0.061 A 
HETATM   21  C   UNL     1      30.509  44.455  56.113  1.00  0.00     0.048 C 
HETATM   22  C   UNL     1      28.572  45.202  54.700  1.00  0.00     0.009 A 
HETATM   23  C   UNL     1      27.709  45.038  53.611  1.00  0.00     0.030 A 
ENDBRANCH  13  16
ENDBRANCH   1  12
BRANCH   2  24
HETATM   24  C   UNL     1      25.994  41.305  49.545  1.00  0.00    -0.028 A 
HETATM   25  C   UNL     1      26.168  40.113  50.262  1.00  0.00     0.012 A 
HETATM   26  C   UNL     1      27.302  39.321  50.058  1.00  0.00     0.037 A 
HETATM   27  C   UNL     1      28.282  39.699  49.139  1.00  0.00     0.068 A 
HETATM   28  C   UNL     1      28.119  40.883  48.421  1.00  0.00     0.037 A 
HETATM   29  C   UNL     1      26.986  41.680  48.622  1.00  0.00     0.012 A 
BRANCH  27  30
HETATM   30  O   UNL     1      29.336  38.833  49.038  1.00  0.00    -0.356 OA
HETATM   31  C   UNL     1      29.316  37.697  49.893  1.00  0.00     0.210 C 
ENDBRANCH  27  30
ENDBRANCH   2  24
TORSDOF 4
ENDMDL
MODEL 4
REMARK VINA RESULT:      -8.1     12.244     13.349
REMARK  4 active torsions:
REMARK  status: ('A' for Active; 'I' for Inactive)
REMARK    1  A    between atoms: C_6  and  N_7 
REMARK       I    between atoms: N_7  and  C_8 
REMARK    2  A    between atoms: C_8  and  C_9 
REMARK    3  A    between atoms: C_10  and  C_11 
REMARK    4  A    between atoms: C_14  and  O_15 
ROOT
HETATM    1  C   UNL     1      27.608  49.987  39.810  1.00  0.00     0.062 C 
HETATM    2  C   UNL     1      26.745  48.770  40.121  1.00  0.00     0.202 C 
HETATM    3  N   UNL     1      25.464  48.854  39.407  1.00  0.00    -0.084 N 
HETATM    4  C   UNL     1      25.197  49.762  38.416  1.00  0.00     0.725 A 
HETATM    5  N   UNL     1      26.135  50.671  38.081  1.00  0.00    -0.192 N 
HETATM    6  N   UNL     1      24.374  48.114  39.698  1.00  0.00    -0.149 NA
HETATM    7  C   UNL     1      23.515  48.568  38.778  1.00  0.00     0.275 A 
HETATM    8  N   UNL     1      23.977  49.583  37.978  1.00  0.00    -0.054 NA
HETATM    9  C   UNL     1      27.306  50.850  38.810  1.00  0.00     0.037 C 
HETATM   10  C   UNL     1      28.161  52.025  38.410  1.00  0.00     0.070 C 
HETATM   11  H   UNL     1      25.905  51.366  37.375  1.00  0.00     0.184 HD
ENDROOT
BRANCH   1  12
HETATM   12  C   UNL     1      28.757  50.193  40.725  1.00  0.00     0.256 C 
HETATM   13  N   UNL     1      29.962  49.927  40.104  1.00  0.00    -0.323 N 
HETATM   14  H   UNL     1      29.913  49.594  39.151  1.00  0.00     0.169 HD
HETATM   15  O   UNL     1      28.565  50.584  41.866  1.00  0.00    -0.267 OA
BRANCH  13  16
HETATM   16  C   UNL     1      31.263  50.078  40.639  1.00  0.00     0.041 A 
HETATM   17  C   UNL     1      32.065  48.929  40.813  1.00  0.00    -0.035 A 
HETATM   18  C   UNL     1      33.372  49.067  41.318  1.00  0.00     0.015 A 
HETATM   19  C   UNL     1      31.579  47.545  40.472  1.00  0.00     0.050 C 
HETATM   20  C   UNL     1      33.889  50.318  41.668  1.00  0.00    -0.061 A 
HETATM   21  C   UNL     1      35.296  50.457  42.165  1.00  0.00     0.048 C 
HETATM   22  C   UNL     1      33.090  51.447  41.487  1.00  0.00     0.009 A 
HETATM   23  C   UNL     1      31.791  51.326  40.984  1.00  0.00     0.030 A 
ENDBRANCH  13  16
ENDBRANCH   1  12
BRANCH   2  24
HETATM   24  C   UNL     1      27.424  47.442  39.806  1.00  0.00    -0.028 A 
HETATM   25  C   UNL     1      27.382  46.397  40.740  1.00  0.00     0.012 A 
HETATM   26  C   UNL     1      28.005  45.176  40.468  1.00  0.00     0.037 A 
HETATM   27  C   UNL     1      28.681  44.971  39.264  1.00  0.00     0.068 A 
HETATM   28  C   UNL     1      28.729  46.003  38.328  1.00  0.00     0.037 A 
HETATM   29  C   UNL     1      28.108  47.228  38.596  1.00  0.00     0.012 A 
BRANCH  27  30
HETATM   30  O   UNL     1      29.243  43.731  39.128  1.00  0.00    -0.356 OA
HETATM   31  C   UNL     1      29.553  43.310  37.806  1.00  0.00     0.210 C 
ENDBRANCH  27  30
ENDBRANCH   2  24
TORSDOF 4
ENDMDL
MODEL 5
REMARK VINA RESULT:      -8.0      2.867      5.360
REMARK  4 active torsions:
REMARK  status: ('A' for Active; 'I' for Inactive)
REMARK    1  A    between atoms: C_6  and  N_7 
REMARK       I    between atoms: N_7  and  C_8 
REMARK    2  A    between atoms: C_8  and  C_9 
REMARK    3  A    between atoms: C_10  and  C_11 
REMARK    4  A    between atoms: C_14  and  O_15 
ROOT
HETATM    1  C   UNL     1      27.336  42.290  51.069  1.00  0.00     0.062 C 
HETATM    2  C   UNL     1      26.760  42.316  49.659  1.00  0.00     0.202 C 
HETATM    3  N   UNL     1      26.832  40.981  49.051  1.00  0.00    -0.084 N 
HETATM    4  C   UNL     1      27.136  39.839  49.744  1.00  0.00     0.725 A 
HETATM    5  N   UNL     1      27.430  39.920  51.057  1.00  0.00    -0.192 N 
HETATM    6  N   UNL     1      26.697  40.731  47.732  1.00  0.00    -0.149 NA
HETATM    7  C   UNL     1      26.841  39.401  47.717  1.00  0.00     0.275 A 
HETATM    8  N   UNL     1      27.119  38.816  48.927  1.00  0.00    -0.054 NA
HETATM    9  C   UNL     1      27.610  41.131  51.716  1.00  0.00     0.037 C 
HETATM   10  C   UNL     1      28.109  41.044  53.136  1.00  0.00     0.070 C 
HETATM   11  H   UNL     1      27.697  39.070  51.547  1.00  0.00     0.184 HD
ENDROOT
BRANCH   1  12
HETATM   12  C   UNL     1      27.640  43.621  51.649  1.00  0.00     0.256 C 
HETATM   13  N   UNL     1      26.675  44.019  52.554  1.00  0.00    -0.323 N 
HETATM   14  H   UNL     1      25.886  43.398  52.673  1.00  0.00     0.169 HD
HETATM   15  O   UNL     1      28.662  44.207  51.329  1.00  0.00    -0.267 OA
BRANCH  13  16
HETATM   16  C   UNL     1      26.664  45.190  53.347  1.00  0.00     0.041 A 
HETATM   17  C   UNL     1      25.855  46.277  52.947  1.00  0.00    -0.035 A 
HETATM   18  C   UNL     1      25.812  47.438  53.742  1.00  0.00     0.015 A 
HETATM   19  C   UNL     1      25.021  46.244  51.693  1.00  0.00     0.050 C 
HETATM   20  C   UNL     1      26.567  47.546  54.914  1.00  0.00    -0.061 A 
HETATM   21  C   UNL     1      26.480  48.771  55.773  1.00  0.00     0.048 C 
HETATM   22  C   UNL     1      27.359  46.466  55.303  1.00  0.00     0.009 A 
HETATM   23  C   UNL     1      27.410  45.305  54.525  1.00  0.00     0.030 A 
ENDBRANCH  13  16
ENDBRANCH   1  12
BRANCH   2  24
HETATM   24  C   UNL     1      25.328  42.836  49.592  1.00  0.00    -0.028 A 
HETATM   25  C   UNL     1      25.018  43.925  48.766  1.00  0.00     0.012 A 
HETATM   26  C   UNL     1      23.711  44.416  48.700  1.00  0.00     0.037 A 
HETATM   27  C   UNL     1      22.689  43.834  49.452  1.00  0.00     0.068 A 
HETATM   28  C   UNL     1      22.987  42.751  50.278  1.00  0.00     0.037 A 
HETATM   29  C   UNL     1      24.294  42.256  50.349  1.00  0.00     0.012 A 
BRANCH  27  30
HETATM   30  O   UNL     1      21.460  44.413  49.292  1.00  0.00    -0.356 OA
HETATM   31  C   UNL     1      21.301  45.281  48.177  1.00  0.00     0.210 C 
ENDBRANCH  27  30
ENDBRANCH   2  24
TORSDOF 4
ENDMDL
MODEL 6
REMARK VINA RESULT:      -7.7      3.063      7.484
REMARK  4 active torsions:
REMARK  status: ('A' for Active; 'I' for Inactive)
REMARK    1  A    between atoms: C_6  and  N_7 
REMARK       I    between atoms: N_7  and  C_8 
REMARK    2  A    between atoms: C_8  and  C_9 
REMARK    3  A    between atoms: C_10  and  C_11 
REMARK    4  A    between atoms: C_14  and  O_15 
ROOT
HETATM    1  C   UNL     1      25.973  44.797  52.279  1.00  0.00     0.062 C 
HETATM    2  C   UNL     1      25.420  46.198  52.509  1.00  0.00     0.202 C 
HETATM    3  N   UNL     1      26.082  46.829  53.658  1.00  0.00    -0.084 N 
HETATM    4  C   UNL     1      27.203  46.328  54.266  1.00  0.00     0.725 A 
HETATM    5  N   UNL     1      27.730  45.166  53.830  1.00  0.00    -0.192 N 
HETATM    6  N   UNL     1      25.621  47.920  54.305  1.00  0.00    -0.149 NA
HETATM    7  C   UNL     1      26.568  48.071  55.238  1.00  0.00     0.275 A 
HETATM    8  N   UNL     1      27.551  47.113  55.254  1.00  0.00    -0.054 NA
HETATM    9  C   UNL     1      27.093  44.353  52.898  1.00  0.00     0.037 C 
HETATM   10  C   UNL     1      27.726  43.007  52.653  1.00  0.00     0.070 C 
HETATM   11  H   UNL     1      28.534  44.785  54.320  1.00  0.00     0.184 HD
ENDROOT
BRANCH   1  12
HETATM   12  C   UNL     1      25.157  43.938  51.386  1.00  0.00     0.256 C 
HETATM   13  N   UNL     1      25.705  43.847  50.121  1.00  0.00    -0.323 N 
HETATM   14  H   UNL     1      26.539  44.391  49.951  1.00  0.00     0.169 HD
HETATM   15  O   UNL     1      24.154  43.391  51.817  1.00  0.00    -0.267 OA
BRANCH  13  16
HETATM   16  C   UNL     1      25.243  43.068  49.034  1.00  0.00     0.041 A 
HETATM   17  C   UNL     1      24.149  43.539  48.275  1.00  0.00    -0.035 A 
HETATM   18  C   UNL     1      23.697  42.789  47.173  1.00  0.00     0.015 A 
HETATM   19  C   UNL     1      23.439  44.828  48.595  1.00  0.00     0.050 C 
HETATM   20  C   UNL     1      24.299  41.576  46.821  1.00  0.00    -0.061 A 
HETATM   21  C   UNL     1      23.836  40.808  45.620  1.00  0.00     0.048 C 
HETATM   22  C   UNL     1      25.382  41.123  47.574  1.00  0.00     0.009 A 
HETATM   23  C   UNL     1      25.843  41.859  48.670  1.00  0.00     0.030 A 
ENDBRANCH  13  16
ENDBRANCH   1  12
BRANCH   2  24
HETATM   24  C   UNL     1      25.529  47.107  51.289  1.00  0.00    -0.028 A 
HETATM   25  C   UNL     1      24.372  47.492  50.598  1.00  0.00     0.012 A 
HETATM   26  C   UNL     1      24.457  48.319  49.475  1.00  0.00     0.037 A 
HETATM   27  C   UNL     1      25.693  48.779  49.018  1.00  0.00     0.068 A 
HETATM   28  C   UNL     1      26.850  48.402  49.697  1.00  0.00     0.037 A 
HETATM   29  C   UNL     1      26.771  47.573  50.822  1.00  0.00     0.012 A 
BRANCH  27  30
HETATM   30  O   UNL     1      25.631  49.581  47.911  1.00  0.00    -0.356 OA
HETATM   31  C   UNL     1      24.434  50.325  47.725  1.00  0.00     0.210 C 
ENDBRANCH  27  30
ENDBRANCH   2  24
TORSDOF 4
ENDMDL
MODEL 7
REMARK VINA RESULT:      -7.7      5.393      8.347
REMARK  4 active torsions:
REMARK  status: ('A' for Active; 'I' for Inactive)
REMARK    1  A    between atoms: C_6  and  N_7 
REMARK       I    between atoms: N_7  and  C_8 
REMARK    2  A    between atoms: C_8  and  C_9 
REMARK    3  A    between atoms: C_10  and  C_11 
REMARK    4  A    between atoms: C_14  and  O_15 
ROOT
HETATM    1  C   UNL     1      21.659  48.931  48.557  1.00  0.00     0.062 C 
HETATM    2  C   UNL     1      20.243  48.589  49.007  1.00  0.00     0.202 C 
HETATM    3  N   UNL     1      19.513  49.808  49.377  1.00  0.00    -0.084 N 
HETATM    4  C   UNL     1      19.957  51.077  49.113  1.00  0.00     0.725 A 
HETATM    5  N   UNL     1      21.152  51.249  48.513  1.00  0.00    -0.192 N 
HETATM    6  N   UNL     1      18.371  49.829  50.095  1.00  0.00    -0.149 NA
HETATM    7  C   UNL     1      18.137  51.145  50.146  1.00  0.00     0.275 A 
HETATM    8  N   UNL     1      19.088  51.945  49.563  1.00  0.00    -0.054 NA
HETATM    9  C   UNL     1      22.045  50.204  48.298  1.00  0.00     0.037 C 
HETATM   10  C   UNL     1      23.406  50.593  47.780  1.00  0.00     0.070 C 
HETATM   11  H   UNL     1      21.487  52.196  48.364  1.00  0.00     0.184 HD
ENDROOT
BRANCH   1  12
HETATM   12  C   UNL     1      22.594  47.782  48.494  1.00  0.00     0.256 C 
HETATM   13  N   UNL     1      23.358  47.679  49.639  1.00  0.00    -0.323 N 
HETATM   14  H   UNL     1      23.224  48.398  50.336  1.00  0.00     0.169 HD
HETATM   15  O   UNL     1      22.594  47.049  47.517  1.00  0.00    -0.267 OA
BRANCH  13  16
HETATM   16  C   UNL     1      24.302  46.675  49.962  1.00  0.00     0.041 A 
HETATM   17  C   UNL     1      25.678  46.990  49.902  1.00  0.00    -0.035 A 
HETATM   18  C   UNL     1      26.628  46.010  50.248  1.00  0.00     0.015 A 
HETATM   19  C   UNL     1      26.179  48.347  49.485  1.00  0.00     0.050 C 
HETATM   20  C   UNL     1      26.238  44.723  50.635  1.00  0.00    -0.061 A 
HETATM   21  C   UNL     1      27.257  43.702  51.041  1.00  0.00     0.048 C 
HETATM   22  C   UNL     1      24.877  44.425  50.695  1.00  0.00     0.009 A 
HETATM   23  C   UNL     1      23.922  45.389  50.357  1.00  0.00     0.030 A 
ENDBRANCH  13  16
ENDBRANCH   1  12
BRANCH   2  24
HETATM   24  C   UNL     1      19.445  47.805  47.970  1.00  0.00    -0.028 A 
HETATM   25  C   UNL     1      18.864  46.578  48.318  1.00  0.00     0.012 A 
HETATM   26  C   UNL     1      18.134  45.845  47.377  1.00  0.00     0.037 A 
HETATM   27  C   UNL     1      17.969  46.319  46.075  1.00  0.00     0.068 A 
HETATM   28  C   UNL     1      18.544  47.538  45.718  1.00  0.00     0.037 A 
HETATM   29  C   UNL     1      19.276  48.275  46.656  1.00  0.00     0.012 A 
BRANCH  27  30
HETATM   30  O   UNL     1      17.233  45.504  45.259  1.00  0.00    -0.356 OA
HETATM   31  C   UNL     1      17.623  44.139  45.196  1.00  0.00     0.210 C 
ENDBRANCH  27  30
ENDBRANCH   2  24
TORSDOF 4
ENDMDL
MODEL 8
REMARK VINA RESULT:      -7.7      2.730      6.139
REMARK  4 active torsions:
REMARK  status: ('A' for Active; 'I' for Inactive)
REMARK    1  A    between atoms: C_6  and  N_7 
REMARK       I    between atoms: N_7  and  C_8 
REMARK    2  A    between atoms: C_8  and  C_9 
REMARK    3  A    between atoms: C_10  and  C_11 
REMARK    4  A    between atoms: C_14  and  O_15 
ROOT
HETATM    1  C   UNL     1      27.856  43.219  53.295  1.00  0.00     0.062 C 
HETATM    2  C   UNL     1      26.572  44.037  53.368  1.00  0.00     0.202 C 
HETATM    3  N   UNL     1      26.788  45.263  54.147  1.00  0.00    -0.084 N 
HETATM    4  C   UNL     1      28.021  45.720  54.529  1.00  0.00     0.725 A 
HETATM    5  N   UNL     1      29.119  45.002  54.219  1.00  0.00    -0.192 N 
HETATM    6  N   UNL     1      25.802  46.033  54.653  1.00  0.00    -0.149 NA
HETATM    7  C   UNL     1      26.521  46.990  55.252  1.00  0.00     0.275 A 
HETATM    8  N   UNL     1      27.883  46.832  55.206  1.00  0.00    -0.054 NA
HETATM    9  C   UNL     1      29.055  43.723  53.676  1.00  0.00     0.037 C 
HETATM   10  C   UNL     1      30.365  42.988  53.556  1.00  0.00     0.070 C 
HETATM   11  H   UNL     1      30.023  45.332  54.548  1.00  0.00     0.184 HD
ENDROOT
BRANCH   1  12
HETATM   12  C   UNL     1      27.683  41.816  52.845  1.00  0.00     0.256 C 
HETATM   13  N   UNL     1      27.789  41.700  51.473  1.00  0.00    -0.323 N 
HETATM   14  H   UNL     1      27.923  42.559  50.958  1.00  0.00     0.169 HD
HETATM   15  O   UNL     1      27.505  40.930  53.667  1.00  0.00    -0.267 OA
BRANCH  13  16
HETATM   16  C   UNL     1      27.748  40.516  50.700  1.00  0.00     0.041 A 
HETATM   17  C   UNL     1      26.622  40.277  49.882  1.00  0.00    -0.035 A 
HETATM   18  C   UNL     1      26.579  39.117  49.084  1.00  0.00     0.015 A 
HETATM   19  C   UNL     1      25.452  41.224  49.820  1.00  0.00     0.050 C 
HETATM   20  C   UNL     1      27.623  38.186  49.098  1.00  0.00    -0.061 A 
HETATM   21  C   UNL     1      27.584  36.977  48.213  1.00  0.00     0.048 C 
HETATM   22  C   UNL     1      28.732  38.435  49.905  1.00  0.00     0.009 A 
HETATM   23  C   UNL     1      28.789  39.584  50.700  1.00  0.00     0.030 A 
ENDBRANCH  13  16
ENDBRANCH   1  12
BRANCH   2  24
HETATM   24  C   UNL     1      25.992  44.389  52.003  1.00  0.00    -0.028 A 
HETATM   25  C   UNL     1      24.622  44.223  51.761  1.00  0.00     0.012 A 
HETATM   26  C   UNL     1      24.077  44.535  50.512  1.00  0.00     0.037 A 
HETATM   27  C   UNL     1      24.885  45.020  49.482  1.00  0.00     0.068 A 
HETATM   28  C   UNL     1      26.249  45.189  49.711  1.00  0.00     0.037 A 
HETATM   29  C   UNL     1      26.800  44.876  50.959  1.00  0.00     0.012 A 
BRANCH  27  30
HETATM   30  O   UNL     1      24.223  45.287  48.314  1.00  0.00    -0.356 OA
HETATM   31  C   UNL     1      23.484  44.218  47.738  1.00  0.00     0.210 C 
ENDBRANCH  27  30
ENDBRANCH   2  24
TORSDOF 4
ENDMDL
MODEL 9
REMARK VINA RESULT:      -7.5      3.055      6.815
REMARK  4 active torsions:
REMARK  status: ('A' for Active; 'I' for Inactive)
REMARK    1  A    between atoms: C_6  and  N_7 
REMARK       I    between atoms: N_7  and  C_8 
REMARK    2  A    between atoms: C_8  and  C_9 
REMARK    3  A    between atoms: C_10  and  C_11 
REMARK    4  A    between atoms: C_14  and  O_15 
ROOT
HETATM    1  C   UNL     1      26.597  44.746  50.940  1.00  0.00     0.062 C 
HETATM    2  C   UNL     1      26.851  43.398  50.276  1.00  0.00     0.202 C 
HETATM    3  N   UNL     1      27.496  42.475  51.219  1.00  0.00    -0.084 N 
HETATM    4  C   UNL     1      27.615  42.713  52.563  1.00  0.00     0.725 A 
HETATM    5  N   UNL     1      27.156  43.873  53.074  1.00  0.00    -0.192 N 
HETATM    6  N   UNL     1      28.123  41.334  50.866  1.00  0.00    -0.149 NA
HETATM    7  C   UNL     1      28.517  40.889  52.065  1.00  0.00     0.275 A 
HETATM    8  N   UNL     1      28.232  41.707  53.130  1.00  0.00    -0.054 NA
HETATM    9  C   UNL     1      26.718  44.926  52.278  1.00  0.00     0.037 C 
HETATM   10  C   UNL     1      26.408  46.214  52.997  1.00  0.00     0.070 C 
HETATM   11  H   UNL     1      27.292  44.053  54.065  1.00  0.00     0.184 HD
ENDROOT
BRANCH   1  12
HETATM   12  C   UNL     1      26.279  45.856  50.009  1.00  0.00     0.256 C 
HETATM   13  N   UNL     1      24.964  46.263  50.125  1.00  0.00    -0.323 N 
HETATM   14  H   UNL     1      24.388  45.745  50.775  1.00  0.00     0.169 HD
HETATM   15  O   UNL     1      27.150  46.313  49.285  1.00  0.00    -0.267 OA
BRANCH  13  16
HETATM   16  C   UNL     1      24.326  47.331  49.451  1.00  0.00     0.041 A 
HETATM   17  C   UNL     1      23.105  47.084  48.787  1.00  0.00    -0.035 A 
HETATM   18  C   UNL     1      22.444  48.144  48.136  1.00  0.00     0.015 A 
HETATM   19  C   UNL     1      22.467  45.720  48.748  1.00  0.00     0.050 C 
HETATM   20  C   UNL     1      22.981  49.435  48.120  1.00  0.00    -0.061 A 
HETATM   21  C   UNL     1      22.247  50.564  47.460  1.00  0.00     0.048 C 
HETATM   22  C   UNL     1      24.185  49.669  48.783  1.00  0.00     0.009 A 
HETATM   23  C   UNL     1      24.851  48.627  49.436  1.00  0.00     0.030 A 
ENDBRANCH  13  16
ENDBRANCH   1  12
BRANCH   2  24
HETATM   24  C   UNL     1      25.595  42.753  49.702  1.00  0.00    -0.028 A 
HETATM   25  C   UNL     1      25.672  42.003  48.520  1.00  0.00     0.012 A 
HETATM   26  C   UNL     1      24.528  41.411  47.978  1.00  0.00     0.037 A 
HETATM   27  C   UNL     1      23.287  41.553  48.600  1.00  0.00     0.068 A 
HETATM   28  C   UNL     1      23.197  42.298  49.775  1.00  0.00     0.037 A 
HETATM   29  C   UNL     1      24.340  42.894  50.321  1.00  0.00     0.012 A 
BRANCH  27  30
HETATM   30  O   UNL     1      22.253  40.922  47.964  1.00  0.00    -0.356 OA
HETATM   31  C   UNL     1      21.822  41.482  46.730  1.00  0.00     0.210 C 
ENDBRANCH  27  30
ENDBRANCH   2  24
TORSDOF 4
ENDMDL
MODEL 10
REMARK VINA RESULT:      -7.5      2.773      8.108
REMARK  4 active torsions:
REMARK  status: ('A' for Active; 'I' for Inactive)
REMARK    1  A    between atoms: C_6  and  N_7 
REMARK       I    between atoms: N_7  and  C_8 
REMARK    2  A    between atoms: C_8  and  C_9 
REMARK    3  A    between atoms: C_10  and  C_11 
REMARK    4  A    between atoms: C_14  and  O_15 
ROOT
HETATM    1  C   UNL     1      24.911  42.834  50.428  1.00  0.00     0.062 C 
HETATM    2  C   UNL     1      25.489  43.710  51.532  1.00  0.00     0.202 C 
HETATM    3  N   UNL     1      26.612  43.030  52.192  1.00  0.00    -0.084 N 
HETATM    4  C   UNL     1      27.206  41.892  51.713  1.00  0.00     0.725 A 
HETATM    5  N   UNL     1      26.727  41.317  50.592  1.00  0.00    -0.192 N 
HETATM    6  N   UNL     1      27.132  43.390  53.384  1.00  0.00    -0.149 NA
HETATM    7  C   UNL     1      28.099  42.474  53.516  1.00  0.00     0.275 A 
HETATM    8  N   UNL     1      28.173  41.534  52.518  1.00  0.00    -0.054 NA
HETATM    9  C   UNL     1      25.544  41.722  49.983  1.00  0.00     0.037 C 
HETATM   10  C   UNL     1      25.057  40.861  48.845  1.00  0.00     0.070 C 
HETATM   11  H   UNL     1      27.150  40.448  50.275  1.00  0.00     0.184 HD
ENDROOT
BRANCH   1  12
HETATM   12  C   UNL     1      23.576  43.248  49.931  1.00  0.00     0.256 C 
HETATM   13  N   UNL     1      23.668  43.985  48.766  1.00  0.00    -0.323 N 
HETATM   14  H   UNL     1      24.601  44.182  48.431  1.00  0.00     0.169 HD
HETATM   15  O   UNL     1      22.569  42.904  50.530  1.00  0.00    -0.267 OA
BRANCH  13  16
HETATM   16  C   UNL     1      22.608  44.487  47.975  1.00  0.00     0.041 A 
HETATM   17  C   UNL     1      22.339  45.873  47.998  1.00  0.00    -0.035 A 
HETATM   18  C   UNL     1      21.306  46.392  47.193  1.00  0.00     0.015 A 
HETATM   19  C   UNL     1      23.123  46.834  48.852  1.00  0.00     0.050 C 
HETATM   20  C   UNL     1      20.528  45.559  46.382  1.00  0.00    -0.061 A 
HETATM   21  C   UNL     1      19.459  46.128  45.499  1.00  0.00     0.048 C 
HETATM   22  C   UNL     1      20.806  44.192  46.363  1.00  0.00     0.009 A 
HETATM   23  C   UNL     1      21.830  43.664  47.155  1.00  0.00     0.030 A 
ENDBRANCH  13  16
ENDBRANCH   1  12
BRANCH   2  24
HETATM   24  C   UNL     1      25.932  45.088  51.051  1.00  0.00    -0.028 A 
HETATM   25  C   UNL     1      26.788  45.201  49.948  1.00  0.00     0.012 A 
HETATM   26  C   UNL     1      27.208  46.457  49.499  1.00  0.00     0.037 A 
HETATM   27  C   UNL     1      26.783  47.622  50.139  1.00  0.00     0.068 A 
HETATM   28  C   UNL     1      25.932  47.522  51.238  1.00  0.00     0.037 A 
HETATM   29  C   UNL     1      25.510  46.266  51.692  1.00  0.00     0.012 A 
BRANCH  27  30
HETATM   30  O   UNL     1      27.267  48.781  49.597  1.00  0.00    -0.356 OA
HETATM   31  C   UNL     1      26.463  49.411  48.608  1.00  0.00     0.210 C 
ENDBRANCH  27  30
ENDBRANCH   2  24
TORSDOF 4
ENDMDL
