MODEL 1
REMARK VINA RESULT:      -8.1      0.000      0.000
REMARK  7 active torsions:
REMARK  status: ('A' for Active; 'I' for Inactive)
REMARK    1  A    between atoms: C_6  and  C_7 
REMARK       I    between atoms: C_7  and  N_8 
REMARK    2  A    between atoms: N_8  and  N_9 
REMARK       I    between atoms: N_9  and  C_10 
REMARK    3  A    between atoms: C_10  and  C_11 
REMARK    4  A    between atoms: C_11  and  C_12 
REMARK    5  A    between atoms: C_12  and  C_13 
REMARK    6  A    between atoms: C_13  and  O_14 
REMARK    7  A    between atoms: O_14  and  C_15 
ROOT
HETATM    1  N   UNL     1      24.029  46.903  49.959  1.00  0.00    -0.267 N 
HETATM    2  C   UNL     1      24.922  46.702  50.993  1.00  0.00     0.236 C 
HETATM    3  O   UNL     1      25.153  47.540  51.860  1.00  0.00    -0.272 OA
HETATM    4  H   UNL     1      23.709  46.148  49.353  1.00  0.00     0.190 HD
ENDROOT
BRANCH   2   5
HETATM    5  C   UNL     1      25.604  45.351  50.915  1.00  0.00     0.107 C 
BRANCH   5   6
HETATM    6  C   UNL     1      25.147  44.367  51.986  1.00  0.00     0.036 C 
BRANCH   6   7
HETATM    7  C   UNL     1      26.310  43.796  52.802  1.00  0.00     0.176 C 
BRANCH   7   8
HETATM    8  O   UNL     1      27.187  44.876  53.108  1.00  0.00    -0.349 OA
BRANCH   8   9
HETATM    9  C   UNL     1      28.214  44.695  53.992  1.00  0.00     0.090 A 
HETATM   10  C   UNL     1      28.731  45.560  54.969  1.00  0.00     0.069 A 
HETATM   11 CL   UNL     1      28.122  47.140  55.317  1.00  0.00    -0.081 Cl
HETATM   12  C   UNL     1      29.790  45.138  55.789  1.00  0.00     0.050 A 
HETATM   13  C   UNL     1      30.324  43.860  55.652  1.00  0.00     0.035 A 
HETATM   14 CL   UNL     1      31.611  43.355  56.676  1.00  0.00    -0.084 Cl
HETATM   15  C   UNL     1      29.813  42.987  54.702  1.00  0.00     0.026 A 
HETATM   16  C   UNL     1      28.764  43.405  53.883  1.00  0.00     0.040 A 
ENDBRANCH   8   9
ENDBRANCH   7   8
ENDBRANCH   6   7
ENDBRANCH   5   6
ENDBRANCH   2   5
BRANCH   1  17
HETATM   17  N   UNL     1      23.245  48.057  49.968  1.00  0.00    -0.262 N 
HETATM   18  C   UNL     1      22.573  48.436  48.824  1.00  0.00     0.290 C 
HETATM   19  O   UNL     1      22.683  47.833  47.756  1.00  0.00    -0.264 OA
HETATM   20  H   UNL     1      23.055  48.526  50.855  1.00  0.00     0.190 HD
BRANCH  18  21
HETATM   21  C   UNL     1      21.725  49.620  49.004  1.00  0.00     0.147 A 
HETATM   22  N   UNL     1      21.743  50.351  50.138  1.00  0.00    -0.169 NA
HETATM   23  N   UNL     1      20.853  51.333  49.912  1.00  0.00    -0.282 N 
HETATM   24  C   UNL     1      20.260  51.268  48.682  1.00  0.00     0.026 A 
HETATM   25  H   UNL     1      20.700  52.019  50.644  1.00  0.00     0.189 HD
HETATM   26  C   UNL     1      19.255  52.250  48.222  1.00  0.00     0.070 C 
HETATM   27  C   UNL     1      20.804  50.160  48.070  1.00  0.00     0.065 A 
ENDBRANCH  18  21
ENDBRANCH   1  17
TORSDOF 7
ENDMDL
MODEL 2
REMARK VINA RESULT:      -8.0      2.759      3.532
REMARK  7 active torsions:
REMARK  status: ('A' for Active; 'I' for Inactive)
REMARK    1  A    between atoms: C_6  and  C_7 
REMARK       I    between atoms: C_7  and  N_8 
REMARK    2  A    between atoms: N_8  and  N_9 
REMARK       I    between atoms: N_9  and  C_10 
REMARK    3  A    between atoms: C_10  and  C_11 
REMARK    4  A    between atoms: C_11  and  C_12 
REMARK    5  A    between atoms: C_12  and  C_13 
REMARK    6  A    between atoms: C_13  and  O_14 
REMARK    7  A    between atoms: O_14  and  C_15 
ROOT
HETATM    1  N   UNL     1      27.343  44.717  50.182  1.00  0.00    -0.267 N 
HETATM    2  C   UNL     1      26.689  43.542  49.867  1.00  0.00     0.236 C 
HETATM    3  O   UNL     1      25.668  43.496  49.188  1.00  0.00    -0.272 OA
HETATM    4  H   UNL     1      28.277  44.736  50.587  1.00  0.00     0.190 HD
ENDROOT
BRANCH   2   5
HETATM    5  C   UNL     1      27.354  42.327  50.482  1.00  0.00     0.107 C 
BRANCH   5   6
HETATM    6  C   UNL     1      27.307  42.303  52.006  1.00  0.00     0.036 C 
BRANCH   6   7
HETATM    7  C   UNL     1      28.670  42.576  52.647  1.00  0.00     0.176 C 
BRANCH   7   8
HETATM    8  O   UNL     1      28.678  43.935  53.073  1.00  0.00    -0.349 OA
BRANCH   8   9
HETATM    9  C   UNL     1      29.246  44.275  54.268  1.00  0.00     0.090 A 
HETATM   10  C   UNL     1      29.001  45.374  55.107  1.00  0.00     0.069 A 
HETATM   11 CL   UNL     1      27.825  46.605  54.811  1.00  0.00    -0.081 Cl
HETATM   12  C   UNL     1      29.702  45.501  56.317  1.00  0.00     0.050 A 
HETATM   13  C   UNL     1      30.630  44.537  56.702  1.00  0.00     0.035 A 
HETATM   14 CL   UNL     1      31.468  44.701  58.195  1.00  0.00    -0.084 Cl
HETATM   15  C   UNL     1      30.871  43.436  55.891  1.00  0.00     0.026 A 
HETATM   16  C   UNL     1      30.179  43.310  54.686  1.00  0.00     0.040 A 
ENDBRANCH   8   9
ENDBRANCH   7   8
ENDBRANCH   6   7
ENDBRANCH   5   6
ENDBRANCH   2   5
BRANCH   1  17
HETATM   17  N   UNL     1      26.906  45.903  49.589  1.00  0.00    -0.262 N 
HETATM   18  C   UNL     1      26.066  46.747  50.286  1.00  0.00     0.290 C 
HETATM   19  O   UNL     1      25.622  46.472  51.402  1.00  0.00    -0.264 OA
HETATM   20  H   UNL     1      27.327  46.207  48.710  1.00  0.00     0.190 HD
BRANCH  18  21
HETATM   21  C   UNL     1      25.757  47.992  49.572  1.00  0.00     0.147 A 
HETATM   22  N   UNL     1      26.721  48.821  49.123  1.00  0.00    -0.169 NA
HETATM   23  N   UNL     1      26.047  49.820  48.530  1.00  0.00    -0.282 N 
HETATM   24  C   UNL     1      24.689  49.673  48.576  1.00  0.00     0.026 A 
HETATM   25  H   UNL     1      26.580  50.574  48.108  1.00  0.00     0.189 HD
HETATM   26  C   UNL     1      23.755  50.653  47.981  1.00  0.00     0.070 C 
HETATM   27  C   UNL     1      24.469  48.495  49.253  1.00  0.00     0.065 A 
ENDBRANCH  18  21
ENDBRANCH   1  17
TORSDOF 7
ENDMDL
MODEL 3
REMARK VINA RESULT:      -7.9      1.520      1.771
REMARK  7 active torsions:
REMARK  status: ('A' for Active; 'I' for Inactive)
REMARK    1  A    between atoms: C_6  and  C_7 
REMARK       I    between atoms: C_7  and  N_8 
REMARK    2  A    between atoms: N_8  and  N_9 
REMARK       I    between atoms: N_9  and  C_10 
REMARK    3  A    between atoms: C_10  and  C_11 
REMARK    4  A    between atoms: C_11  and  C_12 
REMARK    5  A    between atoms: C_12  and  C_13 
REMARK    6  A    between atoms: C_13  and  O_14 
REMARK    7  A    between atoms: O_14  and  C_15 
ROOT
HETATM    1  N   UNL     1      24.188  47.390  49.815  1.00  0.00    -0.267 N 
HETATM    2  C   UNL     1      25.469  47.889  49.675  1.00  0.00     0.236 C 
HETATM    3  O   UNL     1      25.712  49.065  49.425  1.00  0.00    -0.272 OA
HETATM    4  H   UNL     1      23.997  46.464  50.197  1.00  0.00     0.190 HD
ENDROOT
BRANCH   2   5
HETATM    5  C   UNL     1      26.528  46.817  49.832  1.00  0.00     0.107 C 
BRANCH   5   6
HETATM    6  C   UNL     1      25.968  45.399  49.884  1.00  0.00     0.036 C 
BRANCH   6   7
HETATM    7  C   UNL     1      27.055  44.338  50.068  1.00  0.00     0.176 C 
BRANCH   7   8
HETATM    8  O   UNL     1      26.777  43.648  51.283  1.00  0.00    -0.349 OA
BRANCH   8   9
HETATM    9  C   UNL     1      27.638  43.748  52.340  1.00  0.00     0.090 A 
HETATM   10  C   UNL     1      27.583  44.567  53.478  1.00  0.00     0.069 A 
HETATM   11 CL   UNL     1      26.311  45.681  53.839  1.00  0.00    -0.081 Cl
HETATM   12  C   UNL     1      28.585  44.474  54.457  1.00  0.00     0.050 A 
HETATM   13  C   UNL     1      29.629  43.565  54.316  1.00  0.00     0.035 A 
HETATM   14 CL   UNL     1      30.841  43.455  55.533  1.00  0.00    -0.084 Cl
HETATM   15  C   UNL     1      29.690  42.737  53.204  1.00  0.00     0.026 A 
HETATM   16  C   UNL     1      28.697  42.830  52.228  1.00  0.00     0.040 A 
ENDBRANCH   8   9
ENDBRANCH   7   8
ENDBRANCH   6   7
ENDBRANCH   5   6
ENDBRANCH   2   5
BRANCH   1  17
HETATM   17  N   UNL     1      23.118  48.285  49.808  1.00  0.00    -0.262 N 
HETATM   18  C   UNL     1      22.364  48.441  48.663  1.00  0.00     0.290 C 
HETATM   19  O   UNL     1      22.630  47.867  47.607  1.00  0.00    -0.264 OA
HETATM   20  H   UNL     1      22.810  48.704  50.687  1.00  0.00     0.190 HD
BRANCH  18  21
HETATM   21  C   UNL     1      21.224  49.351  48.828  1.00  0.00     0.147 A 
HETATM   22  N   UNL     1      20.137  49.017  49.552  1.00  0.00    -0.169 NA
HETATM   23  N   UNL     1      19.341  50.096  49.469  1.00  0.00    -0.282 N 
HETATM   24  C   UNL     1      19.866  51.114  48.723  1.00  0.00     0.026 A 
HETATM   25  H   UNL     1      18.448  50.072  49.952  1.00  0.00     0.189 HD
HETATM   26  C   UNL     1      19.162  52.395  48.504  1.00  0.00     0.070 C 
HETATM   27  C   UNL     1      21.090  50.656  48.287  1.00  0.00     0.065 A 
ENDBRANCH  18  21
ENDBRANCH   1  17
TORSDOF 7
ENDMDL
MODEL 4
REMARK VINA RESULT:      -7.8     13.035     15.251
REMARK  7 active torsions:
REMARK  status: ('A' for Active; 'I' for Inactive)
REMARK    1  A    between atoms: C_6  and  C_7 
REMARK       I    between atoms: C_7  and  N_8 
REMARK    2  A    between atoms: N_8  and  N_9 
REMARK       I    between atoms: N_9  and  C_10 
REMARK    3  A    between atoms: C_10  and  C_11 
REMARK    4  A    between atoms: C_11  and  C_12 
REMARK    5  A    between atoms: C_12  and  C_13 
REMARK    6  A    between atoms: C_13  and  O_14 
REMARK    7  A    between atoms: O_14  and  C_15 
ROOT
HETATM    1  N   UNL     1      30.779  52.151  41.621  1.00  0.00    -0.267 N 
HETATM    2  C   UNL     1      30.244  53.206  40.908  1.00  0.00     0.236 C 
HETATM    3  O   UNL     1      30.867  54.230  40.646  1.00  0.00    -0.272 OA
HETATM    4  H   UNL     1      30.326  51.240  41.679  1.00  0.00     0.190 HD
ENDROOT
BRANCH   2   5
HETATM    5  C   UNL     1      28.799  52.968  40.519  1.00  0.00     0.107 C 
BRANCH   5   6
HETATM    6  C   UNL     1      28.600  52.674  39.035  1.00  0.00     0.036 C 
BRANCH   6   7
HETATM    7  C   UNL     1      27.840  51.369  38.785  1.00  0.00     0.176 C 
BRANCH   7   8
HETATM    8  O   UNL     1      28.732  50.474  38.129  1.00  0.00    -0.349 OA
BRANCH   8   9
HETATM    9  C   UNL     1      29.775  49.920  38.816  1.00  0.00     0.090 A 
HETATM   10  C   UNL     1      31.153  50.171  38.727  1.00  0.00     0.069 A 
HETATM   11 CL   UNL     1      31.884  51.339  37.684  1.00  0.00    -0.081 Cl
HETATM   12  C   UNL     1      32.046  49.485  39.567  1.00  0.00     0.050 A 
HETATM   13  C   UNL     1      31.575  48.566  40.500  1.00  0.00     0.035 A 
HETATM   14 CL   UNL     1      32.682  47.746  41.530  1.00  0.00    -0.084 Cl
HETATM   15  C   UNL     1      30.214  48.318  40.611  1.00  0.00     0.026 A 
HETATM   16  C   UNL     1      29.325  48.995  39.775  1.00  0.00     0.040 A 
ENDBRANCH   8   9
ENDBRANCH   7   8
ENDBRANCH   6   7
ENDBRANCH   5   6
ENDBRANCH   2   5
BRANCH   1  17
HETATM   17  N   UNL     1      32.136  52.185  41.946  1.00  0.00    -0.262 N 
HETATM   18  C   UNL     1      32.636  51.306  42.885  1.00  0.00     0.290 C 
HETATM   19  O   UNL     1      31.922  50.521  43.510  1.00  0.00    -0.264 OA
HETATM   20  H   UNL     1      32.771  52.752  41.383  1.00  0.00     0.190 HD
BRANCH  18  21
HETATM   21  C   UNL     1      34.090  51.400  43.064  1.00  0.00     0.147 A 
HETATM   22  N   UNL     1      34.647  52.160  44.030  1.00  0.00    -0.169 NA
HETATM   23  N   UNL     1      35.969  51.975  43.873  1.00  0.00    -0.282 N 
HETATM   24  C   UNL     1      36.290  51.130  42.848  1.00  0.00     0.026 A 
HETATM   25  H   UNL     1      36.599  52.458  44.506  1.00  0.00     0.189 HD
HETATM   26  C   UNL     1      37.685  50.781  42.501  1.00  0.00     0.070 C 
HETATM   27  C   UNL     1      35.088  50.743  42.299  1.00  0.00     0.065 A 
ENDBRANCH  18  21
ENDBRANCH   1  17
TORSDOF 7
ENDMDL
MODEL 5
REMARK VINA RESULT:      -7.6      1.674      2.205
REMARK  7 active torsions:
REMARK  status: ('A' for Active; 'I' for Inactive)
REMARK    1  A    between atoms: C_6  and  C_7 
REMARK       I    between atoms: C_7  and  N_8 
REMARK    2  A    between atoms: N_8  and  N_9 
REMARK       I    between atoms: N_9  and  C_10 
REMARK    3  A    between atoms: C_10  and  C_11 
REMARK    4  A    between atoms: C_11  and  C_12 
REMARK    5  A    between atoms: C_12  and  C_13 
REMARK    6  A    between atoms: C_13  and  O_14 
REMARK    7  A    between atoms: O_14  and  C_15 
ROOT
HETATM    1  N   UNL     1      24.115  47.360  49.843  1.00  0.00    -0.267 N 
HETATM    2  C   UNL     1      24.068  46.007  49.566  1.00  0.00     0.236 C 
HETATM    3  O   UNL     1      23.040  45.418  49.245  1.00  0.00    -0.272 OA
HETATM    4  H   UNL     1      24.991  47.873  49.931  1.00  0.00     0.190 HD
ENDROOT
BRANCH   2   5
HETATM    5  C   UNL     1      25.414  45.334  49.736  1.00  0.00     0.107 C 
BRANCH   5   6
HETATM    6  C   UNL     1      26.280  45.954  50.828  1.00  0.00     0.036 C 
BRANCH   6   7
HETATM    7  C   UNL     1      26.094  45.277  52.188  1.00  0.00     0.176 C 
BRANCH   7   8
HETATM    8  O   UNL     1      27.247  44.475  52.428  1.00  0.00    -0.349 OA
BRANCH   8   9
HETATM    9  C   UNL     1      27.987  44.661  53.561  1.00  0.00     0.090 A 
HETATM   10  C   UNL     1      29.143  44.000  54.006  1.00  0.00     0.069 A 
HETATM   11 CL   UNL     1      29.961  42.743  53.146  1.00  0.00    -0.081 Cl
HETATM   12  C   UNL     1      29.751  44.387  55.211  1.00  0.00     0.050 A 
HETATM   13  C   UNL     1      29.226  45.433  55.964  1.00  0.00     0.035 A 
HETATM   14 CL   UNL     1      29.994  45.904  57.430  1.00  0.00    -0.084 Cl
HETATM   15  C   UNL     1      28.094  46.108  55.529  1.00  0.00     0.026 A 
HETATM   16  C   UNL     1      27.485  45.722  54.335  1.00  0.00     0.040 A 
ENDBRANCH   8   9
ENDBRANCH   7   8
ENDBRANCH   6   7
ENDBRANCH   5   6
ENDBRANCH   2   5
BRANCH   1  17
HETATM   17  N   UNL     1      22.972  48.128  49.617  1.00  0.00    -0.262 N 
HETATM   18  C   UNL     1      22.954  49.038  48.580  1.00  0.00     0.290 C 
HETATM   19  O   UNL     1      23.936  49.256  47.868  1.00  0.00    -0.264 OA
HETATM   20  H   UNL     1      22.112  47.907  50.122  1.00  0.00     0.190 HD
BRANCH  18  21
HETATM   21  C   UNL     1      21.662  49.713  48.410  1.00  0.00     0.147 A 
HETATM   22  N   UNL     1      20.570  49.070  47.948  1.00  0.00    -0.169 NA
HETATM   23  N   UNL     1      19.609  50.009  47.947  1.00  0.00    -0.282 N 
HETATM   24  C   UNL     1      20.032  51.232  48.389  1.00  0.00     0.026 A 
HETATM   25  H   UNL     1      18.681  49.744  47.633  1.00  0.00     0.189 HD
HETATM   26  C   UNL     1      19.139  52.407  48.476  1.00  0.00     0.070 C 
HETATM   27  C   UNL     1      21.366  51.071  48.693  1.00  0.00     0.065 A 
ENDBRANCH  18  21
ENDBRANCH   1  17
TORSDOF 7
ENDMDL
MODEL 6
REMARK VINA RESULT:      -7.3      1.767      2.377
REMARK  7 active torsions:
REMARK  status: ('A' for Active; 'I' for Inactive)
REMARK    1  A    between atoms: C_6  and  C_7 
REMARK       I    between atoms: C_7  and  N_8 
REMARK    2  A    between atoms: N_8  and  N_9 
REMARK       I    between atoms: N_9  and  C_10 
REMARK    3  A    between atoms: C_10  and  C_11 
REMARK    4  A    between atoms: C_11  and  C_12 
REMARK    5  A    between atoms: C_12  and  C_13 
REMARK    6  A    between atoms: C_13  and  O_14 
REMARK    7  A    between atoms: O_14  and  C_15 
ROOT
HETATM    1  N   UNL     1      25.412  45.885  49.764  1.00  0.00    -0.267 N 
HETATM    2  C   UNL     1      25.446  44.991  50.816  1.00  0.00     0.236 C 
HETATM    3  O   UNL     1      24.576  44.930  51.680  1.00  0.00    -0.272 OA
HETATM    4  H   UNL     1      26.032  45.811  48.959  1.00  0.00     0.190 HD
ENDROOT
BRANCH   2   5
HETATM    5  C   UNL     1      26.687  44.123  50.799  1.00  0.00     0.107 C 
BRANCH   5   6
HETATM    6  C   UNL     1      26.590  42.889  51.690  1.00  0.00     0.036 C 
BRANCH   6   7
HETATM    7  C   UNL     1      26.969  43.176  53.145  1.00  0.00     0.176 C 
BRANCH   7   8
HETATM    8  O   UNL     1      27.854  44.292  53.143  1.00  0.00    -0.349 OA
BRANCH   8   9
HETATM    9  C   UNL     1      28.589  44.585  54.257  1.00  0.00     0.090 A 
HETATM   10  C   UNL     1      29.781  44.015  54.732  1.00  0.00     0.069 A 
HETATM   11 CL   UNL     1      30.662  42.755  53.942  1.00  0.00    -0.081 Cl
HETATM   12  C   UNL     1      30.373  44.506  55.907  1.00  0.00     0.050 A 
HETATM   13  C   UNL     1      29.795  45.565  56.600  1.00  0.00     0.035 A 
HETATM   14 CL   UNL     1      30.543  46.164  58.029  1.00  0.00    -0.084 Cl
HETATM   15  C   UNL     1      28.626  46.151  56.135  1.00  0.00     0.026 A 
HETATM   16  C   UNL     1      28.033  45.661  54.971  1.00  0.00     0.040 A 
ENDBRANCH   8   9
ENDBRANCH   7   8
ENDBRANCH   6   7
ENDBRANCH   5   6
ENDBRANCH   2   5
BRANCH   1  17
HETATM   17  N   UNL     1      24.270  46.668  49.590  1.00  0.00    -0.262 N 
HETATM   18  C   UNL     1      24.375  48.044  49.619  1.00  0.00     0.290 C 
HETATM   19  O   UNL     1      25.433  48.627  49.858  1.00  0.00    -0.264 OA
HETATM   20  H   UNL     1      23.399  46.225  49.295  1.00  0.00     0.190 HD
BRANCH  18  21
HETATM   21  C   UNL     1      23.111  48.737  49.340  1.00  0.00     0.147 A 
HETATM   22  N   UNL     1      22.926  50.040  49.632  1.00  0.00    -0.169 NA
HETATM   23  N   UNL     1      21.671  50.296  49.225  1.00  0.00    -0.282 N 
HETATM   24  C   UNL     1      21.036  49.213  48.683  1.00  0.00     0.026 A 
HETATM   25  H   UNL     1      21.310  51.237  49.346  1.00  0.00     0.189 HD
HETATM   26  C   UNL     1      19.653  49.270  48.165  1.00  0.00     0.070 C 
HETATM   27  C   UNL     1      21.947  48.182  48.748  1.00  0.00     0.065 A 
ENDBRANCH  18  21
ENDBRANCH   1  17
TORSDOF 7
ENDMDL
MODEL 7
REMARK VINA RESULT:      -7.3     13.400     15.447
REMARK  7 active torsions:
REMARK  status: ('A' for Active; 'I' for Inactive)
REMARK    1  A    between atoms: C_6  and  C_7 
REMARK       I    between atoms: C_7  and  N_8 
REMARK    2  A    between atoms: N_8  and  N_9 
REMARK       I    between atoms: N_9  and  C_10 
REMARK    3  A    between atoms: C_10  and  C_11 
REMARK    4  A    between atoms: C_11  and  C_12 
REMARK    5  A    between atoms: C_12  and  C_13 
REMARK    6  A    between atoms: C_13  and  O_14 
REMARK    7  A    between atoms: O_14  and  C_15 
ROOT
HETATM    1  N   UNL     1      31.492  48.929  39.502  1.00  0.00    -0.267 N 
HETATM    2  C   UNL     1      31.493  47.672  40.075  1.00  0.00     0.236 C 
HETATM    3  O   UNL     1      32.432  47.228  40.729  1.00  0.00    -0.272 OA
HETATM    4  H   UNL     1      30.650  49.359  39.120  1.00  0.00     0.190 HD
ENDROOT
BRANCH   2   5
HETATM    5  C   UNL     1      30.225  46.899  39.778  1.00  0.00     0.107 C 
BRANCH   5   6
HETATM    6  C   UNL     1      28.976  47.770  39.695  1.00  0.00     0.036 C 
BRANCH   6   7
HETATM    7  C   UNL     1      28.373  48.076  41.067  1.00  0.00     0.176 C 
BRANCH   7   8
HETATM    8  O   UNL     1      27.701  49.328  40.970  1.00  0.00    -0.349 OA
BRANCH   8   9
HETATM    9  C   UNL     1      28.413  50.470  40.734  1.00  0.00     0.090 A 
HETATM   10  C   UNL     1      28.372  51.354  39.644  1.00  0.00     0.069 A 
HETATM   11 CL   UNL     1      27.317  51.203  38.283  1.00  0.00    -0.081 Cl
HETATM   12  C   UNL     1      29.193  52.494  39.635  1.00  0.00     0.050 A 
HETATM   13  C   UNL     1      30.039  52.764  40.706  1.00  0.00     0.035 A 
HETATM   14 CL   UNL     1      31.026  54.173  40.684  1.00  0.00    -0.084 Cl
HETATM   15  C   UNL     1      30.079  51.909  41.799  1.00  0.00     0.026 A 
HETATM   16  C   UNL     1      29.268  50.774  41.808  1.00  0.00     0.040 A 
ENDBRANCH   8   9
ENDBRANCH   7   8
ENDBRANCH   6   7
ENDBRANCH   5   6
ENDBRANCH   2   5
BRANCH   1  17
HETATM   17  N   UNL     1      32.547  49.795  39.789  1.00  0.00    -0.262 N 
HETATM   18  C   UNL     1      32.734  50.925  39.019  1.00  0.00     0.290 C 
HETATM   19  O   UNL     1      32.041  51.181  38.033  1.00  0.00    -0.264 OA
HETATM   20  H   UNL     1      33.080  49.667  40.651  1.00  0.00     0.190 HD
BRANCH  18  21
HETATM   21  C   UNL     1      33.829  51.783  39.487  1.00  0.00     0.147 A 
HETATM   22  N   UNL     1      33.988  53.048  39.048  1.00  0.00    -0.169 NA
HETATM   23  N   UNL     1      35.073  53.491  39.705  1.00  0.00    -0.282 N 
HETATM   24  C   UNL     1      35.624  52.567  40.548  1.00  0.00     0.026 A 
HETATM   25  H   UNL     1      35.385  54.442  39.530  1.00  0.00     0.189 HD
HETATM   26  C   UNL     1      36.819  52.844  41.373  1.00  0.00     0.070 C 
HETATM   27  C   UNL     1      34.838  51.443  40.424  1.00  0.00     0.065 A 
ENDBRANCH  18  21
ENDBRANCH   1  17
TORSDOF 7
ENDMDL
MODEL 8
REMARK VINA RESULT:      -7.3      1.786      2.084
REMARK  7 active torsions:
REMARK  status: ('A' for Active; 'I' for Inactive)
REMARK    1  A    between atoms: C_6  and  C_7 
REMARK       I    between atoms: C_7  and  N_8 
REMARK    2  A    between atoms: N_8  and  N_9 
REMARK       I    between atoms: N_9  and  C_10 
REMARK    3  A    between atoms: C_10  and  C_11 
REMARK    4  A    between atoms: C_11  and  C_12 
REMARK    5  A    between atoms: C_12  and  C_13 
REMARK    6  A    between atoms: C_13  and  O_14 
REMARK    7  A    between atoms: O_14  and  C_15 
ROOT
HETATM    1  N   UNL     1      23.163  44.951  49.787  1.00  0.00    -0.267 N 
HETATM    2  C   UNL     1      24.300  44.599  50.488  1.00  0.00     0.236 C 
HETATM    3  O   UNL     1      25.167  45.403  50.818  1.00  0.00    -0.272 OA
HETATM    4  H   UNL     1      22.369  44.322  49.675  1.00  0.00     0.190 HD
ENDROOT
BRANCH   2   5
HETATM    5  C   UNL     1      24.369  43.113  50.771  1.00  0.00     0.107 C 
BRANCH   5   6
HETATM    6  C   UNL     1      25.645  42.447  50.267  1.00  0.00     0.036 C 
BRANCH   6   7
HETATM    7  C   UNL     1      26.623  42.106  51.395  1.00  0.00     0.176 C 
BRANCH   7   8
HETATM    8  O   UNL     1      27.600  43.142  51.439  1.00  0.00    -0.349 OA
BRANCH   8   9
HETATM    9  C   UNL     1      28.294  43.379  52.593  1.00  0.00     0.090 A 
HETATM   10  C   UNL     1      27.930  44.110  53.734  1.00  0.00     0.069 A 
HETATM   11 CL   UNL     1      26.408  44.897  53.965  1.00  0.00    -0.081 Cl
HETATM   12  C   UNL     1      28.813  44.195  54.823  1.00  0.00     0.050 A 
HETATM   13  C   UNL     1      30.044  43.548  54.787  1.00  0.00     0.035 A 
HETATM   14 CL   UNL     1      31.107  43.650  56.136  1.00  0.00    -0.084 Cl
HETATM   15  C   UNL     1      30.412  42.807  53.672  1.00  0.00     0.026 A 
HETATM   16  C   UNL     1      29.538  42.725  52.587  1.00  0.00     0.040 A 
ENDBRANCH   8   9
ENDBRANCH   7   8
ENDBRANCH   6   7
ENDBRANCH   5   6
ENDBRANCH   2   5
BRANCH   1  17
HETATM   17  N   UNL     1      22.912  46.304  49.557  1.00  0.00    -0.262 N 
HETATM   18  C   UNL     1      22.446  46.713  48.324  1.00  0.00     0.290 C 
HETATM   19  O   UNL     1      22.298  45.939  47.378  1.00  0.00    -0.264 OA
HETATM   20  H   UNL     1      22.932  46.957  50.342  1.00  0.00     0.190 HD
BRANCH  18  21
HETATM   21  C   UNL     1      22.149  48.149  48.253  1.00  0.00     0.147 A 
HETATM   22  N   UNL     1      22.937  49.013  47.581  1.00  0.00    -0.169 NA
HETATM   23  N   UNL     1      22.335  50.203  47.743  1.00  0.00    -0.282 N 
HETATM   24  C   UNL     1      21.192  50.146  48.491  1.00  0.00     0.026 A 
HETATM   25  H   UNL     1      22.759  51.018  47.311  1.00  0.00     0.189 HD
HETATM   26  C   UNL     1      20.367  51.336  48.790  1.00  0.00     0.070 C 
HETATM   27  C   UNL     1      21.048  48.822  48.842  1.00  0.00     0.065 A 
ENDBRANCH  18  21
ENDBRANCH   1  17
TORSDOF 7
ENDMDL
MODEL 9
REMARK VINA RESULT:      -7.2      4.432     10.538
REMARK  7 active torsions:
REMARK  status: ('A' for Active; 'I' for Inactive)
REMARK    1  A    between atoms: C_6  and  C_7 
REMARK       I    between atoms: C_7  and  N_8 
REMARK    2  A    between atoms: N_8  and  N_9 
REMARK       I    between atoms: N_9  and  C_10 
REMARK    3  A    between atoms: C_10  and  C_11 
REMARK    4  A    between atoms: C_11  and  C_12 
REMARK    5  A    between atoms: C_12  and  C_13 
REMARK    6  A    between atoms: C_13  and  O_14 
REMARK    7  A    between atoms: O_14  and  C_15 
ROOT
HETATM    1  N   UNL     1      24.465  46.207  50.181  1.00  0.00    -0.267 N 
HETATM    2  C   UNL     1      24.697  47.565  50.087  1.00  0.00     0.236 C 
HETATM    3  O   UNL     1      25.769  48.089  50.373  1.00  0.00    -0.272 OA
HETATM    4  H   UNL     1      23.644  45.759  49.776  1.00  0.00     0.190 HD
ENDROOT
BRANCH   2   5
HETATM    5  C   UNL     1      23.474  48.330  49.625  1.00  0.00     0.107 C 
BRANCH   5   6
HETATM    6  C   UNL     1      22.576  47.544  48.675  1.00  0.00     0.036 C 
BRANCH   6   7
HETATM    7  C   UNL     1      21.233  48.231  48.422  1.00  0.00     0.176 C 
BRANCH   7   8
HETATM    8  O   UNL     1      21.269  49.495  49.079  1.00  0.00    -0.349 OA
BRANCH   8   9
HETATM    9  C   UNL     1      20.120  50.217  49.240  1.00  0.00     0.090 A 
HETATM   10  C   UNL     1      18.955  49.915  49.962  1.00  0.00     0.069 A 
HETATM   11 CL   UNL     1      18.711  48.483  50.898  1.00  0.00    -0.081 Cl
HETATM   12  C   UNL     1      17.897  50.837  50.002  1.00  0.00     0.050 A 
HETATM   13  C   UNL     1      17.998  52.059  49.343  1.00  0.00     0.035 A 
HETATM   14 CL   UNL     1      16.698  53.183  49.416  1.00  0.00    -0.084 Cl
HETATM   15  C   UNL     1      19.150  52.379  48.638  1.00  0.00     0.026 A 
HETATM   16  C   UNL     1      20.201  51.462  48.593  1.00  0.00     0.040 A 
ENDBRANCH   8   9
ENDBRANCH   7   8
ENDBRANCH   6   7
ENDBRANCH   5   6
ENDBRANCH   2   5
BRANCH   1  17
HETATM   17  N   UNL     1      25.537  45.366  50.485  1.00  0.00    -0.262 N 
HETATM   18  C   UNL     1      25.543  44.669  51.676  1.00  0.00     0.290 C 
HETATM   19  O   UNL     1      24.666  44.802  52.530  1.00  0.00    -0.264 OA
HETATM   20  H   UNL     1      26.230  45.158  49.764  1.00  0.00     0.190 HD
BRANCH  18  21
HETATM   21  C   UNL     1      26.689  43.764  51.823  1.00  0.00     0.147 A 
HETATM   22  N   UNL     1      26.813  42.638  51.090  1.00  0.00    -0.169 NA
HETATM   23  N   UNL     1      27.975  42.102  51.503  1.00  0.00    -0.282 N 
HETATM   24  C   UNL     1      28.606  42.832  52.471  1.00  0.00     0.026 A 
HETATM   25  H   UNL     1      28.279  41.232  51.077  1.00  0.00     0.189 HD
HETATM   26  C   UNL     1      29.899  42.430  53.064  1.00  0.00     0.070 C 
HETATM   27  C   UNL     1      27.791  43.917  52.703  1.00  0.00     0.065 A 
ENDBRANCH  18  21
ENDBRANCH   1  17
TORSDOF 7
ENDMDL
MODEL 10
REMARK VINA RESULT:      -7.1     12.169     13.664
REMARK  7 active torsions:
REMARK  status: ('A' for Active; 'I' for Inactive)
REMARK    1  A    between atoms: C_6  and  C_7 
REMARK       I    between atoms: C_7  and  N_8 
REMARK    2  A    between atoms: N_8  and  N_9 
REMARK       I    between atoms: N_9  and  C_10 
REMARK    3  A    between atoms: C_10  and  C_11 
REMARK    4  A    between atoms: C_11  and  C_12 
REMARK    5  A    between atoms: C_12  and  C_13 
REMARK    6  A    between atoms: C_13  and  O_14 
REMARK    7  A    between atoms: O_14  and  C_15 
ROOT
HETATM    1  N   UNL     1      31.404  48.804  40.526  1.00  0.00    -0.267 N 
HETATM    2  C   UNL     1      32.189  48.714  41.658  1.00  0.00     0.236 C 
HETATM    3  O   UNL     1      31.731  48.656  42.796  1.00  0.00    -0.272 OA
HETATM    4  H   UNL     1      31.775  48.671  39.586  1.00  0.00     0.190 HD
ENDROOT
BRANCH   2   5
HETATM    5  C   UNL     1      33.670  48.729  41.339  1.00  0.00     0.107 C 
BRANCH   5   6
HETATM    6  C   UNL     1      34.353  50.057  41.645  1.00  0.00     0.036 C 
BRANCH   6   7
HETATM    7  C   UNL     1      34.230  51.066  40.501  1.00  0.00     0.176 C 
BRANCH   7   8
HETATM    8  O   UNL     1      33.591  52.227  41.022  1.00  0.00    -0.349 OA
BRANCH   8   9
HETATM    9  C   UNL     1      32.242  52.226  41.241  1.00  0.00     0.090 A 
HETATM   10  C   UNL     1      31.519  52.106  42.439  1.00  0.00     0.069 A 
HETATM   11 CL   UNL     1      32.222  51.957  44.011  1.00  0.00    -0.081 Cl
HETATM   12  C   UNL     1      30.116  52.157  42.418  1.00  0.00     0.050 A 
HETATM   13  C   UNL     1      29.433  52.342  41.220  1.00  0.00     0.035 A 
HETATM   14 CL   UNL     1      27.714  52.419  41.216  1.00  0.00    -0.084 Cl
HETATM   15  C   UNL     1      30.133  52.479  40.030  1.00  0.00     0.026 A 
HETATM   16  C   UNL     1      31.527  52.423  40.047  1.00  0.00     0.040 A 
ENDBRANCH   8   9
ENDBRANCH   7   8
ENDBRANCH   6   7
ENDBRANCH   5   6
ENDBRANCH   2   5
BRANCH   1  17
HETATM   17  N   UNL     1      30.020  48.687  40.661  1.00  0.00    -0.262 N 
HETATM   18  C   UNL     1      29.204  48.916  39.572  1.00  0.00     0.290 C 
HETATM   19  O   UNL     1      29.639  49.287  38.481  1.00  0.00    -0.264 OA
HETATM   20  H   UNL     1      29.633  48.290  41.519  1.00  0.00     0.190 HD
BRANCH  18  21
HETATM   21  C   UNL     1      27.781  48.675  39.840  1.00  0.00     0.147 A 
HETATM   22  N   UNL     1      27.238  48.870  41.059  1.00  0.00    -0.169 NA
HETATM   23  N   UNL     1      25.941  48.557  40.896  1.00  0.00    -0.282 N 
HETATM   24  C   UNL     1      25.623  48.167  39.625  1.00  0.00     0.026 A 
HETATM   25  H   UNL     1      25.324  48.634  41.699  1.00  0.00     0.189 HD
HETATM   26  C   UNL     1      24.254  47.783  39.221  1.00  0.00     0.070 C 
HETATM   27  C   UNL     1      26.802  48.229  38.916  1.00  0.00     0.065 A 
ENDBRANCH  18  21
ENDBRANCH   1  17
TORSDOF 7
ENDMDL
