MODEL 1
REMARK VINA RESULT:      -9.5      0.000      0.000
REMARK  4 active torsions:
REMARK  status: ('A' for Active; 'I' for Inactive)
REMARK    1  A    between atoms: C_3  and  N_4 
REMARK    2  A    between atoms: N_4  and  C_5 
REMARK    3  A    between atoms: C_5  and  C_6 
REMARK    4  A    between atoms: C_8  and  C_9 
REMARK       I    between atoms: C_9  and  N_10 
ROOT
HETATM    1  N   UNL     1      26.317  45.010  52.325  1.00  0.00    -0.372 N 
HETATM    2  H   UNL     1      25.353  45.211  52.590  1.00  0.00     0.161 HD
ENDROOT
BRANCH   1   3
HETATM    3  C   UNL     1      27.229  45.180  53.345  1.00  0.00     0.107 A 
HETATM    4  C   UNL     1      27.186  46.307  54.188  1.00  0.00    -0.017 A 
HETATM    5  C   UNL     1      26.179  47.416  54.029  1.00  0.00     0.052 C 
HETATM    6  C   UNL     1      28.109  46.411  55.239  1.00  0.00     0.024 A 
HETATM    7  C   UNL     1      29.053  45.407  55.454  1.00  0.00    -0.009 A 
HETATM    8  C   UNL     1      29.059  44.299  54.586  1.00  0.00     0.043 A 
HETATM    9  C   UNL     1      29.987  45.463  56.501  1.00  0.00     0.014 A 
HETATM   10  N   UNL     1      28.156  44.242  53.594  1.00  0.00    -0.342 N 
HETATM   11  C   UNL     1      29.997  43.273  54.759  1.00  0.00     0.030 A 
HETATM   12  H   UNL     1      28.201  43.452  52.964  1.00  0.00     0.167 HD
HETATM   13  C   UNL     1      30.921  43.343  55.803  1.00  0.00     0.002 A 
HETATM   14  C   UNL     1      30.913  44.432  56.672  1.00  0.00     0.001 A 
ENDBRANCH   1   3
BRANCH   1  15
HETATM   15  C   UNL     1      26.577  45.156  50.901  1.00  0.00     0.160 C 
BRANCH  15  16
HETATM   16  C   UNL     1      25.921  46.374  50.298  1.00  0.00    -0.040 A 
HETATM   17  C   UNL     1      26.678  47.424  49.756  1.00  0.00     0.026 A 
HETATM   18  C   UNL     1      26.054  48.564  49.226  1.00  0.00     0.032 A 
HETATM   19  C   UNL     1      24.661  48.660  49.234  1.00  0.00     0.017 A 
HETATM   20  C   UNL     1      23.899  47.632  49.788  1.00  0.00     0.002 A 
HETATM   21  C   UNL     1      24.523  46.501  50.323  1.00  0.00     0.009 A 
BRANCH  18  22
HETATM   22  C   UNL     1      26.919  49.615  48.636  1.00  0.00     0.249 C 
HETATM   23  N   UNL     1      28.197  49.718  49.098  1.00  0.00    -0.366 N 
HETATM   24  H   UNL     1      28.646  49.006  49.658  1.00  0.00     0.159 HD
HETATM   25  H   UNL     1      28.805  50.372  48.617  1.00  0.00     0.159 HD
HETATM   26  O   UNL     1      26.489  50.341  47.748  1.00  0.00    -0.268 OA
ENDBRANCH  18  22
ENDBRANCH  15  16
ENDBRANCH   1  15
TORSDOF 4
ENDMDL
MODEL 2
REMARK VINA RESULT:      -9.0      1.993      3.184
REMARK  4 active torsions:
REMARK  status: ('A' for Active; 'I' for Inactive)
REMARK    1  A    between atoms: C_3  and  N_4 
REMARK    2  A    between atoms: N_4  and  C_5 
REMARK    3  A    between atoms: C_5  and  C_6 
REMARK    4  A    between atoms: C_8  and  C_9 
REMARK       I    between atoms: C_9  and  N_10 
ROOT
HETATM    1  N   UNL     1      27.722  44.712  53.101  1.00  0.00    -0.372 N 
HETATM    2  H   UNL     1      27.602  43.962  52.421  1.00  0.00     0.161 HD
ENDROOT
BRANCH   1   3
HETATM    3  C   UNL     1      28.652  44.440  54.081  1.00  0.00     0.107 A 
HETATM    4  C   UNL     1      29.571  43.381  53.948  1.00  0.00    -0.017 A 
HETATM    5  C   UNL     1      29.593  42.456  52.760  1.00  0.00     0.052 C 
HETATM    6  C   UNL     1      30.526  43.173  54.953  1.00  0.00     0.024 A 
HETATM    7  C   UNL     1      30.574  44.010  56.068  1.00  0.00    -0.009 A 
HETATM    8  C   UNL     1      29.635  45.054  56.160  1.00  0.00     0.043 A 
HETATM    9  C   UNL     1      31.520  43.847  57.092  1.00  0.00     0.014 A 
HETATM   10  N   UNL     1      28.740  45.216  55.172  1.00  0.00    -0.342 N 
HETATM   11  C   UNL     1      29.641  45.911  57.268  1.00  0.00     0.030 A 
HETATM   12  H   UNL     1      28.055  45.953  55.276  1.00  0.00     0.167 HD
HETATM   13  C   UNL     1      30.586  45.736  58.280  1.00  0.00     0.002 A 
HETATM   14  C   UNL     1      31.524  44.710  58.190  1.00  0.00     0.001 A 
ENDBRANCH   1   3
BRANCH   1  15
HETATM   15  C   UNL     1      26.563  45.583  53.227  1.00  0.00     0.160 C 
BRANCH  15  16
HETATM   16  C   UNL     1      25.682  45.580  52.002  1.00  0.00    -0.040 A 
HETATM   17  C   UNL     1      25.223  46.773  51.424  1.00  0.00     0.026 A 
HETATM   18  C   UNL     1      24.379  46.753  50.303  1.00  0.00     0.032 A 
HETATM   19  C   UNL     1      23.988  45.533  49.749  1.00  0.00     0.017 A 
HETATM   20  C   UNL     1      24.422  44.340  50.327  1.00  0.00     0.002 A 
HETATM   21  C   UNL     1      25.255  44.361  51.449  1.00  0.00     0.009 A 
BRANCH  18  22
HETATM   22  C   UNL     1      23.967  48.056  49.724  1.00  0.00     0.249 C 
HETATM   23  N   UNL     1      22.633  48.277  49.547  1.00  0.00    -0.366 N 
HETATM   24  H   UNL     1      21.913  47.705  49.968  1.00  0.00     0.159 HD
HETATM   25  H   UNL     1      22.361  49.206  49.246  1.00  0.00     0.159 HD
HETATM   26  O   UNL     1      24.808  48.900  49.442  1.00  0.00    -0.268 OA
ENDBRANCH  18  22
ENDBRANCH  15  16
ENDBRANCH   1  15
TORSDOF 4
ENDMDL
MODEL 3
REMARK VINA RESULT:      -8.9      1.750      2.182
REMARK  4 active torsions:
REMARK  status: ('A' for Active; 'I' for Inactive)
REMARK    1  A    between atoms: C_3  and  N_4 
REMARK    2  A    between atoms: N_4  and  C_5 
REMARK    3  A    between atoms: C_5  and  C_6 
REMARK    4  A    between atoms: C_8  and  C_9 
REMARK       I    between atoms: C_9  and  N_10 
ROOT
HETATM    1  N   UNL     1      25.521  45.026  52.611  1.00  0.00    -0.372 N 
HETATM    2  H   UNL     1      24.657  45.400  53.003  1.00  0.00     0.161 HD
ENDROOT
BRANCH   1   3
HETATM    3  C   UNL     1      26.626  45.201  53.414  1.00  0.00     0.107 A 
HETATM    4  C   UNL     1      26.836  46.401  54.122  1.00  0.00    -0.017 A 
HETATM    5  C   UNL     1      25.904  47.581  54.037  1.00  0.00     0.052 C 
HETATM    6  C   UNL     1      27.954  46.514  54.961  1.00  0.00     0.024 A 
HETATM    7  C   UNL     1      28.844  45.449  55.103  1.00  0.00    -0.009 A 
HETATM    8  C   UNL     1      28.595  44.270  54.375  1.00  0.00     0.043 A 
HETATM    9  C   UNL     1      29.968  45.512  55.941  1.00  0.00     0.014 A 
HETATM   10  N   UNL     1      27.511  44.207  53.585  1.00  0.00    -0.342 N 
HETATM   11  C   UNL     1      29.469  43.180  54.479  1.00  0.00     0.030 A 
HETATM   12  H   UNL     1      27.371  43.362  53.047  1.00  0.00     0.167 HD
HETATM   13  C   UNL     1      30.584  43.258  55.315  1.00  0.00     0.002 A 
HETATM   14  C   UNL     1      30.830  44.419  56.045  1.00  0.00     0.001 A 
ENDBRANCH   1   3
BRANCH   1  15
HETATM   15  C   UNL     1      25.514  44.931  51.159  1.00  0.00     0.160 C 
BRANCH  15  16
HETATM   16  C   UNL     1      25.434  46.274  50.475  1.00  0.00    -0.040 A 
HETATM   17  C   UNL     1      24.241  46.735  49.898  1.00  0.00     0.026 A 
HETATM   18  C   UNL     1      24.191  47.973  49.240  1.00  0.00     0.032 A 
HETATM   19  C   UNL     1      25.339  48.763  49.156  1.00  0.00     0.017 A 
HETATM   20  C   UNL     1      26.535  48.307  49.709  1.00  0.00     0.002 A 
HETATM   21  C   UNL     1      26.586  47.069  50.357  1.00  0.00     0.009 A 
BRANCH  18  22
HETATM   22  C   UNL     1      22.885  48.411  48.688  1.00  0.00     0.249 C 
HETATM   23  N   UNL     1      21.771  48.190  49.443  1.00  0.00    -0.366 N 
HETATM   24  H   UNL     1      21.803  47.940  50.422  1.00  0.00     0.159 HD
HETATM   25  H   UNL     1      20.902  48.584  49.099  1.00  0.00     0.159 HD
HETATM   26  O   UNL     1      22.831  48.970  47.600  1.00  0.00    -0.268 OA
ENDBRANCH  18  22
ENDBRANCH  15  16
ENDBRANCH   1  15
TORSDOF 4
ENDMDL
MODEL 4
REMARK VINA RESULT:      -8.7      2.724      4.048
REMARK  4 active torsions:
REMARK  status: ('A' for Active; 'I' for Inactive)
REMARK    1  A    between atoms: C_3  and  N_4 
REMARK    2  A    between atoms: N_4  and  C_5 
REMARK    3  A    between atoms: C_5  and  C_6 
REMARK    4  A    between atoms: C_8  and  C_9 
REMARK       I    between atoms: C_9  and  N_10 
ROOT
HETATM    1  N   UNL     1      27.632  44.813  53.181  1.00  0.00    -0.372 N 
HETATM    2  H   UNL     1      27.465  44.076  52.497  1.00  0.00     0.161 HD
ENDROOT
BRANCH   1   3
HETATM    3  C   UNL     1      28.593  44.503  54.120  1.00  0.00     0.107 A 
HETATM    4  C   UNL     1      29.504  43.449  53.916  1.00  0.00    -0.017 A 
HETATM    5  C   UNL     1      29.486  42.570  52.694  1.00  0.00     0.052 C 
HETATM    6  C   UNL     1      30.491  43.202  54.881  1.00  0.00     0.024 A 
HETATM    7  C   UNL     1      30.577  43.995  56.026  1.00  0.00    -0.009 A 
HETATM    8  C   UNL     1      29.644  45.036  56.188  1.00  0.00     0.043 A 
HETATM    9  C   UNL     1      31.555  43.793  57.011  1.00  0.00     0.014 A 
HETATM   10  N   UNL     1      28.717  45.237  55.236  1.00  0.00    -0.342 N 
HETATM   11  C   UNL     1      29.687  45.850  57.327  1.00  0.00     0.030 A 
HETATM   12  H   UNL     1      28.038  45.970  55.391  1.00  0.00     0.167 HD
HETATM   13  C   UNL     1      30.664  45.636  58.300  1.00  0.00     0.002 A 
HETATM   14  C   UNL     1      31.597  44.613  58.140  1.00  0.00     0.001 A 
ENDBRANCH   1   3
BRANCH   1  15
HETATM   15  C   UNL     1      26.502  45.712  53.365  1.00  0.00     0.160 C 
BRANCH  15  16
HETATM   16  C   UNL     1      25.665  45.876  52.121  1.00  0.00    -0.040 A 
HETATM   17  C   UNL     1      24.798  44.864  51.680  1.00  0.00     0.026 A 
HETATM   18  C   UNL     1      24.048  45.020  50.504  1.00  0.00     0.032 A 
HETATM   19  C   UNL     1      24.159  46.196  49.759  1.00  0.00     0.017 A 
HETATM   20  C   UNL     1      25.031  47.200  50.178  1.00  0.00     0.002 A 
HETATM   21  C   UNL     1      25.785  47.040  51.344  1.00  0.00     0.009 A 
BRANCH  18  22
HETATM   22  C   UNL     1      23.125  43.923  50.121  1.00  0.00     0.249 C 
HETATM   23  N   UNL     1      22.403  44.073  48.974  1.00  0.00    -0.366 N 
HETATM   24  H   UNL     1      22.606  44.776  48.277  1.00  0.00     0.159 HD
HETATM   25  H   UNL     1      21.854  43.275  48.673  1.00  0.00     0.159 HD
HETATM   26  O   UNL     1      23.045  42.915  50.812  1.00  0.00    -0.268 OA
ENDBRANCH  18  22
ENDBRANCH  15  16
ENDBRANCH   1  15
TORSDOF 4
ENDMDL
MODEL 5
REMARK VINA RESULT:      -8.6      5.114      8.240
REMARK  4 active torsions:
REMARK  status: ('A' for Active; 'I' for Inactive)
REMARK    1  A    between atoms: C_3  and  N_4 
REMARK    2  A    between atoms: N_4  and  C_5 
REMARK    3  A    between atoms: C_5  and  C_6 
REMARK    4  A    between atoms: C_8  and  C_9 
REMARK       I    between atoms: C_9  and  N_10 
ROOT
HETATM    1  N   UNL     1      28.711  41.719  52.944  1.00  0.00    -0.372 N 
HETATM    2  H   UNL     1      28.202  41.269  53.704  1.00  0.00     0.161 HD
ENDROOT
BRANCH   1   3
HETATM    3  C   UNL     1      28.375  41.259  51.690  1.00  0.00     0.107 A 
HETATM    4  C   UNL     1      27.549  42.010  50.830  1.00  0.00    -0.017 A 
HETATM    5  C   UNL     1      26.952  43.338  51.216  1.00  0.00     0.052 C 
HETATM    6  C   UNL     1      27.271  41.520  49.546  1.00  0.00     0.024 A 
HETATM    7  C   UNL     1      27.813  40.307  49.119  1.00  0.00    -0.009 A 
HETATM    8  C   UNL     1      28.631  39.590  50.013  1.00  0.00     0.043 A 
HETATM    9  C   UNL     1      27.573  39.783  47.840  1.00  0.00     0.014 A 
HETATM   10  N   UNL     1      28.871  40.100  51.232  1.00  0.00    -0.342 N 
HETATM   11  C   UNL     1      29.186  38.362  49.629  1.00  0.00     0.030 A 
HETATM   12  H   UNL     1      29.435  39.551  51.867  1.00  0.00     0.167 HD
HETATM   13  C   UNL     1      28.937  37.853  48.354  1.00  0.00     0.002 A 
HETATM   14  C   UNL     1      28.136  38.563  47.462  1.00  0.00     0.001 A 
ENDBRANCH   1   3
BRANCH   1  15
HETATM   15  C   UNL     1      29.996  42.273  53.346  1.00  0.00     0.160 C 
BRANCH  15  16
HETATM   16  C   UNL     1      29.874  43.384  54.360  1.00  0.00    -0.040 A 
HETATM   17  C   UNL     1      30.638  43.391  55.537  1.00  0.00     0.026 A 
HETATM   18  C   UNL     1      30.492  44.416  56.485  1.00  0.00     0.032 A 
HETATM   19  C   UNL     1      29.575  45.445  56.260  1.00  0.00     0.017 A 
HETATM   20  C   UNL     1      28.796  45.438  55.103  1.00  0.00     0.002 A 
HETATM   21  C   UNL     1      28.937  44.412  54.164  1.00  0.00     0.009 A 
BRANCH  18  22
HETATM   22  C   UNL     1      31.361  44.377  57.686  1.00  0.00     0.249 C 
HETATM   23  N   UNL     1      31.129  45.295  58.667  1.00  0.00    -0.366 N 
HETATM   24  H   UNL     1      30.289  45.854  58.718  1.00  0.00     0.159 HD
HETATM   25  H   UNL     1      31.664  45.193  59.523  1.00  0.00     0.159 HD
HETATM   26  O   UNL     1      32.238  43.527  57.786  1.00  0.00    -0.268 OA
ENDBRANCH  18  22
ENDBRANCH  15  16
ENDBRANCH   1  15
TORSDOF 4
ENDMDL
MODEL 6
REMARK VINA RESULT:      -8.4      5.123      6.894
REMARK  4 active torsions:
REMARK  status: ('A' for Active; 'I' for Inactive)
REMARK    1  A    between atoms: C_3  and  N_4 
REMARK    2  A    between atoms: N_4  and  C_5 
REMARK    3  A    between atoms: C_5  and  C_6 
REMARK    4  A    between atoms: C_8  and  C_9 
REMARK       I    between atoms: C_9  and  N_10 
ROOT
HETATM    1  N   UNL     1      26.978  41.845  51.959  1.00  0.00    -0.372 N 
HETATM    2  H   UNL     1      26.167  41.328  52.298  1.00  0.00     0.161 HD
ENDROOT
BRANCH   1   3
HETATM    3  C   UNL     1      27.459  42.784  52.846  1.00  0.00     0.107 A 
HETATM    4  C   UNL     1      26.706  43.925  53.186  1.00  0.00    -0.017 A 
HETATM    5  C   UNL     1      25.353  44.224  52.595  1.00  0.00     0.052 C 
HETATM    6  C   UNL     1      27.220  44.829  54.127  1.00  0.00     0.024 A 
HETATM    7  C   UNL     1      28.457  44.598  54.728  1.00  0.00    -0.009 A 
HETATM    8  C   UNL     1      29.175  43.445  54.357  1.00  0.00     0.043 A 
HETATM    9  C   UNL     1      29.005  45.468  55.684  1.00  0.00     0.014 A 
HETATM   10  N   UNL     1      28.643  42.607  53.452  1.00  0.00    -0.342 N 
HETATM   11  C   UNL     1      30.427  43.181  54.927  1.00  0.00     0.030 A 
HETATM   12  H   UNL     1      29.191  41.804  53.178  1.00  0.00     0.167 HD
HETATM   13  C   UNL     1      30.960  44.055  55.875  1.00  0.00     0.002 A 
HETATM   14  C   UNL     1      30.249  45.193  56.254  1.00  0.00     0.001 A 
ENDBRANCH   1   3
BRANCH   1  15
HETATM   15  C   UNL     1      27.078  41.896  50.509  1.00  0.00     0.160 C 
BRANCH  15  16
HETATM   16  C   UNL     1      27.395  40.558  49.887  1.00  0.00    -0.040 A 
HETATM   17  C   UNL     1      28.356  39.699  50.442  1.00  0.00     0.026 A 
HETATM   18  C   UNL     1      28.662  38.471  49.836  1.00  0.00     0.032 A 
HETATM   19  C   UNL     1      28.003  38.092  48.664  1.00  0.00     0.017 A 
HETATM   20  C   UNL     1      27.060  38.946  48.092  1.00  0.00     0.002 A 
HETATM   21  C   UNL     1      26.764  40.173  48.693  1.00  0.00     0.009 A 
BRANCH  18  22
HETATM   22  C   UNL     1      29.660  37.599  50.502  1.00  0.00     0.249 C 
HETATM   23  N   UNL     1      29.199  36.513  51.186  1.00  0.00    -0.366 N 
HETATM   24  H   UNL     1      28.257  36.158  51.095  1.00  0.00     0.159 HD
HETATM   25  H   UNL     1      29.896  35.873  51.550  1.00  0.00     0.159 HD
HETATM   26  O   UNL     1      30.856  37.849  50.411  1.00  0.00    -0.268 OA
ENDBRANCH  18  22
ENDBRANCH  15  16
ENDBRANCH   1  15
TORSDOF 4
ENDMDL
MODEL 7
REMARK VINA RESULT:      -8.3      4.134      5.386
REMARK  4 active torsions:
REMARK  status: ('A' for Active; 'I' for Inactive)
REMARK    1  A    between atoms: C_3  and  N_4 
REMARK    2  A    between atoms: N_4  and  C_5 
REMARK    3  A    between atoms: C_5  and  C_6 
REMARK    4  A    between atoms: C_8  and  C_9 
REMARK       I    between atoms: C_9  and  N_10 
ROOT
HETATM    1  N   UNL     1      27.328  44.501  52.988  1.00  0.00    -0.372 N 
HETATM    2  H   UNL     1      26.409  44.942  53.007  1.00  0.00     0.161 HD
ENDROOT
BRANCH   1   3
HETATM    3  C   UNL     1      28.120  44.803  54.075  1.00  0.00     0.107 A 
HETATM    4  C   UNL     1      27.926  45.983  54.819  1.00  0.00    -0.017 A 
HETATM    5  C   UNL     1      26.877  47.008  54.478  1.00  0.00     0.052 C 
HETATM    6  C   UNL     1      28.729  46.223  55.943  1.00  0.00     0.024 A 
HETATM    7  C   UNL     1      29.704  45.301  56.327  1.00  0.00    -0.009 A 
HETATM    8  C   UNL     1      29.864  44.137  55.552  1.00  0.00     0.043 A 
HETATM    9  C   UNL     1      30.522  45.494  57.451  1.00  0.00     0.014 A 
HETATM   10  N   UNL     1      29.070  43.949  54.485  1.00  0.00    -0.342 N 
HETATM   11  C   UNL     1      30.838  43.191  55.896  1.00  0.00     0.030 A 
HETATM   12  H   UNL     1      29.226  43.121  53.926  1.00  0.00     0.167 HD
HETATM   13  C   UNL     1      31.645  43.396  57.015  1.00  0.00     0.002 A 
HETATM   14  C   UNL     1      31.485  44.543  57.791  1.00  0.00     0.001 A 
ENDBRANCH   1   3
BRANCH   1  15
HETATM   15  C   UNL     1      27.789  44.160  51.651  1.00  0.00     0.160 C 
BRANCH  15  16
HETATM   16  C   UNL     1      27.236  42.849  51.148  1.00  0.00    -0.040 A 
HETATM   17  C   UNL     1      28.056  41.722  50.978  1.00  0.00     0.026 A 
HETATM   18  C   UNL     1      27.532  40.519  50.481  1.00  0.00     0.032 A 
HETATM   19  C   UNL     1      26.178  40.434  50.149  1.00  0.00     0.017 A 
HETATM   20  C   UNL     1      25.359  41.553  50.296  1.00  0.00     0.002 A 
HETATM   21  C   UNL     1      25.883  42.753  50.783  1.00  0.00     0.009 A 
BRANCH  18  22
HETATM   22  C   UNL     1      28.452  39.360  50.365  1.00  0.00     0.249 C 
HETATM   23  N   UNL     1      29.373  39.180  51.354  1.00  0.00    -0.366 N 
HETATM   24  H   UNL     1      29.334  39.657  52.244  1.00  0.00     0.159 HD
HETATM   25  H   UNL     1      29.926  38.331  51.313  1.00  0.00     0.159 HD
HETATM   26  O   UNL     1      28.356  38.588  49.419  1.00  0.00    -0.268 OA
ENDBRANCH  18  22
ENDBRANCH  15  16
ENDBRANCH   1  15
TORSDOF 4
ENDMDL
MODEL 8
REMARK VINA RESULT:      -8.3      2.953      8.147
REMARK  4 active torsions:
REMARK  status: ('A' for Active; 'I' for Inactive)
REMARK    1  A    between atoms: C_3  and  N_4 
REMARK    2  A    between atoms: N_4  and  C_5 
REMARK    3  A    between atoms: C_5  and  C_6 
REMARK    4  A    between atoms: C_8  and  C_9 
REMARK       I    between atoms: C_9  and  N_10 
ROOT
HETATM    1  N   UNL     1      26.062  46.705  50.690  1.00  0.00    -0.372 N 
HETATM    2  H   UNL     1      27.079  46.727  50.612  1.00  0.00     0.161 HD
ENDROOT
BRANCH   1   3
HETATM    3  C   UNL     1      25.420  47.692  49.975  1.00  0.00     0.107 A 
HETATM    4  C   UNL     1      26.142  48.681  49.278  1.00  0.00    -0.017 A 
HETATM    5  C   UNL     1      27.646  48.759  49.283  1.00  0.00     0.052 C 
HETATM    6  C   UNL     1      25.444  49.638  48.529  1.00  0.00     0.024 A 
HETATM    7  C   UNL     1      24.050  49.608  48.464  1.00  0.00    -0.009 A 
HETATM    8  C   UNL     1      23.371  48.602  49.177  1.00  0.00     0.043 A 
HETATM    9  C   UNL     1      23.310  50.537  47.716  1.00  0.00     0.014 A 
HETATM   10  N   UNL     1      24.082  47.706  49.880  1.00  0.00    -0.342 N 
HETATM   11  C   UNL     1      21.972  48.542  49.149  1.00  0.00     0.030 A 
HETATM   12  H   UNL     1      23.570  47.013  50.410  1.00  0.00     0.167 HD
HETATM   13  C   UNL     1      21.249  49.473  48.402  1.00  0.00     0.002 A 
HETATM   14  C   UNL     1      21.916  50.465  47.687  1.00  0.00     0.001 A 
ENDBRANCH   1   3
BRANCH   1  15
HETATM   15  C   UNL     1      25.580  46.066  51.905  1.00  0.00     0.160 C 
BRANCH  15  16
HETATM   16  C   UNL     1      26.545  46.182  53.060  1.00  0.00    -0.040 A 
HETATM   17  C   UNL     1      27.380  45.116  53.430  1.00  0.00     0.026 A 
HETATM   18  C   UNL     1      28.250  45.228  54.525  1.00  0.00     0.032 A 
HETATM   19  C   UNL     1      28.292  46.415  55.261  1.00  0.00     0.017 A 
HETATM   20  C   UNL     1      27.452  47.474  54.915  1.00  0.00     0.002 A 
HETATM   21  C   UNL     1      26.580  47.357  53.829  1.00  0.00     0.009 A 
BRANCH  18  22
HETATM   22  C   UNL     1      29.130  44.074  54.832  1.00  0.00     0.249 C 
HETATM   23  N   UNL     1      28.751  42.848  54.370  1.00  0.00    -0.366 N 
HETATM   24  H   UNL     1      28.032  42.714  53.672  1.00  0.00     0.159 HD
HETATM   25  H   UNL     1      29.410  42.088  54.500  1.00  0.00     0.159 HD
HETATM   26  O   UNL     1      30.168  44.238  55.459  1.00  0.00    -0.268 OA
ENDBRANCH  18  22
ENDBRANCH  15  16
ENDBRANCH   1  15
TORSDOF 4
ENDMDL
MODEL 9
REMARK VINA RESULT:      -8.2      6.159      9.330
REMARK  4 active torsions:
REMARK  status: ('A' for Active; 'I' for Inactive)
REMARK    1  A    between atoms: C_3  and  N_4 
REMARK    2  A    between atoms: N_4  and  C_5 
REMARK    3  A    between atoms: C_5  and  C_6 
REMARK    4  A    between atoms: C_8  and  C_9 
REMARK       I    between atoms: C_9  and  N_10 
ROOT
HETATM    1  N   UNL     1      20.478  48.549  49.524  1.00  0.00    -0.372 N 
HETATM    2  H   UNL     1      20.325  47.544  49.596  1.00  0.00     0.161 HD
ENDROOT
BRANCH   1   3
HETATM    3  C   UNL     1      21.741  48.898  49.096  1.00  0.00     0.107 A 
HETATM    4  C   UNL     1      21.937  49.907  48.133  1.00  0.00    -0.017 A 
HETATM    5  C   UNL     1      20.803  50.653  47.481  1.00  0.00     0.052 C 
HETATM    6  C   UNL     1      23.244  50.255  47.763  1.00  0.00     0.024 A 
HETATM    7  C   UNL     1      24.339  49.618  48.348  1.00  0.00    -0.009 A 
HETATM    8  C   UNL     1      24.096  48.615  49.304  1.00  0.00     0.043 A 
HETATM    9  C   UNL     1      25.664  49.943  48.018  1.00  0.00     0.014 A 
HETATM   10  N   UNL     1      22.827  48.316  49.628  1.00  0.00    -0.342 N 
HETATM   11  C   UNL     1      25.166  47.942  49.907  1.00  0.00     0.030 A 
HETATM   12  H   UNL     1      22.677  47.570  50.294  1.00  0.00     0.167 HD
HETATM   13  C   UNL     1      26.478  48.274  49.569  1.00  0.00     0.002 A 
HETATM   14  C   UNL     1      26.726  49.274  48.629  1.00  0.00     0.001 A 
ENDBRANCH   1   3
BRANCH   1  15
HETATM   15  C   UNL     1      19.609  49.339  50.382  1.00  0.00     0.160 C 
BRANCH  15  16
HETATM   16  C   UNL     1      18.316  49.738  49.713  1.00  0.00    -0.040 A 
HETATM   17  C   UNL     1      17.609  48.848  48.890  1.00  0.00     0.026 A 
HETATM   18  C   UNL     1      16.424  49.244  48.251  1.00  0.00     0.032 A 
HETATM   19  C   UNL     1      15.935  50.539  48.433  1.00  0.00     0.017 A 
HETATM   20  C   UNL     1      16.640  51.438  49.234  1.00  0.00     0.002 A 
HETATM   21  C   UNL     1      17.824  51.045  49.862  1.00  0.00     0.009 A 
BRANCH  18  22
HETATM   22  C   UNL     1      15.713  48.236  47.427  1.00  0.00     0.249 C 
HETATM   23  N   UNL     1      16.333  47.041  47.211  1.00  0.00    -0.366 N 
HETATM   24  H   UNL     1      17.138  46.729  47.736  1.00  0.00     0.159 HD
HETATM   25  H   UNL     1      15.794  46.327  46.733  1.00  0.00     0.159 HD
HETATM   26  O   UNL     1      14.597  48.477  46.984  1.00  0.00    -0.268 OA
ENDBRANCH  18  22
ENDBRANCH  15  16
ENDBRANCH   1  15
TORSDOF 4
ENDMDL
MODEL 10
REMARK VINA RESULT:      -8.0      2.626      3.503
REMARK  4 active torsions:
REMARK  status: ('A' for Active; 'I' for Inactive)
REMARK    1  A    between atoms: C_3  and  N_4 
REMARK    2  A    between atoms: N_4  and  C_5 
REMARK    3  A    between atoms: C_5  and  C_6 
REMARK    4  A    between atoms: C_8  and  C_9 
REMARK       I    between atoms: C_9  and  N_10 
ROOT
HETATM    1  N   UNL     1      25.781  46.595  53.292  1.00  0.00    -0.372 N 
HETATM    2  H   UNL     1      24.946  46.753  53.855  1.00  0.00     0.161 HD
ENDROOT
BRANCH   1   3
HETATM    3  C   UNL     1      26.901  46.266  54.025  1.00  0.00     0.107 A 
HETATM    4  C   UNL     1      27.348  47.078  55.086  1.00  0.00    -0.017 A 
HETATM    5  C   UNL     1      26.671  48.364  55.479  1.00  0.00     0.052 C 
HETATM    6  C   UNL     1      28.467  46.678  55.830  1.00  0.00     0.024 A 
HETATM    7  C   UNL     1      29.126  45.484  55.531  1.00  0.00    -0.009 A 
HETATM    8  C   UNL     1      28.645  44.706  54.462  1.00  0.00     0.043 A 
HETATM    9  C   UNL     1      30.241  45.038  56.257  1.00  0.00     0.014 A 
HETATM   10  N   UNL     1      27.569  45.129  53.778  1.00  0.00    -0.342 N 
HETATM   11  C   UNL     1      29.283  43.507  54.121  1.00  0.00     0.030 A 
HETATM   12  H   UNL     1      27.262  44.569  52.994  1.00  0.00     0.167 HD
HETATM   13  C   UNL     1      30.392  43.076  54.850  1.00  0.00     0.002 A 
HETATM   14  C   UNL     1      30.867  43.838  55.916  1.00  0.00     0.001 A 
ENDBRANCH   1   3
BRANCH   1  15
HETATM   15  C   UNL     1      25.760  47.273  52.005  1.00  0.00     0.160 C 
BRANCH  15  16
HETATM   16  C   UNL     1      24.876  46.592  50.989  1.00  0.00    -0.040 A 
HETATM   17  C   UNL     1      24.743  45.196  50.949  1.00  0.00     0.026 A 
HETATM   18  C   UNL     1      23.941  44.575  49.979  1.00  0.00     0.032 A 
HETATM   19  C   UNL     1      23.261  45.352  49.038  1.00  0.00     0.017 A 
HETATM   20  C   UNL     1      23.401  46.740  49.056  1.00  0.00     0.002 A 
HETATM   21  C   UNL     1      24.208  47.355  50.018  1.00  0.00     0.009 A 
BRANCH  18  22
HETATM   22  C   UNL     1      23.819  43.097  50.024  1.00  0.00     0.249 C 
HETATM   23  N   UNL     1      24.300  42.454  51.126  1.00  0.00    -0.366 N 
HETATM   24  H   UNL     1      24.542  42.928  51.985  1.00  0.00     0.159 HD
HETATM   25  H   UNL     1      24.120  41.458  51.187  1.00  0.00     0.159 HD
HETATM   26  O   UNL     1      23.280  42.494  49.104  1.00  0.00    -0.268 OA
ENDBRANCH  18  22
ENDBRANCH  15  16
ENDBRANCH   1  15
TORSDOF 4
ENDMDL
