MODEL 1
REMARK VINA RESULT:      -8.9      0.000      0.000
REMARK  6 active torsions:
REMARK  status: ('A' for Active; 'I' for Inactive)
REMARK    1  A    between atoms: C_2  and  C_3 
REMARK    2  A    between atoms: C_3  and  C_4 
REMARK    3  A    between atoms: C_7  and  C_8 
REMARK    4  A    between atoms: C_14  and  C_15 
REMARK    5  A    between atoms: C_18  and  N_19 
REMARK       I    between atoms: N_19  and  C_20 
REMARK    6  A    between atoms: C_28  and  N_29 
ROOT
HETATM    1  C   UNL     1      26.137  45.126  51.118  1.00  0.00     0.099 A 
HETATM    2  N   UNL     1      26.325  46.428  50.831  1.00  0.00    -0.172 NA
HETATM    3  N   UNL     1      25.414  46.700  49.876  1.00  0.00    -0.256 N 
HETATM    4  H   UNL     1      25.360  47.641  49.504  1.00  0.00     0.191 HD
HETATM    5  C   UNL     1      24.684  45.614  49.520  1.00  0.00     0.175 A 
HETATM    6  C   UNL     1      25.110  44.574  50.302  1.00  0.00     0.040 A 
HETATM    7  C   UNL     1      24.504  43.220  50.133  1.00  0.00     0.106 A 
HETATM    8  C   UNL     1      23.445  43.240  49.031  1.00  0.00     0.081 A 
HETATM    9  C   UNL     1      22.746  42.021  48.794  1.00  0.00     0.100 C 
HETATM   10  N   UNL     1      22.174  41.032  48.591  1.00  0.00    -0.191 NA
HETATM   11  C   UNL     1      23.119  44.367  48.337  1.00  0.00     0.140 A 
HETATM   12  O   UNL     1      23.756  45.599  48.572  1.00  0.00    -0.279 OA
ENDROOT
BRANCH   7  13
HETATM   13  C   UNL     1      25.662  42.267  49.866  1.00  0.00    -0.044 A 
HETATM   14  C   UNL     1      25.976  41.287  50.821  1.00  0.00     0.010 A 
HETATM   15  C   UNL     1      27.109  40.478  50.683  1.00  0.00     0.030 A 
HETATM   16  C   UNL     1      27.941  40.612  49.575  1.00  0.00     0.034 A 
HETATM   17  C   UNL     1      27.594  41.533  48.580  1.00  0.00     0.030 A 
HETATM   18  C   UNL     1      26.466  42.351  48.720  1.00  0.00     0.010 A 
BRANCH  16  19
HETATM   19  N   UNL     1      29.141  39.893  49.401  1.00  0.00    -0.328 N 
HETATM   20  C   UNL     1      29.284  38.529  49.212  1.00  0.00     0.218 C 
HETATM   21  C   UNL     1      30.733  38.117  49.144  1.00  0.00     0.117 C 
HETATM   22  O   UNL     1      28.391  37.697  49.096  1.00  0.00    -0.274 OA
HETATM   23  H   UNL     1      29.994  40.432  49.478  1.00  0.00     0.169 HD
ENDBRANCH  16  19
ENDBRANCH   7  13
BRANCH  11  24
HETATM   24  N   UNL     1      22.156  44.449  47.357  1.00  0.00    -0.282 NA
HETATM   25  H   UNL     1      21.205  44.240  47.651  1.00  0.00     0.126 HD
HETATM   26  H   UNL     1      22.429  43.965  46.505  1.00  0.00     0.126 HD
ENDBRANCH  11  24
BRANCH   1  27
HETATM   27  C   UNL     1      26.976  44.429  52.086  1.00  0.00    -0.005 A 
HETATM   28  C   UNL     1      28.237  43.947  51.724  1.00  0.00     0.014 A 
HETATM   29  C   UNL     1      29.103  43.429  52.693  1.00  0.00     0.008 A 
HETATM   30  C   UNL     1      28.724  43.377  54.040  1.00  0.00    -0.058 A 
HETATM   31  C   UNL     1      27.426  43.797  54.380  1.00  0.00     0.008 A 
HETATM   32  C   UNL     1      26.562  44.320  53.415  1.00  0.00     0.014 A 
BRANCH  30  33
HETATM   33  C   UNL     1      29.628  42.895  55.158  1.00  0.00     0.042 C 
BRANCH  33  34
HETATM   34  C   UNL     1      30.754  43.838  55.636  1.00  0.00    -0.019 C 
HETATM   35  C   UNL     1      31.503  43.259  56.840  1.00  0.00     0.010 C 
HETATM   36  C   UNL     1      30.171  45.203  56.022  1.00  0.00     0.010 C 
ENDBRANCH  33  34
ENDBRANCH  30  33
ENDBRANCH   1  27
TORSDOF 6
ENDMDL
MODEL 2
REMARK VINA RESULT:      -8.5      3.095      7.573
REMARK  6 active torsions:
REMARK  status: ('A' for Active; 'I' for Inactive)
REMARK    1  A    between atoms: C_2  and  C_3 
REMARK    2  A    between atoms: C_3  and  C_4 
REMARK    3  A    between atoms: C_7  and  C_8 
REMARK    4  A    between atoms: C_14  and  C_15 
REMARK    5  A    between atoms: C_18  and  N_19 
REMARK       I    between atoms: N_19  and  C_20 
REMARK    6  A    between atoms: C_28  and  N_29 
ROOT
HETATM    1  C   UNL     1      26.172  46.468  51.992  1.00  0.00     0.099 A 
HETATM    2  N   UNL     1      26.192  46.984  53.235  1.00  0.00    -0.172 NA
HETATM    3  N   UNL     1      26.622  45.973  54.015  1.00  0.00    -0.256 N 
HETATM    4  H   UNL     1      26.727  46.134  55.011  1.00  0.00     0.191 HD
HETATM    5  C   UNL     1      26.837  44.828  53.322  1.00  0.00     0.175 A 
HETATM    6  C   UNL     1      26.567  45.101  52.008  1.00  0.00     0.040 A 
HETATM    7  C   UNL     1      26.694  44.023  50.983  1.00  0.00     0.106 A 
HETATM    8  C   UNL     1      27.127  42.711  51.637  1.00  0.00     0.081 A 
HETATM    9  C   UNL     1      27.337  41.602  50.766  1.00  0.00     0.100 C 
HETATM   10  N   UNL     1      27.507  40.692  50.066  1.00  0.00    -0.191 NA
HETATM   11  C   UNL     1      27.370  42.592  52.972  1.00  0.00     0.140 A 
HETATM   12  O   UNL     1      27.216  43.675  53.858  1.00  0.00    -0.279 OA
ENDROOT
BRANCH   7  13
HETATM   13  C   UNL     1      25.349  43.950  50.274  1.00  0.00    -0.044 A 
HETATM   14  C   UNL     1      25.274  44.283  48.912  1.00  0.00     0.010 A 
HETATM   15  C   UNL     1      24.044  44.359  48.251  1.00  0.00     0.030 A 
HETATM   16  C   UNL     1      22.860  44.081  48.930  1.00  0.00     0.034 A 
HETATM   17  C   UNL     1      22.930  43.675  50.267  1.00  0.00     0.030 A 
HETATM   18  C   UNL     1      24.160  43.606  50.934  1.00  0.00     0.010 A 
BRANCH  16  19
HETATM   19  N   UNL     1      21.577  44.213  48.360  1.00  0.00    -0.328 N 
HETATM   20  C   UNL     1      20.803  45.358  48.287  1.00  0.00     0.218 C 
HETATM   21  C   UNL     1      19.452  45.088  47.674  1.00  0.00     0.117 C 
HETATM   22  O   UNL     1      21.113  46.489  48.645  1.00  0.00    -0.274 OA
HETATM   23  H   UNL     1      21.158  43.359  48.015  1.00  0.00     0.169 HD
ENDBRANCH  16  19
ENDBRANCH   7  13
BRANCH  11  24
HETATM   24  N   UNL     1      27.789  41.446  53.608  1.00  0.00    -0.282 NA
HETATM   25  H   UNL     1      28.073  41.556  54.579  1.00  0.00     0.126 HD
HETATM   26  H   UNL     1      28.455  40.916  53.051  1.00  0.00     0.126 HD
ENDBRANCH  11  24
BRANCH   1  27
HETATM   27  C   UNL     1      25.709  47.247  50.849  1.00  0.00    -0.005 A 
HETATM   28  C   UNL     1      24.349  47.308  50.528  1.00  0.00     0.014 A 
HETATM   29  C   UNL     1      23.894  48.186  49.538  1.00  0.00     0.008 A 
HETATM   30  C   UNL     1      24.787  49.013  48.845  1.00  0.00    -0.058 A 
HETATM   31  C   UNL     1      26.159  48.888  49.126  1.00  0.00     0.008 A 
HETATM   32  C   UNL     1      26.616  48.017  50.119  1.00  0.00     0.014 A 
BRANCH  30  33
HETATM   33  C   UNL     1      24.366  50.036  47.809  1.00  0.00     0.042 C 
BRANCH  33  34
HETATM   34  C   UNL     1      23.099  50.873  48.092  1.00  0.00    -0.019 C 
HETATM   35  C   UNL     1      22.961  51.202  49.582  1.00  0.00     0.010 C 
HETATM   36  C   UNL     1      21.849  50.111  47.633  1.00  0.00     0.010 C 
ENDBRANCH  33  34
ENDBRANCH  30  33
ENDBRANCH   1  27
TORSDOF 6
ENDMDL
MODEL 3
REMARK VINA RESULT:      -8.4      2.800      8.029
REMARK  6 active torsions:
REMARK  status: ('A' for Active; 'I' for Inactive)
REMARK    1  A    between atoms: C_2  and  C_3 
REMARK    2  A    between atoms: C_3  and  C_4 
REMARK    3  A    between atoms: C_7  and  C_8 
REMARK    4  A    between atoms: C_14  and  C_15 
REMARK    5  A    between atoms: C_18  and  N_19 
REMARK       I    between atoms: N_19  and  C_20 
REMARK    6  A    between atoms: C_28  and  N_29 
ROOT
HETATM    1  C   UNL     1      26.203  41.979  50.591  1.00  0.00     0.099 A 
HETATM    2  N   UNL     1      26.829  40.913  50.057  1.00  0.00    -0.172 NA
HETATM    3  N   UNL     1      27.911  40.728  50.838  1.00  0.00    -0.256 N 
HETATM    4  H   UNL     1      28.539  39.960  50.629  1.00  0.00     0.191 HD
HETATM    5  C   UNL     1      28.016  41.656  51.821  1.00  0.00     0.175 A 
HETATM    6  C   UNL     1      26.930  42.482  51.706  1.00  0.00     0.040 A 
HETATM    7  C   UNL     1      26.768  43.631  52.646  1.00  0.00     0.106 A 
HETATM    8  C   UNL     1      27.934  43.685  53.633  1.00  0.00     0.081 A 
HETATM    9  C   UNL     1      27.885  44.707  54.625  1.00  0.00     0.100 C 
HETATM   10  N   UNL     1      27.856  45.538  55.434  1.00  0.00    -0.191 NA
HETATM   11  C   UNL     1      28.951  42.777  53.630  1.00  0.00     0.140 A 
HETATM   12  O   UNL     1      29.012  41.728  52.694  1.00  0.00    -0.279 OA
ENDROOT
BRANCH   7  13
HETATM   13  C   UNL     1      26.630  44.874  51.778  1.00  0.00    -0.044 A 
HETATM   14  C   UNL     1      25.710  45.868  52.146  1.00  0.00     0.010 A 
HETATM   15  C   UNL     1      25.454  46.963  51.314  1.00  0.00     0.030 A 
HETATM   16  C   UNL     1      26.127  47.101  50.103  1.00  0.00     0.034 A 
HETATM   17  C   UNL     1      27.101  46.155  49.762  1.00  0.00     0.030 A 
HETATM   18  C   UNL     1      27.354  45.055  50.590  1.00  0.00     0.010 A 
BRANCH  16  19
HETATM   19  N   UNL     1      25.869  48.128  49.172  1.00  0.00    -0.328 N 
HETATM   20  C   UNL     1      26.712  49.162  48.805  1.00  0.00     0.218 C 
HETATM   21  C   UNL     1      26.053  50.113  47.838  1.00  0.00     0.117 C 
HETATM   22  O   UNL     1      27.868  49.344  49.171  1.00  0.00    -0.274 OA
HETATM   23  H   UNL     1      24.939  48.136  48.771  1.00  0.00     0.169 HD
ENDBRANCH  16  19
ENDBRANCH   7  13
BRANCH  11  24
HETATM   24  N   UNL     1      30.008  42.761  54.511  1.00  0.00    -0.282 NA
HETATM   25  H   UNL     1      30.462  41.860  54.642  1.00  0.00     0.126 HD
HETATM   26  H   UNL     1      29.789  43.232  55.386  1.00  0.00     0.126 HD
ENDBRANCH  11  24
BRANCH   1  27
HETATM   27  C   UNL     1      24.996  42.535  49.993  1.00  0.00    -0.005 A 
HETATM   28  C   UNL     1      23.843  42.736  50.759  1.00  0.00     0.014 A 
HETATM   29  C   UNL     1      22.747  43.421  50.224  1.00  0.00     0.008 A 
HETATM   30  C   UNL     1      22.777  43.912  48.913  1.00  0.00    -0.058 A 
HETATM   31  C   UNL     1      23.912  43.640  48.130  1.00  0.00     0.008 A 
HETATM   32  C   UNL     1      25.011  42.962  48.663  1.00  0.00     0.014 A 
BRANCH  30  33
HETATM   33  C   UNL     1      21.660  44.721  48.284  1.00  0.00     0.042 C 
BRANCH  33  34
HETATM   34  C   UNL     1      22.030  46.055  47.598  1.00  0.00    -0.019 C 
HETATM   35  C   UNL     1      22.579  47.073  48.604  1.00  0.00     0.010 C 
HETATM   36  C   UNL     1      20.799  46.653  46.906  1.00  0.00     0.010 C 
ENDBRANCH  33  34
ENDBRANCH  30  33
ENDBRANCH   1  27
TORSDOF 6
ENDMDL
MODEL 4
REMARK VINA RESULT:      -8.2      2.343      3.633
REMARK  6 active torsions:
REMARK  status: ('A' for Active; 'I' for Inactive)
REMARK    1  A    between atoms: C_2  and  C_3 
REMARK    2  A    between atoms: C_3  and  C_4 
REMARK    3  A    between atoms: C_7  and  C_8 
REMARK    4  A    between atoms: C_14  and  C_15 
REMARK    5  A    between atoms: C_18  and  N_19 
REMARK       I    between atoms: N_19  and  C_20 
REMARK    6  A    between atoms: C_28  and  N_29 
ROOT
HETATM    1  C   UNL     1      24.751  47.163  49.865  1.00  0.00     0.099 A 
HETATM    2  N   UNL     1      25.332  48.296  49.427  1.00  0.00    -0.172 NA
HETATM    3  N   UNL     1      24.416  48.855  48.613  1.00  0.00    -0.256 N 
HETATM    4  H   UNL     1      24.631  49.738  48.166  1.00  0.00     0.191 HD
HETATM    5  C   UNL     1      23.294  48.102  48.487  1.00  0.00     0.175 A 
HETATM    6  C   UNL     1      23.462  47.002  49.285  1.00  0.00     0.040 A 
HETATM    7  C   UNL     1      22.394  45.960  49.349  1.00  0.00     0.106 A 
HETATM    8  C   UNL     1      21.225  46.335  48.439  1.00  0.00     0.081 A 
HETATM    9  C   UNL     1      20.106  45.451  48.438  1.00  0.00     0.100 C 
HETATM   10  N   UNL     1      19.193  44.736  48.427  1.00  0.00    -0.191 NA
HETATM   11  C   UNL     1      21.196  47.482  47.703  1.00  0.00     0.140 A 
HETATM   12  O   UNL     1      22.261  48.401  47.710  1.00  0.00    -0.279 OA
ENDROOT
BRANCH   7  13
HETATM   13  C   UNL     1      23.065  44.641  48.989  1.00  0.00    -0.044 A 
HETATM   14  C   UNL     1      23.247  43.671  49.987  1.00  0.00     0.010 A 
HETATM   15  C   UNL     1      23.974  42.502  49.736  1.00  0.00     0.030 A 
HETATM   16  C   UNL     1      24.516  42.265  48.476  1.00  0.00     0.034 A 
HETATM   17  C   UNL     1      24.274  43.190  47.454  1.00  0.00     0.030 A 
HETATM   18  C   UNL     1      23.555  44.365  47.704  1.00  0.00     0.010 A 
BRANCH  16  19
HETATM   19  N   UNL     1      25.326  41.153  48.165  1.00  0.00    -0.328 N 
HETATM   20  C   UNL     1      26.709  41.103  48.140  1.00  0.00     0.218 C 
HETATM   21  C   UNL     1      27.217  39.758  47.684  1.00  0.00     0.117 C 
HETATM   22  O   UNL     1      27.492  41.996  48.445  1.00  0.00    -0.274 OA
HETATM   23  H   UNL     1      24.836  40.317  47.876  1.00  0.00     0.169 HD
ENDBRANCH  16  19
ENDBRANCH   7  13
BRANCH  11  24
HETATM   24  N   UNL     1      20.159  47.882  46.891  1.00  0.00    -0.282 NA
HETATM   25  H   UNL     1      20.117  48.877  46.684  1.00  0.00     0.126 HD
HETATM   26  H   UNL     1      19.266  47.493  47.184  1.00  0.00     0.126 HD
ENDBRANCH  11  24
BRANCH   1  27
HETATM   27  C   UNL     1      25.453  46.236  50.744  1.00  0.00    -0.005 A 
HETATM   28  C   UNL     1      25.051  46.063  52.072  1.00  0.00     0.014 A 
HETATM   29  C   UNL     1      25.618  45.055  52.860  1.00  0.00     0.008 A 
HETATM   30  C   UNL     1      26.602  44.205  52.339  1.00  0.00    -0.058 A 
HETATM   31  C   UNL     1      27.050  44.436  51.026  1.00  0.00     0.008 A 
HETATM   32  C   UNL     1      26.481  45.438  50.236  1.00  0.00     0.014 A 
BRANCH  30  33
HETATM   33  C   UNL     1      27.217  43.049  53.104  1.00  0.00     0.042 C 
BRANCH  33  34
HETATM   34  C   UNL     1      28.537  43.306  53.864  1.00  0.00    -0.019 C 
HETATM   35  C   UNL     1      28.620  44.747  54.378  1.00  0.00     0.010 C 
HETATM   36  C   UNL     1      29.736  43.034  52.947  1.00  0.00     0.010 C 
ENDBRANCH  33  34
ENDBRANCH  30  33
ENDBRANCH   1  27
TORSDOF 6
ENDMDL
MODEL 5
REMARK VINA RESULT:      -8.2      1.920      2.746
REMARK  6 active torsions:
REMARK  status: ('A' for Active; 'I' for Inactive)
REMARK    1  A    between atoms: C_2  and  C_3 
REMARK    2  A    between atoms: C_3  and  C_4 
REMARK    3  A    between atoms: C_7  and  C_8 
REMARK    4  A    between atoms: C_14  and  C_15 
REMARK    5  A    between atoms: C_18  and  N_19 
REMARK       I    between atoms: N_19  and  C_20 
REMARK    6  A    between atoms: C_28  and  N_29 
ROOT
HETATM    1  C   UNL     1      25.469  47.086  50.560  1.00  0.00     0.099 A 
HETATM    2  N   UNL     1      26.137  48.168  50.118  1.00  0.00    -0.172 NA
HETATM    3  N   UNL     1      25.353  48.678  49.147  1.00  0.00    -0.256 N 
HETATM    4  H   UNL     1      25.653  49.519  48.667  1.00  0.00     0.191 HD
HETATM    5  C   UNL     1      24.236  47.941  48.931  1.00  0.00     0.175 A 
HETATM    6  C   UNL     1      24.263  46.905  49.826  1.00  0.00     0.040 A 
HETATM    7  C   UNL     1      23.164  45.893  49.826  1.00  0.00     0.106 A 
HETATM    8  C   UNL     1      22.137  46.218  48.741  1.00  0.00     0.081 A 
HETATM    9  C   UNL     1      21.002  45.359  48.659  1.00  0.00     0.100 C 
HETATM   10  N   UNL     1      20.077  44.664  48.581  1.00  0.00    -0.191 NA
HETATM   11  C   UNL     1      22.241  47.302  47.922  1.00  0.00     0.140 A 
HETATM   12  O   UNL     1      23.324  48.197  48.002  1.00  0.00    -0.279 OA
ENDROOT
BRANCH   7  13
HETATM   13  C   UNL     1      23.836  44.537  49.661  1.00  0.00    -0.044 A 
HETATM   14  C   UNL     1      23.772  43.609  50.713  1.00  0.00     0.010 A 
HETATM   15  C   UNL     1      24.483  42.405  50.661  1.00  0.00     0.030 A 
HETATM   16  C   UNL     1      25.256  42.090  49.547  1.00  0.00     0.034 A 
HETATM   17  C   UNL     1      25.265  42.974  48.461  1.00  0.00     0.030 A 
HETATM   18  C   UNL     1      24.562  44.183  48.514  1.00  0.00     0.010 A 
BRANCH  16  19
HETATM   19  N   UNL     1      26.064  40.938  49.451  1.00  0.00    -0.328 N 
HETATM   20  C   UNL     1      27.305  40.732  50.026  1.00  0.00     0.218 C 
HETATM   21  C   UNL     1      27.897  39.401  49.631  1.00  0.00     0.117 C 
HETATM   22  O   UNL     1      27.910  41.485  50.781  1.00  0.00    -0.274 OA
HETATM   23  H   UNL     1      25.715  40.204  48.847  1.00  0.00     0.169 HD
ENDBRANCH  16  19
ENDBRANCH   7  13
BRANCH  11  24
HETATM   24  N   UNL     1      21.333  47.657  46.950  1.00  0.00    -0.282 NA
HETATM   25  H   UNL     1      21.705  48.197  46.173  1.00  0.00     0.126 HD
HETATM   26  H   UNL     1      20.481  48.049  47.343  1.00  0.00     0.126 HD
ENDBRANCH  11  24
BRANCH   1  27
HETATM   27  C   UNL     1      26.020  46.218  51.593  1.00  0.00    -0.005 A 
HETATM   28  C   UNL     1      26.854  45.147  51.260  1.00  0.00     0.014 A 
HETATM   29  C   UNL     1      27.512  44.422  52.259  1.00  0.00     0.008 A 
HETATM   30  C   UNL     1      27.344  44.748  53.611  1.00  0.00    -0.058 A 
HETATM   31  C   UNL     1      26.446  45.780  53.937  1.00  0.00     0.008 A 
HETATM   32  C   UNL     1      25.793  46.509  52.940  1.00  0.00     0.014 A 
BRANCH  30  33
HETATM   33  C   UNL     1      28.072  44.058  54.748  1.00  0.00     0.042 C 
BRANCH  33  34
HETATM   34  C   UNL     1      29.542  44.452  55.011  1.00  0.00    -0.019 C 
HETATM   35  C   UNL     1      30.394  43.235  55.384  1.00  0.00     0.010 C 
HETATM   36  C   UNL     1      29.618  45.480  56.146  1.00  0.00     0.010 C 
ENDBRANCH  33  34
ENDBRANCH  30  33
ENDBRANCH   1  27
TORSDOF 6
ENDMDL
MODEL 6
REMARK VINA RESULT:      -8.2      2.798      4.636
REMARK  6 active torsions:
REMARK  status: ('A' for Active; 'I' for Inactive)
REMARK    1  A    between atoms: C_2  and  C_3 
REMARK    2  A    between atoms: C_3  and  C_4 
REMARK    3  A    between atoms: C_7  and  C_8 
REMARK    4  A    between atoms: C_14  and  C_15 
REMARK    5  A    between atoms: C_18  and  N_19 
REMARK       I    between atoms: N_19  and  C_20 
REMARK    6  A    between atoms: C_28  and  N_29 
ROOT
HETATM    1  C   UNL     1      26.001  47.873  49.530  1.00  0.00     0.099 A 
HETATM    2  N   UNL     1      26.883  48.679  48.910  1.00  0.00    -0.172 NA
HETATM    3  N   UNL     1      26.121  49.544  48.212  1.00  0.00    -0.256 N 
HETATM    4  H   UNL     1      26.576  50.265  47.665  1.00  0.00     0.191 HD
HETATM    5  C   UNL     1      24.794  49.293  48.334  1.00  0.00     0.175 A 
HETATM    6  C   UNL     1      24.667  48.226  49.182  1.00  0.00     0.040 A 
HETATM    7  C   UNL     1      23.311  47.691  49.505  1.00  0.00     0.106 A 
HETATM    8  C   UNL     1      22.232  48.485  48.769  1.00  0.00     0.081 A 
HETATM    9  C   UNL     1      20.879  48.113  49.023  1.00  0.00     0.100 C 
HETATM   10  N   UNL     1      19.775  47.816  49.221  1.00  0.00    -0.191 NA
HETATM   11  C   UNL     1      22.514  49.540  47.955  1.00  0.00     0.140 A 
HETATM   12  O   UNL     1      23.833  49.965  47.713  1.00  0.00    -0.279 OA
ENDROOT
BRANCH   7  13
HETATM   13  C   UNL     1      23.343  46.210  49.151  1.00  0.00    -0.044 A 
HETATM   14  C   UNL     1      23.451  45.262  50.181  1.00  0.00     0.010 A 
HETATM   15  C   UNL     1      23.617  43.902  49.900  1.00  0.00     0.030 A 
HETATM   16  C   UNL     1      23.657  43.454  48.582  1.00  0.00     0.034 A 
HETATM   17  C   UNL     1      23.473  44.381  47.550  1.00  0.00     0.030 A 
HETATM   18  C   UNL     1      23.315  45.744  47.828  1.00  0.00     0.010 A 
BRANCH  16  19
HETATM   19  N   UNL     1      23.901  42.115  48.213  1.00  0.00    -0.328 N 
HETATM   20  C   UNL     1      25.127  41.481  48.112  1.00  0.00     0.218 C 
HETATM   21  C   UNL     1      24.991  40.065  47.612  1.00  0.00     0.117 C 
HETATM   22  O   UNL     1      26.228  41.945  48.386  1.00  0.00    -0.274 OA
HETATM   23  H   UNL     1      23.088  41.577  47.941  1.00  0.00     0.169 HD
ENDBRANCH  16  19
ENDBRANCH   7  13
BRANCH  11  24
HETATM   24  N   UNL     1      21.583  50.307  47.292  1.00  0.00    -0.282 NA
HETATM   25  H   UNL     1      20.879  50.753  47.875  1.00  0.00     0.126 HD
HETATM   26  H   UNL     1      21.192  49.828  46.484  1.00  0.00     0.126 HD
ENDBRANCH  11  24
BRANCH   1  27
HETATM   27  C   UNL     1      26.438  46.754  50.357  1.00  0.00    -0.005 A 
HETATM   28  C   UNL     1      26.205  46.748  51.735  1.00  0.00     0.014 A 
HETATM   29  C   UNL     1      26.475  45.605  52.495  1.00  0.00     0.008 A 
HETATM   30  C   UNL     1      26.989  44.449  51.895  1.00  0.00    -0.058 A 
HETATM   31  C   UNL     1      27.288  44.493  50.522  1.00  0.00     0.008 A 
HETATM   32  C   UNL     1      27.013  45.631  49.759  1.00  0.00     0.014 A 
BRANCH  30  33
HETATM   33  C   UNL     1      27.245  43.151  52.635  1.00  0.00     0.042 C 
BRANCH  33  34
HETATM   34  C   UNL     1      28.709  42.674  52.773  1.00  0.00    -0.019 C 
HETATM   35  C   UNL     1      28.806  41.145  52.773  1.00  0.00     0.010 C 
HETATM   36  C   UNL     1      29.318  43.211  54.074  1.00  0.00     0.010 C 
ENDBRANCH  33  34
ENDBRANCH  30  33
ENDBRANCH   1  27
TORSDOF 6
ENDMDL
MODEL 7
REMARK VINA RESULT:      -7.8      3.322      5.040
REMARK  6 active torsions:
REMARK  status: ('A' for Active; 'I' for Inactive)
REMARK    1  A    between atoms: C_2  and  C_3 
REMARK    2  A    between atoms: C_3  and  C_4 
REMARK    3  A    between atoms: C_7  and  C_8 
REMARK    4  A    between atoms: C_14  and  C_15 
REMARK    5  A    between atoms: C_18  and  N_19 
REMARK       I    between atoms: N_19  and  C_20 
REMARK    6  A    between atoms: C_28  and  N_29 
ROOT
HETATM    1  C   UNL     1      25.301  47.738  49.616  1.00  0.00     0.099 A 
HETATM    2  N   UNL     1      26.124  48.713  49.184  1.00  0.00    -0.172 NA
HETATM    3  N   UNL     1      25.316  49.581  48.544  1.00  0.00    -0.256 N 
HETATM    4  H   UNL     1      25.720  50.416  48.136  1.00  0.00     0.191 HD
HETATM    5  C   UNL     1      24.022  49.176  48.519  1.00  0.00     0.175 A 
HETATM    6  C   UNL     1      23.962  47.993  49.206  1.00  0.00     0.040 A 
HETATM    7  C   UNL     1      22.659  47.276  49.340  1.00  0.00     0.106 A 
HETATM    8  C   UNL     1      21.548  48.047  48.627  1.00  0.00     0.081 A 
HETATM    9  C   UNL     1      20.234  47.501  48.715  1.00  0.00     0.100 C 
HETATM   10  N   UNL     1      19.161  47.064  48.777  1.00  0.00    -0.191 NA
HETATM   11  C   UNL     1      21.760  49.230  47.985  1.00  0.00     0.140 A 
HETATM   12  O   UNL     1      23.035  49.822  47.913  1.00  0.00    -0.279 OA
ENDROOT
BRANCH   7  13
HETATM   13  C   UNL     1      22.888  45.872  48.799  1.00  0.00    -0.044 A 
HETATM   14  C   UNL     1      22.940  45.673  47.410  1.00  0.00     0.010 A 
HETATM   15  C   UNL     1      23.016  44.388  46.864  1.00  0.00     0.030 A 
HETATM   16  C   UNL     1      23.066  43.271  47.694  1.00  0.00     0.034 A 
HETATM   17  C   UNL     1      23.092  43.463  49.080  1.00  0.00     0.030 A 
HETATM   18  C   UNL     1      23.007  44.748  49.629  1.00  0.00     0.010 A 
BRANCH  16  19
HETATM   19  N   UNL     1      23.063  41.941  47.224  1.00  0.00    -0.328 N 
HETATM   20  C   UNL     1      21.977  41.213  46.769  1.00  0.00     0.218 C 
HETATM   21  C   UNL     1      22.353  39.794  46.424  1.00  0.00     0.117 C 
HETATM   22  O   UNL     1      20.824  41.607  46.628  1.00  0.00    -0.274 OA
HETATM   23  H   UNL     1      23.947  41.452  47.279  1.00  0.00     0.169 HD
ENDBRANCH  16  19
ENDBRANCH   7  13
BRANCH  11  24
HETATM   24  N   UNL     1      20.794  49.979  47.352  1.00  0.00    -0.282 NA
HETATM   25  H   UNL     1      20.427  49.589  46.487  1.00  0.00     0.126 HD
HETATM   26  H   UNL     1      21.055  50.959  47.273  1.00  0.00     0.126 HD
ENDBRANCH  11  24
BRANCH   1  27
HETATM   27  C   UNL     1      25.807  46.569  50.323  1.00  0.00    -0.005 A 
HETATM   28  C   UNL     1      26.592  45.617  49.664  1.00  0.00     0.014 A 
HETATM   29  C   UNL     1      27.212  44.589  50.382  1.00  0.00     0.008 A 
HETATM   30  C   UNL     1      27.055  44.487  51.770  1.00  0.00    -0.058 A 
HETATM   31  C   UNL     1      26.205  45.405  52.409  1.00  0.00     0.008 A 
HETATM   32  C   UNL     1      25.590  46.437  51.696  1.00  0.00     0.014 A 
BRANCH  30  33
HETATM   33  C   UNL     1      27.746  43.445  52.628  1.00  0.00     0.042 C 
BRANCH  33  34
HETATM   34  C   UNL     1      29.106  43.815  53.260  1.00  0.00    -0.019 C 
HETATM   35  C   UNL     1      30.110  42.663  53.153  1.00  0.00     0.010 C 
HETATM   36  C   UNL     1      28.920  44.177  54.739  1.00  0.00     0.010 C 
ENDBRANCH  33  34
ENDBRANCH  30  33
ENDBRANCH   1  27
TORSDOF 6
ENDMDL
MODEL 8
REMARK VINA RESULT:      -7.4      9.610     12.510
REMARK  6 active torsions:
REMARK  status: ('A' for Active; 'I' for Inactive)
REMARK    1  A    between atoms: C_2  and  C_3 
REMARK    2  A    between atoms: C_3  and  C_4 
REMARK    3  A    between atoms: C_7  and  C_8 
REMARK    4  A    between atoms: C_14  and  C_15 
REMARK    5  A    between atoms: C_18  and  N_19 
REMARK       I    between atoms: N_19  and  C_20 
REMARK    6  A    between atoms: C_28  and  N_29 
ROOT
HETATM    1  C   UNL     1      18.112  46.128  46.821  1.00  0.00     0.099 A 
HETATM    2  N   UNL     1      17.671  44.920  47.220  1.00  0.00    -0.172 NA
HETATM    3  N   UNL     1      16.896  44.489  46.206  1.00  0.00    -0.256 N 
HETATM    4  H   UNL     1      16.455  43.579  46.279  1.00  0.00     0.191 HD
HETATM    5  C   UNL     1      16.798  45.391  45.198  1.00  0.00     0.175 A 
HETATM    6  C   UNL     1      17.574  46.464  45.547  1.00  0.00     0.040 A 
HETATM    7  C   UNL     1      17.659  47.646  44.639  1.00  0.00     0.106 A 
HETATM    8  C   UNL     1      16.794  47.432  43.397  1.00  0.00     0.081 A 
HETATM    9  C   UNL     1      16.818  48.465  42.416  1.00  0.00     0.100 C 
HETATM   10  N   UNL     1      16.828  49.302  41.612  1.00  0.00    -0.191 NA
HETATM   11  C   UNL     1      16.075  46.294  43.182  1.00  0.00     0.140 A 
HETATM   12  O   UNL     1      16.060  45.234  44.106  1.00  0.00    -0.279 OA
ENDROOT
BRANCH   7  13
HETATM   13  C   UNL     1      17.257  48.854  45.476  1.00  0.00    -0.044 A 
HETATM   14  C   UNL     1      18.156  49.923  45.610  1.00  0.00     0.010 A 
HETATM   15  C   UNL     1      17.888  50.992  46.473  1.00  0.00     0.030 A 
HETATM   16  C   UNL     1      16.703  51.028  47.204  1.00  0.00     0.034 A 
HETATM   17  C   UNL     1      15.767  50.004  47.019  1.00  0.00     0.030 A 
HETATM   18  C   UNL     1      16.036  48.930  46.163  1.00  0.00     0.010 A 
BRANCH  16  19
HETATM   19  N   UNL     1      16.395  52.025  48.152  1.00  0.00    -0.328 N 
HETATM   20  C   UNL     1      16.693  52.022  49.503  1.00  0.00     0.218 C 
HETATM   21  C   UNL     1      16.130  53.229  50.209  1.00  0.00     0.117 C 
HETATM   22  O   UNL     1      17.339  51.181  50.120  1.00  0.00    -0.274 OA
HETATM   23  H   UNL     1      15.845  52.803  47.810  1.00  0.00     0.169 HD
ENDBRANCH  16  19
ENDBRANCH   7  13
BRANCH  11  24
HETATM   24  N   UNL     1      15.304  46.036  42.071  1.00  0.00    -0.282 NA
HETATM   25  H   UNL     1      14.663  45.251  42.149  1.00  0.00     0.126 HD
HETATM   26  H   UNL     1      15.853  46.025  41.214  1.00  0.00     0.126 HD
ENDBRANCH  11  24
BRANCH   1  27
HETATM   27  C   UNL     1      18.954  46.955  47.677  1.00  0.00    -0.005 A 
HETATM   28  C   UNL     1      20.274  47.245  47.320  1.00  0.00     0.014 A 
HETATM   29  C   UNL     1      21.021  48.171  48.056  1.00  0.00     0.008 A 
HETATM   30  C   UNL     1      20.467  48.819  49.167  1.00  0.00    -0.058 A 
HETATM   31  C   UNL     1      19.164  48.464  49.559  1.00  0.00     0.008 A 
HETATM   32  C   UNL     1      18.414  47.545  48.822  1.00  0.00     0.014 A 
BRANCH  30  33
HETATM   33  C   UNL     1      21.185  49.882  49.975  1.00  0.00     0.042 C 
BRANCH  33  34
HETATM   34  C   UNL     1      21.515  51.221  49.277  1.00  0.00    -0.019 C 
HETATM   35  C   UNL     1      20.355  51.699  48.398  1.00  0.00     0.010 C 
HETATM   36  C   UNL     1      22.769  51.068  48.407  1.00  0.00     0.010 C 
ENDBRANCH  33  34
ENDBRANCH  30  33
ENDBRANCH   1  27
TORSDOF 6
ENDMDL
MODEL 9
REMARK VINA RESULT:      -7.3      9.731     13.507
REMARK  6 active torsions:
REMARK  status: ('A' for Active; 'I' for Inactive)
REMARK    1  A    between atoms: C_2  and  C_3 
REMARK    2  A    between atoms: C_3  and  C_4 
REMARK    3  A    between atoms: C_7  and  C_8 
REMARK    4  A    between atoms: C_14  and  C_15 
REMARK    5  A    between atoms: C_18  and  N_19 
REMARK       I    between atoms: N_19  and  C_20 
REMARK    6  A    between atoms: C_28  and  N_29 
ROOT
HETATM    1  C   UNL     1      17.318  51.859  48.128  1.00  0.00     0.099 A 
HETATM    2  N   UNL     1      16.750  52.450  49.196  1.00  0.00    -0.172 NA
HETATM    3  N   UNL     1      17.708  52.432  50.144  1.00  0.00    -0.256 N 
HETATM    4  H   UNL     1      17.508  52.840  51.050  1.00  0.00     0.191 HD
HETATM    5  C   UNL     1      18.845  51.819  49.732  1.00  0.00     0.175 A 
HETATM    6  C   UNL     1      18.643  51.439  48.432  1.00  0.00     0.040 A 
HETATM    7  C   UNL     1      19.719  50.712  47.694  1.00  0.00     0.106 A 
HETATM    8  C   UNL     1      20.938  50.503  48.593  1.00  0.00     0.081 A 
HETATM    9  C   UNL     1      22.066  49.863  48.002  1.00  0.00     0.100 C 
HETATM   10  N   UNL     1      22.988  49.340  47.531  1.00  0.00    -0.191 NA
HETATM   11  C   UNL     1      20.996  50.951  49.879  1.00  0.00     0.140 A 
HETATM   12  O   UNL     1      19.920  51.625  50.485  1.00  0.00    -0.279 OA
ENDROOT
BRANCH   7  13
HETATM   13  C   UNL     1      19.090  49.421  47.189  1.00  0.00    -0.044 A 
HETATM   14  C   UNL     1      18.923  49.236  45.807  1.00  0.00     0.010 A 
HETATM   15  C   UNL     1      18.233  48.129  45.302  1.00  0.00     0.030 A 
HETATM   16  C   UNL     1      17.714  47.168  46.166  1.00  0.00     0.034 A 
HETATM   17  C   UNL     1      17.942  47.304  47.540  1.00  0.00     0.030 A 
HETATM   18  C   UNL     1      18.625  48.415  48.048  1.00  0.00     0.010 A 
BRANCH  16  19
HETATM   19  N   UNL     1      16.939  46.068  45.743  1.00  0.00    -0.328 N 
HETATM   20  C   UNL     1      17.378  44.935  45.081  1.00  0.00     0.218 C 
HETATM   21  C   UNL     1      16.240  44.012  44.724  1.00  0.00     0.117 C 
HETATM   22  O   UNL     1      18.534  44.643  44.794  1.00  0.00    -0.274 OA
HETATM   23  H   UNL     1      15.941  46.147  45.896  1.00  0.00     0.169 HD
ENDBRANCH  16  19
ENDBRANCH   7  13
BRANCH  11  24
HETATM   24  N   UNL     1      22.076  50.816  50.722  1.00  0.00    -0.282 NA
HETATM   25  H   UNL     1      22.895  51.371  50.485  1.00  0.00     0.126 HD
HETATM   26  H   UNL     1      22.293  49.842  50.920  1.00  0.00     0.126 HD
ENDBRANCH  11  24
BRANCH   1  27
HETATM   27  C   UNL     1      16.576  51.638  46.894  1.00  0.00    -0.005 A 
HETATM   28  C   UNL     1      16.899  52.338  45.728  1.00  0.00     0.014 A 
HETATM   29  C   UNL     1      16.298  52.004  44.509  1.00  0.00     0.008 A 
HETATM   30  C   UNL     1      15.357  50.969  44.433  1.00  0.00    -0.058 A 
HETATM   31  C   UNL     1      14.987  50.322  45.625  1.00  0.00     0.008 A 
HETATM   32  C   UNL     1      15.590  50.649  46.842  1.00  0.00     0.014 A 
BRANCH  30  33
HETATM   33  C   UNL     1      14.712  50.502  43.143  1.00  0.00     0.042 C 
BRANCH  33  34
HETATM   34  C   UNL     1      15.391  49.349  42.371  1.00  0.00    -0.019 C 
HETATM   35  C   UNL     1      15.228  48.010  43.098  1.00  0.00     0.010 C 
HETATM   36  C   UNL     1      16.887  49.641  42.195  1.00  0.00     0.010 C 
ENDBRANCH  33  34
ENDBRANCH  30  33
ENDBRANCH   1  27
TORSDOF 6
ENDMDL
MODEL 10
REMARK VINA RESULT:      -7.1      5.825      9.813
REMARK  6 active torsions:
REMARK  status: ('A' for Active; 'I' for Inactive)
REMARK    1  A    between atoms: C_2  and  C_3 
REMARK    2  A    between atoms: C_3  and  C_4 
REMARK    3  A    between atoms: C_7  and  C_8 
REMARK    4  A    between atoms: C_14  and  C_15 
REMARK    5  A    between atoms: C_18  and  N_19 
REMARK       I    between atoms: N_19  and  C_20 
REMARK    6  A    between atoms: C_28  and  N_29 
ROOT
HETATM    1  C   UNL     1      18.743  47.901  48.563  1.00  0.00     0.099 A 
HETATM    2  N   UNL     1      17.916  48.179  49.589  1.00  0.00    -0.172 NA
HETATM    3  N   UNL     1      18.570  49.113  50.307  1.00  0.00    -0.256 N 
HETATM    4  H   UNL     1      18.128  49.490  51.138  1.00  0.00     0.191 HD
HETATM    5  C   UNL     1      19.792  49.409  49.800  1.00  0.00     0.175 A 
HETATM    6  C   UNL     1      19.945  48.655  48.667  1.00  0.00     0.040 A 
HETATM    7  C   UNL     1      21.212  48.742  47.882  1.00  0.00     0.106 A 
HETATM    8  C   UNL     1      22.183  49.724  48.538  1.00  0.00     0.081 A 
HETATM    9  C   UNL     1      23.420  49.946  47.866  1.00  0.00     0.100 C 
HETATM   10  N   UNL     1      24.432  50.130  47.328  1.00  0.00    -0.191 NA
HETATM   11  C   UNL     1      21.883  50.416  49.673  1.00  0.00     0.140 A 
HETATM   12  O   UNL     1      20.655  50.258  50.342  1.00  0.00    -0.279 OA
ENDROOT
BRANCH   7  13
HETATM   13  C   UNL     1      21.745  47.319  47.775  1.00  0.00    -0.044 A 
HETATM   14  C   UNL     1      22.386  46.744  48.884  1.00  0.00     0.010 A 
HETATM   15  C   UNL     1      23.007  45.493  48.792  1.00  0.00     0.030 A 
HETATM   16  C   UNL     1      22.982  44.778  47.597  1.00  0.00     0.034 A 
HETATM   17  C   UNL     1      22.280  45.310  46.510  1.00  0.00     0.030 A 
HETATM   18  C   UNL     1      21.665  46.565  46.595  1.00  0.00     0.010 A 
BRANCH  16  19
HETATM   19  N   UNL     1      23.650  43.553  47.400  1.00  0.00    -0.328 N 
HETATM   20  C   UNL     1      23.386  42.343  48.019  1.00  0.00     0.218 C 
HETATM   21  C   UNL     1      24.367  41.273  47.608  1.00  0.00     0.117 C 
HETATM   22  O   UNL     1      22.480  42.092  48.806  1.00  0.00    -0.274 OA
HETATM   23  H   UNL     1      24.446  43.579  46.776  1.00  0.00     0.169 HD
ENDBRANCH  16  19
ENDBRANCH   7  13
BRANCH  11  24
HETATM   24  N   UNL     1      22.705  51.332  50.289  1.00  0.00    -0.282 NA
HETATM   25  H   UNL     1      23.665  51.033  50.444  1.00  0.00     0.126 HD
HETATM   26  H   UNL     1      22.274  51.746  51.113  1.00  0.00     0.126 HD
ENDBRANCH  11  24
BRANCH   1  27
HETATM   27  C   UNL     1      18.414  46.884  47.572  1.00  0.00    -0.005 A 
HETATM   28  C   UNL     1      18.123  47.239  46.251  1.00  0.00     0.014 A 
HETATM   29  C   UNL     1      17.972  46.254  45.269  1.00  0.00     0.008 A 
HETATM   30  C   UNL     1      18.102  44.896  45.588  1.00  0.00    -0.058 A 
HETATM   31  C   UNL     1      18.322  44.550  46.932  1.00  0.00     0.008 A 
HETATM   32  C   UNL     1      18.479  45.531  47.914  1.00  0.00     0.014 A 
BRANCH  30  33
HETATM   33  C   UNL     1      18.021  43.774  44.572  1.00  0.00     0.042 C 
BRANCH  33  34
HETATM   34  C   UNL     1      19.205  42.785  44.489  1.00  0.00    -0.019 C 
HETATM   35  C   UNL     1      20.440  43.435  43.856  1.00  0.00     0.010 C 
HETATM   36  C   UNL     1      18.810  41.556  43.662  1.00  0.00     0.010 C 
ENDBRANCH  33  34
ENDBRANCH  30  33
ENDBRANCH   1  27
TORSDOF 6
ENDMDL
