MODEL 1
REMARK VINA RESULT:      -9.4      0.000      0.000
REMARK  8 active torsions:
REMARK  status: ('A' for Active; 'I' for Inactive)
REMARK    1  A    between atoms: C_8  and  N_9 
REMARK    2  A    between atoms: C_10  and  S_11 
REMARK    3  A    between atoms: S_11  and  C_12 
REMARK    4  A    between atoms: C_12  and  C_13 
REMARK       I    between atoms: C_13  and  N_14 
REMARK    5  A    between atoms: N_14  and  C_15 
REMARK    6  A    between atoms: C_15  and  C_16 
REMARK    7  A    between atoms: C_16  and  C_17 
REMARK    8  A    between atoms: C_27  and  N_28 
ROOT
HETATM    1  N   UNL     1      26.946  42.847  51.369  1.00  0.00    -0.275 N 
HETATM    2  C   UNL     1      26.829  43.625  50.186  1.00  0.00     0.177 A 
HETATM    3  N   UNL     1      26.908  43.175  48.956  1.00  0.00    -0.204 NA
HETATM    4  C   UNL     1      27.096  41.839  48.881  1.00  0.00     0.162 A 
HETATM    5  C   UNL     1      27.218  40.919  49.886  1.00  0.00     0.081 A 
HETATM    6  C   UNL     1      27.129  41.411  51.228  1.00  0.00     0.124 A 
HETATM    7  N   UNL     1      27.218  41.125  47.726  1.00  0.00    -0.260 N 
HETATM    8  H   UNL     1      27.170  41.471  46.774  1.00  0.00     0.191 HD
HETATM    9  N   UNL     1      27.444  39.809  47.938  1.00  0.00    -0.177 NA
HETATM   10  C   UNL     1      27.450  39.679  49.275  1.00  0.00     0.068 A 
HETATM   11  C   UNL     1      27.703  38.348  49.876  1.00  0.00     0.073 C 
ENDROOT
BRANCH   2  12
HETATM   12  S   UNL     1      26.608  45.384  50.320  1.00  0.00    -0.082 SA
BRANCH  12  13
HETATM   13  C   UNL     1      24.816  45.503  50.086  1.00  0.00     0.185 C 
BRANCH  13  14
HETATM   14  C   UNL     1      24.316  46.944  50.038  1.00  0.00     0.227 C 
HETATM   15  N   UNL     1      23.139  47.084  49.319  1.00  0.00    -0.360 N 
HETATM   16  H   UNL     1      22.870  46.336  48.691  1.00  0.00     0.162 HD
HETATM   17  O   UNL     1      24.861  47.888  50.602  1.00  0.00    -0.273 OA
BRANCH  15  18
HETATM   18  C   UNL     1      22.529  48.389  49.112  1.00  0.00     0.127 C 
BRANCH  18  19
HETATM   19  C   UNL     1      21.021  48.270  48.895  1.00  0.00     0.058 C 
BRANCH  19  20
HETATM   20  C   UNL     1      20.309  49.589  49.054  1.00  0.00    -0.057 A 
HETATM   21  C   UNL     1      20.760  50.729  48.375  1.00  0.00     0.007 A 
HETATM   22  C   UNL     1      20.098  51.949  48.526  1.00  0.00     0.001 A 
HETATM   23  C   UNL     1      18.985  52.042  49.359  1.00  0.00     0.000 A 
HETATM   24  C   UNL     1      18.534  50.916  50.044  1.00  0.00     0.001 A 
HETATM   25  C   UNL     1      19.193  49.695  49.896  1.00  0.00     0.007 A 
ENDBRANCH  19  20
ENDBRANCH  18  19
ENDBRANCH  15  18
ENDBRANCH  13  14
ENDBRANCH  12  13
ENDBRANCH   2  12
BRANCH   1  26
HETATM   26  C   UNL     1      27.080  43.465  52.649  1.00  0.00     0.051 A 
HETATM   27  C   UNL     1      28.339  43.683  53.253  1.00  0.00    -0.013 A 
HETATM   28  C   UNL     1      29.613  43.216  52.594  1.00  0.00     0.052 C 
HETATM   29  C   UNL     1      28.373  44.299  54.519  1.00  0.00     0.042 A 
HETATM   30 CL   UNL     1      29.857  44.552  55.370  1.00  0.00    -0.084 Cl
HETATM   31  C   UNL     1      27.199  44.734  55.142  1.00  0.00     0.024 A 
HETATM   32  C   UNL     1      25.967  44.550  54.525  1.00  0.00     0.004 A 
HETATM   33  C   UNL     1      25.907  43.917  53.287  1.00  0.00     0.031 A 
ENDBRANCH   1  26
BRANCH   6  34
HETATM   34  N   UNL     1      27.214  40.602  52.266  1.00  0.00    -0.384 N 
HETATM   35  H   UNL     1      26.800  39.682  52.259  1.00  0.00     0.157 HD
HETATM   36  H   UNL     1      27.680  40.917  53.108  1.00  0.00     0.157 HD
ENDBRANCH   6  34
TORSDOF 8
ENDMDL
MODEL 2
REMARK VINA RESULT:      -9.2      3.904      8.221
REMARK  8 active torsions:
REMARK  status: ('A' for Active; 'I' for Inactive)
REMARK    1  A    between atoms: C_8  and  N_9 
REMARK    2  A    between atoms: C_10  and  S_11 
REMARK    3  A    between atoms: S_11  and  C_12 
REMARK    4  A    between atoms: C_12  and  C_13 
REMARK       I    between atoms: C_13  and  N_14 
REMARK    5  A    between atoms: N_14  and  C_15 
REMARK    6  A    between atoms: C_15  and  C_16 
REMARK    7  A    between atoms: C_16  and  C_17 
REMARK    8  A    between atoms: C_27  and  N_28 
ROOT
HETATM    1  N   UNL     1      24.992  45.128  51.384  1.00  0.00    -0.275 N 
HETATM    2  C   UNL     1      25.231  46.506  51.139  1.00  0.00     0.177 A 
HETATM    3  N   UNL     1      24.682  47.228  50.192  1.00  0.00    -0.204 NA
HETATM    4  C   UNL     1      23.802  46.539  49.430  1.00  0.00     0.162 A 
HETATM    5  C   UNL     1      23.424  45.227  49.509  1.00  0.00     0.081 A 
HETATM    6  C   UNL     1      24.023  44.442  50.547  1.00  0.00     0.124 A 
HETATM    7  N   UNL     1      23.102  47.050  48.378  1.00  0.00    -0.260 N 
HETATM    8  H   UNL     1      23.118  48.001  48.026  1.00  0.00     0.191 HD
HETATM    9  N   UNL     1      22.325  46.132  47.762  1.00  0.00    -0.177 NA
HETATM   10  C   UNL     1      22.526  45.000  48.457  1.00  0.00     0.068 A 
HETATM   11  C   UNL     1      21.840  43.756  48.035  1.00  0.00     0.073 C 
ENDROOT
BRANCH   2  12
HETATM   12  S   UNL     1      26.413  47.377  52.142  1.00  0.00    -0.082 SA
BRANCH  12  13
HETATM   13  C   UNL     1      25.389  47.765  53.586  1.00  0.00     0.185 C 
BRANCH  13  14
HETATM   14  C   UNL     1      26.166  47.717  54.898  1.00  0.00     0.227 C 
HETATM   15  N   UNL     1      27.201  46.796  54.880  1.00  0.00    -0.360 N 
HETATM   16  H   UNL     1      27.191  46.079  54.163  1.00  0.00     0.162 HD
HETATM   17  O   UNL     1      25.941  48.438  55.865  1.00  0.00    -0.273 OA
BRANCH  15  18
HETATM   18  C   UNL     1      28.027  46.563  56.054  1.00  0.00     0.127 C 
BRANCH  18  19
HETATM   19  C   UNL     1      29.514  46.562  55.698  1.00  0.00     0.058 C 
BRANCH  19  20
HETATM   20  C   UNL     1      30.243  45.371  56.266  1.00  0.00    -0.057 A 
HETATM   21  C   UNL     1      30.770  45.411  57.564  1.00  0.00     0.007 A 
HETATM   22  C   UNL     1      31.445  44.306  58.086  1.00  0.00     0.001 A 
HETATM   23  C   UNL     1      31.604  43.155  57.315  1.00  0.00     0.000 A 
HETATM   24  C   UNL     1      31.090  43.109  56.022  1.00  0.00     0.001 A 
HETATM   25  C   UNL     1      30.414  44.212  55.497  1.00  0.00     0.007 A 
ENDBRANCH  19  20
ENDBRANCH  18  19
ENDBRANCH  15  18
ENDBRANCH  13  14
ENDBRANCH  12  13
ENDBRANCH   2  12
BRANCH   1  26
HETATM   26  C   UNL     1      25.814  44.385  52.287  1.00  0.00     0.051 A 
HETATM   27  C   UNL     1      27.082  43.886  51.914  1.00  0.00    -0.013 A 
HETATM   28  C   UNL     1      27.612  44.065  50.514  1.00  0.00     0.052 C 
HETATM   29  C   UNL     1      27.821  43.164  52.872  1.00  0.00     0.042 A 
HETATM   30 CL   UNL     1      29.354  42.457  52.496  1.00  0.00    -0.084 Cl
HETATM   31  C   UNL     1      27.340  42.988  54.173  1.00  0.00     0.024 A 
HETATM   32  C   UNL     1      26.107  43.514  54.543  1.00  0.00     0.004 A 
HETATM   33  C   UNL     1      25.347  44.206  53.605  1.00  0.00     0.031 A 
ENDBRANCH   1  26
BRANCH   6  34
HETATM   34  N   UNL     1      23.709  43.172  50.719  1.00  0.00    -0.384 N 
HETATM   35  H   UNL     1      23.212  42.853  51.536  1.00  0.00     0.157 HD
HETATM   36  H   UNL     1      23.997  42.489  50.030  1.00  0.00     0.157 HD
ENDBRANCH   6  34
TORSDOF 8
ENDMDL
MODEL 3
REMARK VINA RESULT:      -9.0      2.544      3.347
REMARK  8 active torsions:
REMARK  status: ('A' for Active; 'I' for Inactive)
REMARK    1  A    between atoms: C_8  and  N_9 
REMARK    2  A    between atoms: C_10  and  S_11 
REMARK    3  A    between atoms: S_11  and  C_12 
REMARK    4  A    between atoms: C_12  and  C_13 
REMARK       I    between atoms: C_13  and  N_14 
REMARK    5  A    between atoms: N_14  and  C_15 
REMARK    6  A    between atoms: C_15  and  C_16 
REMARK    7  A    between atoms: C_16  and  C_17 
REMARK    8  A    between atoms: C_27  and  N_28 
ROOT
HETATM    1  N   UNL     1      24.797  44.484  51.063  1.00  0.00    -0.275 N 
HETATM    2  C   UNL     1      24.566  45.752  50.468  1.00  0.00     0.177 A 
HETATM    3  N   UNL     1      23.912  45.973  49.352  1.00  0.00    -0.204 NA
HETATM    4  C   UNL     1      23.423  44.849  48.782  1.00  0.00     0.162 A 
HETATM    5  C   UNL     1      23.520  43.549  49.197  1.00  0.00     0.081 A 
HETATM    6  C   UNL     1      24.232  43.311  50.417  1.00  0.00     0.124 A 
HETATM    7  N   UNL     1      22.714  44.801  47.619  1.00  0.00    -0.260 N 
HETATM    8  H   UNL     1      22.437  45.578  47.028  1.00  0.00     0.191 HD
HETATM    9  N   UNL     1      22.384  43.543  47.251  1.00  0.00    -0.177 NA
HETATM   10  C   UNL     1      22.887  42.764  48.223  1.00  0.00     0.068 A 
HETATM   11  C   UNL     1      22.733  41.294  48.132  1.00  0.00     0.073 C 
ENDROOT
BRANCH   2  12
HETATM   12  S   UNL     1      25.244  47.209  51.229  1.00  0.00    -0.082 SA
BRANCH  12  13
HETATM   13  C   UNL     1      26.514  47.648  50.014  1.00  0.00     0.185 C 
BRANCH  13  14
HETATM   14  C   UNL     1      26.093  48.797  49.102  1.00  0.00     0.227 C 
HETATM   15  N   UNL     1      24.718  48.939  49.011  1.00  0.00    -0.360 N 
HETATM   16  H   UNL     1      24.136  48.162  49.302  1.00  0.00     0.162 HD
HETATM   17  O   UNL     1      26.875  49.553  48.532  1.00  0.00    -0.273 OA
BRANCH  15  18
HETATM   18  C   UNL     1      24.116  49.945  48.149  1.00  0.00     0.127 C 
BRANCH  18  19
HETATM   19  C   UNL     1      23.132  50.823  48.921  1.00  0.00     0.058 C 
BRANCH  19  20
HETATM   20  C   UNL     1      21.715  50.672  48.430  1.00  0.00    -0.057 A 
HETATM   21  C   UNL     1      20.760  51.664  48.690  1.00  0.00     0.007 A 
HETATM   22  C   UNL     1      19.449  51.518  48.233  1.00  0.00     0.001 A 
HETATM   23  C   UNL     1      19.079  50.381  47.518  1.00  0.00     0.000 A 
HETATM   24  C   UNL     1      20.019  49.386  47.261  1.00  0.00     0.001 A 
HETATM   25  C   UNL     1      21.332  49.528  47.716  1.00  0.00     0.007 A 
ENDBRANCH  19  20
ENDBRANCH  18  19
ENDBRANCH  15  18
ENDBRANCH  13  14
ENDBRANCH  12  13
ENDBRANCH   2  12
BRANCH   1  26
HETATM   26  C   UNL     1      25.717  44.333  52.146  1.00  0.00     0.051 A 
HETATM   27  C   UNL     1      27.088  44.064  51.939  1.00  0.00    -0.013 A 
HETATM   28  C   UNL     1      27.644  43.864  50.551  1.00  0.00     0.052 C 
HETATM   29  C   UNL     1      27.919  43.931  53.068  1.00  0.00     0.042 A 
HETATM   30 CL   UNL     1      29.597  43.539  52.923  1.00  0.00    -0.084 Cl
HETATM   31  C   UNL     1      27.416  44.112  54.360  1.00  0.00     0.024 A 
HETATM   32  C   UNL     1      26.073  44.413  54.555  1.00  0.00     0.004 A 
HETATM   33  C   UNL     1      25.228  44.521  53.455  1.00  0.00     0.031 A 
ENDBRANCH   1  26
BRANCH   6  34
HETATM   34  N   UNL     1      24.364  42.095  50.911  1.00  0.00    -0.384 N 
HETATM   35  H   UNL     1      24.344  41.277  50.323  1.00  0.00     0.157 HD
HETATM   36  H   UNL     1      24.460  41.971  51.911  1.00  0.00     0.157 HD
ENDBRANCH   6  34
TORSDOF 8
ENDMDL
MODEL 4
REMARK VINA RESULT:      -9.0      3.709      8.155
REMARK  8 active torsions:
REMARK  status: ('A' for Active; 'I' for Inactive)
REMARK    1  A    between atoms: C_8  and  N_9 
REMARK    2  A    between atoms: C_10  and  S_11 
REMARK    3  A    between atoms: S_11  and  C_12 
REMARK    4  A    between atoms: C_12  and  C_13 
REMARK       I    between atoms: C_13  and  N_14 
REMARK    5  A    between atoms: N_14  and  C_15 
REMARK    6  A    between atoms: C_15  and  C_16 
REMARK    7  A    between atoms: C_16  and  C_17 
REMARK    8  A    between atoms: C_27  and  N_28 
ROOT
HETATM    1  N   UNL     1      24.424  44.935  49.295  1.00  0.00    -0.275 N 
HETATM    2  C   UNL     1      24.963  43.679  48.909  1.00  0.00     0.177 A 
HETATM    3  N   UNL     1      24.359  42.773  48.178  1.00  0.00    -0.204 NA
HETATM    4  C   UNL     1      23.125  43.142  47.771  1.00  0.00     0.162 A 
HETATM    5  C   UNL     1      22.437  44.299  48.017  1.00  0.00     0.081 A 
HETATM    6  C   UNL     1      23.099  45.289  48.813  1.00  0.00     0.124 A 
HETATM    7  N   UNL     1      22.287  42.384  47.009  1.00  0.00    -0.260 N 
HETATM    8  H   UNL     1      22.461  41.461  46.626  1.00  0.00     0.191 HD
HETATM    9  N   UNL     1      21.092  42.976  46.784  1.00  0.00    -0.177 NA
HETATM   10  C   UNL     1      21.180  44.161  47.411  1.00  0.00     0.068 A 
HETATM   11  C   UNL     1      20.018  45.080  47.397  1.00  0.00     0.073 C 
ENDROOT
BRANCH   2  12
HETATM   12  S   UNL     1      26.580  43.212  49.483  1.00  0.00    -0.082 SA
BRANCH  12  13
HETATM   13  C   UNL     1      26.212  41.591  50.203  1.00  0.00     0.185 C 
BRANCH  13  14
HETATM   14  C   UNL     1      27.294  41.107  51.164  1.00  0.00     0.227 C 
HETATM   15  N   UNL     1      27.263  41.760  52.386  1.00  0.00    -0.360 N 
HETATM   16  H   UNL     1      26.754  42.634  52.449  1.00  0.00     0.162 HD
HETATM   17  O   UNL     1      28.091  40.207  50.915  1.00  0.00    -0.273 OA
BRANCH  15  18
HETATM   18  C   UNL     1      28.247  41.477  53.420  1.00  0.00     0.127 C 
BRANCH  18  19
HETATM   19  C   UNL     1      29.521  42.297  53.215  1.00  0.00     0.058 C 
BRANCH  19  20
HETATM   20  C   UNL     1      29.704  43.355  54.272  1.00  0.00    -0.057 A 
HETATM   21  C   UNL     1      30.745  43.259  55.205  1.00  0.00     0.007 A 
HETATM   22  C   UNL     1      30.910  44.241  56.183  1.00  0.00     0.001 A 
HETATM   23  C   UNL     1      30.034  45.323  56.242  1.00  0.00     0.000 A 
HETATM   24  C   UNL     1      28.991  45.424  55.324  1.00  0.00     0.001 A 
HETATM   25  C   UNL     1      28.824  44.443  54.344  1.00  0.00     0.007 A 
ENDBRANCH  19  20
ENDBRANCH  18  19
ENDBRANCH  15  18
ENDBRANCH  13  14
ENDBRANCH  12  13
ENDBRANCH   2  12
BRANCH   1  26
HETATM   26  C   UNL     1      25.068  45.744  50.281  1.00  0.00     0.051 A 
HETATM   27  C   UNL     1      25.029  45.427  51.658  1.00  0.00    -0.013 A 
HETATM   28  C   UNL     1      24.249  44.240  52.164  1.00  0.00     0.052 C 
HETATM   29  C   UNL     1      25.693  46.284  52.557  1.00  0.00     0.042 A 
HETATM   30 CL   UNL     1      25.651  46.020  54.266  1.00  0.00    -0.084 Cl
HETATM   31  C   UNL     1      26.417  47.389  52.101  1.00  0.00     0.024 A 
HETATM   32  C   UNL     1      26.482  47.673  50.741  1.00  0.00     0.004 A 
HETATM   33  C   UNL     1      25.810  46.857  49.837  1.00  0.00     0.031 A 
ENDBRANCH   1  26
BRANCH   6  34
HETATM   34  N   UNL     1      22.529  46.446  49.089  1.00  0.00    -0.384 N 
HETATM   35  H   UNL     1      22.136  47.031  48.368  1.00  0.00     0.157 HD
HETATM   36  H   UNL     1      22.508  46.776  50.046  1.00  0.00     0.157 HD
ENDBRANCH   6  34
TORSDOF 8
ENDMDL
MODEL 5
REMARK VINA RESULT:      -8.7     11.214     13.743
REMARK  8 active torsions:
REMARK  status: ('A' for Active; 'I' for Inactive)
REMARK    1  A    between atoms: C_8  and  N_9 
REMARK    2  A    between atoms: C_10  and  S_11 
REMARK    3  A    between atoms: S_11  and  C_12 
REMARK    4  A    between atoms: C_12  and  C_13 
REMARK       I    between atoms: C_13  and  N_14 
REMARK    5  A    between atoms: N_14  and  C_15 
REMARK    6  A    between atoms: C_15  and  C_16 
REMARK    7  A    between atoms: C_16  and  C_17 
REMARK    8  A    between atoms: C_27  and  N_28 
ROOT
HETATM    1  N   UNL     1      26.970  48.328  40.013  1.00  0.00    -0.275 N 
HETATM    2  C   UNL     1      27.227  48.242  38.619  1.00  0.00     0.177 A 
HETATM    3  N   UNL     1      27.708  49.201  37.863  1.00  0.00    -0.204 NA
HETATM    4  C   UNL     1      27.981  50.337  38.541  1.00  0.00     0.162 A 
HETATM    5  C   UNL     1      27.823  50.616  39.872  1.00  0.00     0.081 A 
HETATM    6  C   UNL     1      27.301  49.567  40.695  1.00  0.00     0.124 A 
HETATM    7  N   UNL     1      28.481  51.481  37.993  1.00  0.00    -0.260 N 
HETATM    8  H   UNL     1      28.735  51.646  37.025  1.00  0.00     0.191 HD
HETATM    9  N   UNL     1      28.619  52.483  38.891  1.00  0.00    -0.177 NA
HETATM   10  C   UNL     1      28.207  51.952  40.054  1.00  0.00     0.068 A 
HETATM   11  C   UNL     1      28.195  52.793  41.274  1.00  0.00     0.073 C 
ENDROOT
BRANCH   2  12
HETATM   12  S   UNL     1      26.832  46.742  37.750  1.00  0.00    -0.082 SA
BRANCH  12  13
HETATM   13  C   UNL     1      28.497  46.157  37.341  1.00  0.00     0.185 C 
BRANCH  13  14
HETATM   14  C   UNL     1      29.435  46.141  38.545  1.00  0.00     0.227 C 
HETATM   15  N   UNL     1      30.176  47.306  38.667  1.00  0.00    -0.360 N 
HETATM   16  H   UNL     1      30.247  47.915  37.860  1.00  0.00     0.162 HD
HETATM   17  O   UNL     1      29.512  45.222  39.354  1.00  0.00    -0.273 OA
BRANCH  15  18
HETATM   18  C   UNL     1      31.167  47.466  39.720  1.00  0.00     0.127 C 
BRANCH  18  19
HETATM   19  C   UNL     1      30.568  48.148  40.950  1.00  0.00     0.058 C 
BRANCH  19  20
HETATM   20  C   UNL     1      31.042  49.569  41.110  1.00  0.00    -0.057 A 
HETATM   21  C   UNL     1      30.994  50.200  42.360  1.00  0.00     0.007 A 
HETATM   22  C   UNL     1      31.433  51.518  42.504  1.00  0.00     0.001 A 
HETATM   23  C   UNL     1      31.919  52.217  41.400  1.00  0.00     0.000 A 
HETATM   24  C   UNL     1      31.964  51.601  40.152  1.00  0.00     0.001 A 
HETATM   25  C   UNL     1      31.525  50.283  40.005  1.00  0.00     0.007 A 
ENDBRANCH  19  20
ENDBRANCH  18  19
ENDBRANCH  15  18
ENDBRANCH  13  14
ENDBRANCH  12  13
ENDBRANCH   2  12
BRANCH   1  26
HETATM   26  C   UNL     1      26.230  47.311  40.690  1.00  0.00     0.051 A 
HETATM   27  C   UNL     1      24.817  47.279  40.689  1.00  0.00    -0.013 A 
HETATM   28  C   UNL     1      24.012  48.359  40.012  1.00  0.00     0.052 C 
HETATM   29  C   UNL     1      24.174  46.237  41.385  1.00  0.00     0.042 A 
HETATM   30 CL   UNL     1      22.450  46.145  41.497  1.00  0.00    -0.084 Cl
HETATM   31  C   UNL     1      24.908  45.230  42.019  1.00  0.00     0.024 A 
HETATM   32  C   UNL     1      26.298  45.248  41.985  1.00  0.00     0.004 A 
HETATM   33  C   UNL     1      26.955  46.284  41.327  1.00  0.00     0.031 A 
ENDBRANCH   1  26
BRANCH   6  34
HETATM   34  N   UNL     1      27.130  49.730  41.993  1.00  0.00    -0.384 N 
HETATM   35  H   UNL     1      26.472  50.399  42.363  1.00  0.00     0.157 HD
HETATM   36  H   UNL     1      27.693  49.194  42.641  1.00  0.00     0.157 HD
ENDBRANCH   6  34
TORSDOF 8
ENDMDL
MODEL 6
REMARK VINA RESULT:      -8.6     11.881     14.329
REMARK  8 active torsions:
REMARK  status: ('A' for Active; 'I' for Inactive)
REMARK    1  A    between atoms: C_8  and  N_9 
REMARK    2  A    between atoms: C_10  and  S_11 
REMARK    3  A    between atoms: S_11  and  C_12 
REMARK    4  A    between atoms: C_12  and  C_13 
REMARK       I    between atoms: C_13  and  N_14 
REMARK    5  A    between atoms: N_14  and  C_15 
REMARK    6  A    between atoms: C_15  and  C_16 
REMARK    7  A    between atoms: C_16  and  C_17 
REMARK    8  A    between atoms: C_27  and  N_28 
ROOT
HETATM    1  N   UNL     1      27.611  49.455  39.130  1.00  0.00    -0.275 N 
HETATM    2  C   UNL     1      28.465  48.338  38.932  1.00  0.00     0.177 A 
HETATM    3  N   UNL     1      28.097  47.079  38.911  1.00  0.00    -0.204 NA
HETATM    4  C   UNL     1      26.767  46.903  39.076  1.00  0.00     0.162 A 
HETATM    5  C   UNL     1      25.782  47.834  39.263  1.00  0.00     0.081 A 
HETATM    6  C   UNL     1      26.187  49.208  39.284  1.00  0.00     0.124 A 
HETATM    7  N   UNL     1      26.129  45.699  39.100  1.00  0.00    -0.260 N 
HETATM    8  H   UNL     1      26.537  44.778  38.983  1.00  0.00     0.191 HD
HETATM    9  N   UNL     1      24.800  45.807  39.326  1.00  0.00    -0.177 NA
HETATM   10  C   UNL     1      24.583  47.128  39.433  1.00  0.00     0.068 A 
HETATM   11  C   UNL     1      23.214  47.620  39.714  1.00  0.00     0.073 C 
ENDROOT
BRANCH   2  12
HETATM   12  S   UNL     1      30.214  48.601  38.744  1.00  0.00    -0.082 SA
BRANCH  12  13
HETATM   13  C   UNL     1      30.856  47.181  39.667  1.00  0.00     0.185 C 
BRANCH  13  14
HETATM   14  C   UNL     1      31.770  47.585  40.821  1.00  0.00     0.227 C 
HETATM   15  N   UNL     1      31.188  48.510  41.672  1.00  0.00    -0.360 N 
HETATM   16  H   UNL     1      30.380  49.024  41.341  1.00  0.00     0.162 HD
HETATM   17  O   UNL     1      32.889  47.121  41.015  1.00  0.00    -0.273 OA
BRANCH  15  18
HETATM   18  C   UNL     1      31.918  49.060  42.805  1.00  0.00     0.127 C 
BRANCH  18  19
HETATM   19  C   UNL     1      32.101  50.572  42.668  1.00  0.00     0.058 C 
BRANCH  19  20
HETATM   20  C   UNL     1      32.998  50.942  41.515  1.00  0.00    -0.057 A 
HETATM   21  C   UNL     1      34.342  50.545  41.501  1.00  0.00     0.007 A 
HETATM   22  C   UNL     1      35.170  50.892  40.432  1.00  0.00     0.001 A 
HETATM   23  C   UNL     1      34.665  51.641  39.371  1.00  0.00     0.000 A 
HETATM   24  C   UNL     1      33.332  52.046  39.379  1.00  0.00     0.001 A 
HETATM   25  C   UNL     1      32.502  51.702  40.447  1.00  0.00     0.007 A 
ENDBRANCH  19  20
ENDBRANCH  18  19
ENDBRANCH  15  18
ENDBRANCH  13  14
ENDBRANCH  12  13
ENDBRANCH   2  12
BRANCH   1  26
HETATM   26  C   UNL     1      28.143  50.759  39.370  1.00  0.00     0.051 A 
HETATM   27  C   UNL     1      28.584  51.169  40.648  1.00  0.00    -0.013 A 
HETATM   28  C   UNL     1      28.460  50.262  41.846  1.00  0.00     0.052 C 
HETATM   29  C   UNL     1      29.094  52.474  40.788  1.00  0.00     0.042 A 
HETATM   30 CL   UNL     1      29.600  53.095  42.322  1.00  0.00    -0.084 Cl
HETATM   31  C   UNL     1      29.212  53.327  39.686  1.00  0.00     0.024 A 
HETATM   32  C   UNL     1      28.811  52.903  38.424  1.00  0.00     0.004 A 
HETATM   33  C   UNL     1      28.277  51.627  38.268  1.00  0.00     0.031 A 
ENDBRANCH   1  26
BRANCH   6  34
HETATM   34  N   UNL     1      25.310  50.182  39.438  1.00  0.00    -0.384 N 
HETATM   35  H   UNL     1      24.361  50.003  39.727  1.00  0.00     0.157 HD
HETATM   36  H   UNL     1      25.583  51.136  39.234  1.00  0.00     0.157 HD
ENDBRANCH   6  34
TORSDOF 8
ENDMDL
MODEL 7
REMARK VINA RESULT:      -8.5      3.296      5.212
REMARK  8 active torsions:
REMARK  status: ('A' for Active; 'I' for Inactive)
REMARK    1  A    between atoms: C_8  and  N_9 
REMARK    2  A    between atoms: C_10  and  S_11 
REMARK    3  A    between atoms: S_11  and  C_12 
REMARK    4  A    between atoms: C_12  and  C_13 
REMARK       I    between atoms: C_13  and  N_14 
REMARK    5  A    between atoms: N_14  and  C_15 
REMARK    6  A    between atoms: C_15  and  C_16 
REMARK    7  A    between atoms: C_16  and  C_17 
REMARK    8  A    between atoms: C_27  and  N_28 
ROOT
HETATM    1  N   UNL     1      25.005  46.293  50.661  1.00  0.00    -0.275 N 
HETATM    2  C   UNL     1      24.620  45.075  50.039  1.00  0.00     0.177 A 
HETATM    3  N   UNL     1      24.947  43.869  50.435  1.00  0.00    -0.204 NA
HETATM    4  C   UNL     1      25.703  43.856  51.556  1.00  0.00     0.162 A 
HETATM    5  C   UNL     1      26.164  44.902  52.307  1.00  0.00     0.081 A 
HETATM    6  C   UNL     1      25.802  46.218  51.874  1.00  0.00     0.124 A 
HETATM    7  N   UNL     1      26.182  42.737  52.170  1.00  0.00    -0.260 N 
HETATM    8  H   UNL     1      26.035  41.770  51.901  1.00  0.00     0.191 HD
HETATM    9  N   UNL     1      26.948  43.011  53.249  1.00  0.00    -0.177 NA
HETATM   10  C   UNL     1      26.944  44.352  53.334  1.00  0.00     0.068 A 
HETATM   11  C   UNL     1      27.721  45.016  54.406  1.00  0.00     0.073 C 
ENDROOT
BRANCH   2  12
HETATM   12  S   UNL     1      23.647  45.128  48.551  1.00  0.00    -0.082 SA
BRANCH  12  13
HETATM   13  C   UNL     1      22.119  44.348  49.136  1.00  0.00     0.185 C 
BRANCH  13  14
HETATM   14  C   UNL     1      20.862  45.037  48.614  1.00  0.00     0.227 C 
HETATM   15  N   UNL     1      21.109  46.304  48.111  1.00  0.00    -0.360 N 
HETATM   16  H   UNL     1      21.978  46.758  48.364  1.00  0.00     0.162 HD
HETATM   17  O   UNL     1      19.747  44.524  48.595  1.00  0.00    -0.273 OA
BRANCH  15  18
HETATM   18  C   UNL     1      20.030  47.145  47.614  1.00  0.00     0.127 C 
BRANCH  18  19
HETATM   19  C   UNL     1      20.540  48.531  47.220  1.00  0.00     0.058 C 
BRANCH  19  20
HETATM   20  C   UNL     1      20.040  49.613  48.142  1.00  0.00    -0.057 A 
HETATM   21  C   UNL     1      19.417  49.286  49.354  1.00  0.00     0.007 A 
HETATM   22  C   UNL     1      18.954  50.292  50.204  1.00  0.00     0.001 A 
HETATM   23  C   UNL     1      19.107  51.632  49.850  1.00  0.00     0.000 A 
HETATM   24  C   UNL     1      19.719  51.966  48.645  1.00  0.00     0.001 A 
HETATM   25  C   UNL     1      20.182  50.963  47.792  1.00  0.00     0.007 A 
ENDBRANCH  19  20
ENDBRANCH  18  19
ENDBRANCH  15  18
ENDBRANCH  13  14
ENDBRANCH  12  13
ENDBRANCH   2  12
BRANCH   1  26
HETATM   26  C   UNL     1      24.792  47.550  50.018  1.00  0.00     0.051 A 
HETATM   27  C   UNL     1      25.830  48.243  49.354  1.00  0.00    -0.013 A 
HETATM   28  C   UNL     1      27.240  47.710  49.341  1.00  0.00     0.052 C 
HETATM   29  C   UNL     1      25.525  49.477  48.749  1.00  0.00     0.042 A 
HETATM   30 CL   UNL     1      26.737  50.433  47.968  1.00  0.00    -0.084 Cl
HETATM   31  C   UNL     1      24.222  49.984  48.756  1.00  0.00     0.024 A 
HETATM   32  C   UNL     1      23.198  49.279  49.379  1.00  0.00     0.004 A 
HETATM   33  C   UNL     1      23.482  48.070  50.009  1.00  0.00     0.031 A 
ENDBRANCH   1  26
BRANCH   6  34
HETATM   34  N   UNL     1      26.180  47.292  52.541  1.00  0.00    -0.384 N 
HETATM   35  H   UNL     1      25.682  47.614  53.357  1.00  0.00     0.157 HD
HETATM   36  H   UNL     1      26.973  47.829  52.214  1.00  0.00     0.157 HD
ENDBRANCH   6  34
TORSDOF 8
ENDMDL
MODEL 8
REMARK VINA RESULT:      -8.4      4.354      6.601
REMARK  8 active torsions:
REMARK  status: ('A' for Active; 'I' for Inactive)
REMARK    1  A    between atoms: C_8  and  N_9 
REMARK    2  A    between atoms: C_10  and  S_11 
REMARK    3  A    between atoms: S_11  and  C_12 
REMARK    4  A    between atoms: C_12  and  C_13 
REMARK       I    between atoms: C_13  and  N_14 
REMARK    5  A    between atoms: N_14  and  C_15 
REMARK    6  A    between atoms: C_15  and  C_16 
REMARK    7  A    between atoms: C_16  and  C_17 
REMARK    8  A    between atoms: C_27  and  N_28 
ROOT
HETATM    1  N   UNL     1      26.756  41.916  49.946  1.00  0.00    -0.275 N 
HETATM    2  C   UNL     1      27.451  41.454  51.095  1.00  0.00     0.177 A 
HETATM    3  N   UNL     1      28.302  40.456  51.132  1.00  0.00    -0.204 NA
HETATM    4  C   UNL     1      28.505  39.875  49.929  1.00  0.00     0.162 A 
HETATM    5  C   UNL     1      27.954  40.175  48.713  1.00  0.00     0.081 A 
HETATM    6  C   UNL     1      27.027  41.267  48.675  1.00  0.00     0.124 A 
HETATM    7  N   UNL     1      29.333  38.818  49.695  1.00  0.00    -0.260 N 
HETATM    8  H   UNL     1      29.920  38.329  50.362  1.00  0.00     0.191 HD
HETATM    9  N   UNL     1      29.315  38.405  48.407  1.00  0.00    -0.177 NA
HETATM   10  C   UNL     1      28.457  39.241  47.797  1.00  0.00     0.068 A 
HETATM   11  C   UNL     1      28.167  39.061  46.356  1.00  0.00     0.073 C 
ENDROOT
BRANCH   2  12
HETATM   12  S   UNL     1      27.142  42.223  52.668  1.00  0.00    -0.082 SA
BRANCH  12  13
HETATM   13  C   UNL     1      28.591  41.655  53.596  1.00  0.00     0.185 C 
BRANCH  13  14
HETATM   14  C   UNL     1      29.575  42.778  53.911  1.00  0.00     0.227 C 
HETATM   15  N   UNL     1      29.149  43.594  54.947  1.00  0.00    -0.360 N 
HETATM   16  H   UNL     1      28.170  43.565  55.208  1.00  0.00     0.162 HD
HETATM   17  O   UNL     1      30.653  42.935  53.346  1.00  0.00    -0.273 OA
BRANCH  15  18
HETATM   18  C   UNL     1      29.923  44.754  55.363  1.00  0.00     0.127 C 
BRANCH  18  19
HETATM   19  C   UNL     1      29.055  45.759  56.120  1.00  0.00     0.058 C 
BRANCH  19  20
HETATM   20  C   UNL     1      27.944  46.319  55.270  1.00  0.00    -0.057 A 
HETATM   21  C   UNL     1      27.522  45.646  54.116  1.00  0.00     0.007 A 
HETATM   22  C   UNL     1      26.493  46.169  53.331  1.00  0.00     0.001 A 
HETATM   23  C   UNL     1      25.879  47.368  53.689  1.00  0.00     0.000 A 
HETATM   24  C   UNL     1      26.297  48.047  54.831  1.00  0.00     0.001 A 
HETATM   25  C   UNL     1      27.326  47.528  55.619  1.00  0.00     0.007 A 
ENDBRANCH  19  20
ENDBRANCH  18  19
ENDBRANCH  15  18
ENDBRANCH  13  14
ENDBRANCH  12  13
ENDBRANCH   2  12
BRANCH   1  26
HETATM   26  C   UNL     1      25.682  42.851  50.060  1.00  0.00     0.051 A 
HETATM   27  C   UNL     1      25.890  44.248  50.014  1.00  0.00    -0.013 A 
HETATM   28  C   UNL     1      27.277  44.827  49.899  1.00  0.00     0.052 C 
HETATM   29  C   UNL     1      24.769  45.092  50.135  1.00  0.00     0.042 A 
HETATM   30 CL   UNL     1      24.925  46.815  50.156  1.00  0.00    -0.084 Cl
HETATM   31  C   UNL     1      23.477  44.568  50.245  1.00  0.00     0.024 A 
HETATM   32  C   UNL     1      23.277  43.192  50.251  1.00  0.00     0.004 A 
HETATM   33  C   UNL     1      24.372  42.339  50.162  1.00  0.00     0.031 A 
ENDBRANCH   1  26
BRANCH   6  34
HETATM   34  N   UNL     1      26.457  41.647  47.548  1.00  0.00    -0.384 N 
HETATM   35  H   UNL     1      25.716  42.331  47.531  1.00  0.00     0.157 HD
HETATM   36  H   UNL     1      26.746  41.224  46.675  1.00  0.00     0.157 HD
ENDBRANCH   6  34
TORSDOF 8
ENDMDL
MODEL 9
REMARK VINA RESULT:      -8.3     12.559     14.979
REMARK  8 active torsions:
REMARK  status: ('A' for Active; 'I' for Inactive)
REMARK    1  A    between atoms: C_8  and  N_9 
REMARK    2  A    between atoms: C_10  and  S_11 
REMARK    3  A    between atoms: S_11  and  C_12 
REMARK    4  A    between atoms: C_12  and  C_13 
REMARK       I    between atoms: C_13  and  N_14 
REMARK    5  A    between atoms: N_14  and  C_15 
REMARK    6  A    between atoms: C_15  and  C_16 
REMARK    7  A    between atoms: C_16  and  C_17 
REMARK    8  A    between atoms: C_27  and  N_28 
ROOT
HETATM    1  N   UNL     1      28.150  49.558  39.675  1.00  0.00    -0.275 N 
HETATM    2  C   UNL     1      28.040  50.498  38.616  1.00  0.00     0.177 A 
HETATM    3  N   UNL     1      26.948  50.783  37.948  1.00  0.00    -0.204 NA
HETATM    4  C   UNL     1      25.861  50.100  38.373  1.00  0.00     0.162 A 
HETATM    5  C   UNL     1      25.752  49.174  39.373  1.00  0.00     0.081 A 
HETATM    6  C   UNL     1      26.945  48.866  40.103  1.00  0.00     0.124 A 
HETATM    7  N   UNL     1      24.609  50.206  37.845  1.00  0.00    -0.260 N 
HETATM    8  H   UNL     1      24.303  50.808  37.088  1.00  0.00     0.191 HD
HETATM    9  N   UNL     1      23.716  49.376  38.429  1.00  0.00    -0.177 NA
HETATM   10  C   UNL     1      24.422  48.731  39.373  1.00  0.00     0.068 A 
HETATM   11  C   UNL     1      23.755  47.704  40.206  1.00  0.00     0.073 C 
ENDROOT
BRANCH   2  12
HETATM   12  S   UNL     1      29.493  51.361  38.063  1.00  0.00    -0.082 SA
BRANCH  12  13
HETATM   13  C   UNL     1      29.400  52.846  39.097  1.00  0.00     0.185 C 
BRANCH  13  14
HETATM   14  C   UNL     1      30.685  53.112  39.875  1.00  0.00     0.227 C 
HETATM   15  N   UNL     1      31.695  52.212  39.574  1.00  0.00    -0.360 N 
HETATM   16  H   UNL     1      31.442  51.346  39.114  1.00  0.00     0.162 HD
HETATM   17  O   UNL     1      30.843  54.043  40.659  1.00  0.00    -0.273 OA
BRANCH  15  18
HETATM   18  C   UNL     1      32.983  52.265  40.249  1.00  0.00     0.127 C 
BRANCH  18  19
HETATM   19  C   UNL     1      34.040  51.456  39.498  1.00  0.00     0.058 C 
BRANCH  19  20
HETATM   20  C   UNL     1      35.281  51.224  40.321  1.00  0.00    -0.057 A 
HETATM   21  C   UNL     1      36.549  51.504  39.793  1.00  0.00     0.007 A 
HETATM   22  C   UNL     1      37.696  51.285  40.558  1.00  0.00     0.001 A 
HETATM   23  C   UNL     1      37.587  50.782  41.854  1.00  0.00     0.000 A 
HETATM   24  C   UNL     1      36.332  50.494  42.384  1.00  0.00     0.001 A 
HETATM   25  C   UNL     1      35.183  50.711  41.621  1.00  0.00     0.007 A 
ENDBRANCH  19  20
ENDBRANCH  18  19
ENDBRANCH  15  18
ENDBRANCH  13  14
ENDBRANCH  12  13
ENDBRANCH   2  12
BRANCH   1  26
HETATM   26  C   UNL     1      29.426  49.154  40.174  1.00  0.00     0.051 A 
HETATM   27  C   UNL     1      29.997  49.725  41.333  1.00  0.00    -0.013 A 
HETATM   28  C   UNL     1      29.306  50.841  42.076  1.00  0.00     0.052 C 
HETATM   29  C   UNL     1      31.261  49.263  41.749  1.00  0.00     0.042 A 
HETATM   30 CL   UNL     1      32.073  49.942  43.117  1.00  0.00    -0.084 Cl
HETATM   31  C   UNL     1      31.913  48.230  41.069  1.00  0.00     0.024 A 
HETATM   32  C   UNL     1      31.327  47.647  39.951  1.00  0.00     0.004 A 
HETATM   33  C   UNL     1      30.092  48.108  39.504  1.00  0.00     0.031 A 
ENDBRANCH   1  26
BRANCH   6  34
HETATM   34  N   UNL     1      26.940  48.001  41.100  1.00  0.00    -0.384 N 
HETATM   35  H   UNL     1      26.157  47.920  41.729  1.00  0.00     0.157 HD
HETATM   36  H   UNL     1      27.754  47.421  41.261  1.00  0.00     0.157 HD
ENDBRANCH   6  34
TORSDOF 8
ENDMDL
MODEL 10
REMARK VINA RESULT:      -8.2      1.353      2.301
REMARK  8 active torsions:
REMARK  status: ('A' for Active; 'I' for Inactive)
REMARK    1  A    between atoms: C_8  and  N_9 
REMARK    2  A    between atoms: C_10  and  S_11 
REMARK    3  A    between atoms: S_11  and  C_12 
REMARK    4  A    between atoms: C_12  and  C_13 
REMARK       I    between atoms: C_13  and  N_14 
REMARK    5  A    between atoms: N_14  and  C_15 
REMARK    6  A    between atoms: C_15  and  C_16 
REMARK    7  A    between atoms: C_16  and  C_17 
REMARK    8  A    between atoms: C_27  and  N_28 
ROOT
HETATM    1  N   UNL     1      27.004  42.923  51.471  1.00  0.00    -0.275 N 
HETATM    2  C   UNL     1      26.784  43.755  50.341  1.00  0.00     0.177 A 
HETATM    3  N   UNL     1      26.774  43.367  49.088  1.00  0.00    -0.204 NA
HETATM    4  C   UNL     1      26.977  42.039  48.932  1.00  0.00     0.162 A 
HETATM    5  C   UNL     1      27.190  41.075  49.879  1.00  0.00     0.081 A 
HETATM    6  C   UNL     1      27.197  41.500  51.246  1.00  0.00     0.124 A 
HETATM    7  N   UNL     1      27.020  41.384  47.738  1.00  0.00    -0.260 N 
HETATM    8  H   UNL     1      26.893  41.775  46.811  1.00  0.00     0.191 HD
HETATM    9  N   UNL     1      27.282  40.064  47.867  1.00  0.00    -0.177 NA
HETATM   10  C   UNL     1      27.393  39.870  49.191  1.00  0.00     0.068 A 
HETATM   11  C   UNL     1      27.712  38.517  49.704  1.00  0.00     0.073 C 
ENDROOT
BRANCH   2  12
HETATM   12  S   UNL     1      26.546  45.501  50.578  1.00  0.00    -0.082 SA
BRANCH  12  13
HETATM   13  C   UNL     1      24.803  45.656  50.111  1.00  0.00     0.185 C 
BRANCH  13  14
HETATM   14  C   UNL     1      24.370  47.104  49.900  1.00  0.00     0.227 C 
HETATM   15  N   UNL     1      23.093  47.215  49.374  1.00  0.00    -0.360 N 
HETATM   16  H   UNL     1      22.682  46.398  48.937  1.00  0.00     0.162 HD
HETATM   17  O   UNL     1      25.049  48.082  50.196  1.00  0.00    -0.273 OA
BRANCH  15  18
HETATM   18  C   UNL     1      22.517  48.512  49.051  1.00  0.00     0.127 C 
BRANCH  18  19
HETATM   19  C   UNL     1      20.991  48.443  48.985  1.00  0.00     0.058 C 
BRANCH  19  20
HETATM   20  C   UNL     1      20.501  47.281  48.159  1.00  0.00    -0.057 A 
HETATM   21  C   UNL     1      20.862  47.163  46.810  1.00  0.00     0.007 A 
HETATM   22  C   UNL     1      20.404  46.086  46.049  1.00  0.00     0.001 A 
HETATM   23  C   UNL     1      19.579  45.121  46.627  1.00  0.00     0.000 A 
HETATM   24  C   UNL     1      19.209  45.235  47.965  1.00  0.00     0.001 A 
HETATM   25  C   UNL     1      19.665  46.311  48.729  1.00  0.00     0.007 A 
ENDBRANCH  19  20
ENDBRANCH  18  19
ENDBRANCH  15  18
ENDBRANCH  13  14
ENDBRANCH  12  13
ENDBRANCH   2  12
BRANCH   1  26
HETATM   26  C   UNL     1      27.227  43.482  52.767  1.00  0.00     0.051 A 
HETATM   27  C   UNL     1      28.523  43.637  53.308  1.00  0.00    -0.013 A 
HETATM   28  C   UNL     1      29.743  43.163  52.560  1.00  0.00     0.052 C 
HETATM   29  C   UNL     1      28.645  44.197  54.594  1.00  0.00     0.042 A 
HETATM   30 CL   UNL     1      30.181  44.370  55.371  1.00  0.00    -0.084 Cl
HETATM   31  C   UNL     1      27.521  44.639  55.300  1.00  0.00     0.024 A 
HETATM   32  C   UNL     1      26.252  44.517  54.745  1.00  0.00     0.004 A 
HETATM   33  C   UNL     1      26.105  43.939  53.487  1.00  0.00     0.031 A 
ENDBRANCH   1  26
BRANCH   6  34
HETATM   34  N   UNL     1      27.374  40.643  52.234  1.00  0.00    -0.384 N 
HETATM   35  H   UNL     1      26.632  40.410  52.876  1.00  0.00     0.157 HD
HETATM   36  H   UNL     1      28.286  40.227  52.375  1.00  0.00     0.157 HD
ENDBRANCH   6  34
TORSDOF 8
ENDMDL
